19
Frame=0 idx=007572 GeodesicLength=0.0 rxn_smarts="[C:1]([C@@:2]([O:3][H:12])([C@@:4]1([H:13])[C:5]([H:14])([H:15])[C@:6]1([C:7]([H:17])([H:18])[H:19])[H:16])[H:11])([H:8])([H:9])[H:10]>>[C:1]([C@@:2]([O:3][C:7]([H:17])([H:18])[H:19])([C:4]1([H:13])[C:5]([H:14])([H:15])[C:6]1([H:12])[H:16])[H:11])([H:8])([H:9])[H:10]"
C        2.36434286       0.01019179       0.19391273
C        0.92260979      -0.27447401      -0.16610303
O        0.32464796      -1.02503003       0.92266156
C        0.10870991       1.01369374      -0.32779740
C       -1.18357407       1.05169265      -1.08734655
C       -1.19798364       0.93665841       0.39813998
C       -1.46847138      -1.55156789       0.42197995
H        2.83831201       0.56563370      -0.61844313
H        2.92238263      -0.91118482       0.36122170
H        2.41589304       0.61911066       1.09911218
H        0.87360313      -0.92461434      -1.04416858
H       -0.20168776      -0.29520179       1.35775686
H        0.71361121       1.91696163      -0.33572521
H       -1.45687820       0.20457987      -1.71973820
H       -1.43529776       2.00080731      -1.55267406
H       -1.54573122       1.79089761       0.97112384
H       -1.00357508      -2.52321342       0.30039267
H       -1.90485729      -1.14740130      -0.47663098
H       -2.08605623      -1.45753979       1.30232562
19
Frame=1 idx=007572 GeodesicLength=0.09301510643866806 rxn_smarts="[C:1]([C@@:2]([O:3][H:12])([C@@:4]1([H:13])[C:5]([H:14])([H:15])[C@:6]1([C:7]([H:17])([H:18])[H:19])[H:16])[H:11])([H:8])([H:9])[H:10]>>[C:1]([C@@:2]([O:3][C:7]([H:17])([H:18])[H:19])([C:4]1([H:13])[C:5]([H:14])([H:15])[C:6]1([H:12])[H:16])[H:11])([H:8])([H:9])[H:10]"
C        2.36711103       0.00787499       0.19067800
C        0.92267752      -0.27614828      -0.15806123
O        0.32999318      -1.01300525       0.94145486
C        0.10988934       1.01047384      -0.32771647
C       -1.18023117       1.05301890      -1.08887242
C       -1.19922608       0.93437737       0.39705671
C       -1.46379722      -1.54579823       0.41626743
H        2.83825926       0.55638860      -0.62793174
H        2.92303951      -0.91432594       0.36086036
H        2.42683043       0.62138242       1.09221423
H        0.86849336      -0.93228323      -1.03159442
H       -0.20984340      -0.26684835       1.37874022
H        0.70996808       1.91680030      -0.33034822
H       -1.45435344       0.20679459      -1.72077403
H       -1.43243875       2.00237672      -1.55278454
H       -1.54863606       1.79032915       0.96607293
H       -0.99519701      -2.51278265       0.26803757
H       -1.93302060      -1.15930858      -0.47450651
H       -2.07951799      -1.47931637       1.30120727
19
Frame=2 idx=007572 GeodesicLength=0.18595092515805595 rxn_smarts="[C:1]([C@@:2]([O:3][H:12])([C@@:4]1([H:13])[C:5]([H:14])([H:15])[C@:6]1([C:7]([H:17])([H:18])[H:19])[H:16])[H:11])([H:8])([H:9])[H:10]>>[C:1]([C@@:2]([O:3][C:7]([H:17])([H:18])[H:19])([C:4]1([H:13])[C:5]([H:14])([H:15])[C:6]1([H:12])[H:16])[H:11])([H:8])([H:9])[H:10]"
C        2.36978534       0.00545162       0.18765425
C        0.92279085      -0.27778166      -0.15013892
O        0.33531242      -1.00123259       0.95958929
C        0.11109735       1.00724612      -0.32767949
C       -1.17687882       1.05426064      -1.09041167
C       -1.20040997       0.93216412       0.39595975
C       -1.45933907      -1.53986129       0.41030323
H        2.83824142       0.54714034      -0.63695365
H        2.92358850      -0.91757281       0.36068335
H        2.43745333       0.62334780       1.08556918
H        0.86361879      -0.93961505      -1.01928747
H       -0.21819114      -0.23807960       1.39927532
H        0.70633739       1.91658230      -0.32511088
H       -1.45202243       0.20884414      -1.72163032
H       -1.42957909       2.00381091      -1.55300365
H       -1.55147982       1.78986425       0.96091971
H       -0.98712616      -2.50148654       0.23548897
H       -1.96145985      -1.17158727      -0.47124524
H       -2.07173905      -1.50149543       1.30001824
19
Frame=3 idx=007572 GeodesicLength=0.27882709237296815 rxn_smarts="[C:1]([C@@:2]([O:3][H:12])([C@@:4]1([H:13])[C:5]([H:14])([H:15])[C@:6]1([C:7]([H:17])([H:18])[H:19])[H:16])[H:11])([H:8])([H:9])[H:10]>>[C:1]([C@@:2]([O:3][C:7]([H:17])([H:18])[H:19])([C:4]1([H:13])[C:5]([H:14])([H:15])[C:6]1([H:12])[H:16])[H:11])([H:8])([H:9])[H:10]"
C        2.37236818       0.00292238       0.18482727
C        0.92294108      -0.27937803      -0.14233516
O        0.34060701      -0.98973046       0.97708546
C        0.11232998       1.00401270      -0.32767050
C       -1.17351066       1.05543272      -1.09196617
C       -1.20154836       0.93001164       0.39484547
C       -1.45512136      -1.53376763       0.40411258
H        2.83825491       0.53789495      -0.64553183
H        2.92403439      -0.92092590       0.36066379
H        2.44777825       0.62500593       1.07917272
H        0.85896035      -0.94662231      -1.00725070
H       -0.22674135      -0.20885247       1.41938231
H        0.70271677       1.91631040      -0.31998701
H       -1.44986764       0.21076070      -1.72233483
H       -1.42670522       2.00513294      -1.55332102
H       -1.55428823       1.78948905       0.95566146
H       -0.97942611      -2.48934718       0.20277568
H       -1.99005323      -1.18430394      -0.46684636
H       -2.06272875      -1.52404548       1.29871684
19
Frame=4 idx=007572 GeodesicLength=0.3716764414372399 rxn_smarts="[C:1]([C@@:2]([O:3][H:12])([C@@:4]1([H:13])[C:5]([H:14])([H:15])[C@:6]1([C:7]([H:17])([H:18])[H:19])[H:16])[H:11])([H:8])([H:9])[H:10]>>[C:1]([C@@:2]([O:3][C:7]([H:17])([H:18])[H:19])([C:4]1([H:13])[C:5]([H:14])([H:15])[C:6]1([H:12])[H:16])[H:11])([H:8])([H:9])[H:10]"
C        2.37486059       0.00028616       0.18218281
C        0.92311804      -0.28094171      -0.13464707
O        0.34587992      -0.97851806       0.99396527
C        0.11358289       1.00077611      -0.32767172
C       -1.17011931       1.05655116      -1.09353871
C       -1.20265666       0.92791330       0.39371019
C       -1.45116451      -1.52752736       0.39772031
H        2.83829353       0.52865672      -0.65369036
H        2.92438040      -0.92438781       0.36077268
H        2.45782206       0.62635283       1.07301908
H        0.85449638      -0.95331781      -0.99548465
H       -0.23550407      -0.17911531       1.43908514
H        0.69910397       1.91598720      -0.31494714
H       -1.44786686       0.21257807      -1.72291852
H       -1.42380102       2.00636739      -1.55372841
H       -1.55709232       1.78919064       0.95029299
H       -0.97215737      -2.47638837       0.16992466
H       -2.01868550      -1.19752540      -0.46131115
H       -2.05249014      -1.54693775       1.29726461
19
Frame=5 idx=007572 GeodesicLength=0.4645258212695236 rxn_smarts="[C:1]([C@@:2]([O:3][H:12])([C@@:4]1([H:13])[C:5]([H:14])([H:15])[C@:6]1([C:7]([H:17])([H:18])[H:19])[H:16])[H:11])([H:8])([H:9])[H:10]>>[C:1]([C@@:2]([O:3][C:7]([H:17])([H:18])[H:19])([C:4]1([H:13])[C:5]([H:14])([H:15])[C:6]1([H:12])[H:16])[H:11])([H:8])([H:9])[H:10]"
C        2.37726220      -0.00246020       0.17970363
C        0.92330995      -0.28247778      -0.12707020
O        0.35113565      -0.96760969       1.01025790
C        0.11485166       0.99753954      -0.32766295
C       -1.16669569       1.05763439      -1.09512942
C       -1.20374981       0.92586073       0.39254878
C       -1.44748434      -1.52115202       0.39115400
H        2.83834661       0.51942660      -0.66145708
H        2.92462809      -0.92796445       0.36097741
H        2.46760296       0.62738381       1.06709844
H        0.85020120      -0.95971668      -0.98398601
H       -0.24449777      -0.14880876       1.45840113
H        0.69549648       1.91561583      -0.30995673
H       -1.44599281       0.21433295      -1.72341187
H       -1.42084815       2.00754170      -1.55421228
H       -1.55992311       1.78895320       0.94480816
H       -0.96536360      -2.46263853       0.13697226
H       -2.04724709      -1.21132152      -0.45465753
H       -2.04103243      -1.57013912       1.29562237
19
Frame=6 idx=007572 GeodesicLength=0.5574062351211724 rxn_smarts="[C:1]([C@@:2]([O:3][H:12])([C@@:4]1([H:13])[C:5]([H:14])([H:15])[C@:6]1([C:7]([H:17])([H:18])[H:19])[H:16])[H:11])([H:8])([H:9])[H:10]>>[C:1]([C@@:2]([O:3][C:7]([H:17])([H:18])[H:19])([C:4]1([H:13])[C:5]([H:14])([H:15])[C:6]1([H:12])[H:16])[H:11])([H:8])([H:9])[H:10]"
C        2.37957240      -0.00532055       0.17737654
C        0.92350610      -0.28399263      -0.11959946
O        0.35637887      -0.95702457       1.02598700
C        0.11613213       0.99430429      -0.32762620
C       -1.16323239       1.05869675      -1.09673923
C       -1.20484241       0.92384751       0.39136002
C       -1.44409578      -1.51465248       0.38443341
H        2.83840690       0.51020536      -0.66885551
H        2.92477835      -0.93166128       0.36125121
H        2.47713678       0.62809383       1.06140504
H        0.84605174      -0.96583380      -0.97275100
H       -0.25373303      -0.11786850       1.47735413
H        0.69189256       1.91519641      -0.30498828
H       -1.44422143       0.21605636      -1.72384340
H       -1.41783064       2.00867774      -1.55476439
H       -1.56281375       1.78876606       0.93919947
H       -0.95910291      -2.44810249       0.10393102
H       -2.07563239      -1.22576272      -0.44688158
H       -2.02835111      -1.59362528       1.29375121
19
Frame=7 idx=007572 GeodesicLength=0.6503551087429773 rxn_smarts="[C:1]([C@@:2]([O:3][H:12])([C@@:4]1([H:13])[C:5]([H:14])([H:15])[C@:6]1([C:7]([H:17])([H:18])[H:19])[H:16])[H:11])([H:8])([H:9])[H:10]>>[C:1]([C@@:2]([O:3][C:7]([H:17])([H:18])[H:19])([C:4]1([H:13])[C:5]([H:14])([H:15])[C:6]1([H:12])[H:16])[H:11])([H:8])([H:9])[H:10]"
C        2.38178855      -0.00830044       0.17518644
C        0.92369355      -0.28549254      -0.11222771
O        0.36161536      -0.94678324       1.04117751
C        0.11741999       0.99107288      -0.32754085
C       -1.15972108       1.05975381      -1.09836691
C       -1.20594869       0.92186870       0.39014273
C       -1.44101359      -1.50803720       0.37758049
H        2.83846197       0.50099114      -0.67590951
H        2.92483011      -0.93548706       0.36156353
H        2.48643858       0.62847392       1.05593081
H        0.84202168      -0.97168309      -0.96177315
H       -0.26322197      -0.08621773       1.49596436
H        0.68829098       1.91473024      -0.30001027
H       -1.44252693       0.21777924      -1.72423909
H       -1.41473076       2.00979786      -1.55537426
H       -1.56579813       1.78862053       0.93345764
H       -0.95342335      -2.43279205       0.07082427
H       -2.10373526      -1.24092361      -0.43798447
H       -2.01444102      -1.61737135       1.29159844
19
Frame=8 idx=007572 GeodesicLength=0.7433779232818876 rxn_smarts="[C:1]([C@@:2]([O:3][H:12])([C@@:4]1([H:13])[C:5]([H:14])([H:15])[C@:6]1([C:7]([H:17])([H:18])[H:19])[H:16])[H:11])([H:8])([H:9])[H:10]>>[C:1]([C@@:2]([O:3][C:7]([H:17])([H:18])[H:19])([C:4]1([H:13])[C:5]([H:14])([H:15])[C:6]1([H:12])[H:16])[H:11])([H:8])([H:9])[H:10]"
C        2.38390679      -0.01140817       0.17311713
C        0.92385887      -0.28698450      -0.10494701
O        0.36684842      -0.93689498       1.05586230
C        0.11871094       0.98784826      -0.32738607
C       -1.15615287       1.06082406      -1.10000897
C       -1.20708167       0.91991811       0.38889580
C       -1.43824983      -1.50131430       0.37061671
H        2.83849788       0.49177632      -0.68264772
H        2.92477919      -0.93945391       0.36188457
H        2.49552425       0.62851619       1.05066364
H        0.83808227      -0.97728206      -0.95104138
H       -0.27298287      -0.05377618       1.51424629
H        0.68469047       1.91421853      -0.29498969
H       -1.44087946       0.21953687      -1.72462523
H       -1.41152981       2.01092869      -1.55602675
H       -1.56890892       1.78850623       0.92757281
H       -0.94835775      -2.41671825       0.03768064
H       -2.13146004      -1.25688376      -0.42798280
H       -1.99929586      -1.64135717       1.28911572
19
Frame=9 idx=007572 GeodesicLength=0.8366616197678658 rxn_smarts="[C:1]([C@@:2]([O:3][H:12])([C@@:4]1([H:13])[C:5]([H:14])([H:15])[C@:6]1([C:7]([H:17])([H:18])[H:19])[H:16])[H:11])([H:8])([H:9])[H:10]>>[C:1]([C@@:2]([O:3][C:7]([H:17])([H:18])[H:19])([C:4]1([H:13])[C:5]([H:14])([H:15])[C:6]1([H:12])[H:16])[H:11])([H:8])([H:9])[H:10]"
C        2.38592489      -0.01464806       0.17114127
C        0.92398682      -0.28847562      -0.09774373
O        0.37212638      -0.92743430       1.07004428
C        0.11999669       0.98463179      -0.32711835
C       -1.15250255       1.06192544      -1.10167335
C       -1.20827886       0.91796519       0.38760389
C       -1.43579917      -1.49450922       0.36360768
H        2.83848484       0.48258493      -0.68909947
H        2.92464027      -0.94356845       0.36213201
H        2.50441582       0.62818945       1.04559540
H        0.83420241      -0.98262967      -0.94055288
H       -0.28303862      -0.02046320       1.53223789
H        0.68107967       1.91366640      -0.28984703
H       -1.43920161       0.22136678      -1.72505980
H       -1.40818893       2.01210016      -1.55671671
H       -1.57222812       1.78837399       0.92151711
H       -0.94390090      -2.39995576       0.00460528
H       -2.15878992      -1.27364996      -0.41696317
H       -1.98292911      -1.66546988       1.28628970
19
Frame=10 idx=007572 GeodesicLength=0.9300116866672111 rxn_smarts="[C:1]([C@@:2]([O:3][H:12])([C@@:4]1([H:13])[C:5]([H:14])([H:15])[C@:6]1([C:7]([H:17])([H:18])[H:19])[H:16])[H:11])([H:8])([H:9])[H:10]>>[C:1]([C@@:2]([O:3][C:7]([H:17])([H:18])[H:19])([C:4]1([H:13])[C:5]([H:14])([H:15])[C:6]1([H:12])[H:16])[H:11])([H:8])([H:9])[H:10]"
C        2.38783704      -0.01803478       0.16925616
C        0.92406632      -0.28997547      -0.09061189
O        0.37741516      -0.91835942       1.08377872
C        0.12127719       0.98142496      -0.32673696
C       -1.14878041       1.06306684      -1.10333985
C       -1.20952708       0.91603217       0.38629038
C       -1.43369206      -1.48760914       0.35654234
H        2.83842359       0.47338053      -0.69528599
H        2.92439108      -0.94785029       0.36232706
H        2.51312169       0.62750092       1.04071371
H        0.83035417      -0.98775876      -0.93028811
H       -0.29339907       0.01381446       1.54993298
H        0.67746943       1.91306736      -0.28460211
H       -1.43752243       0.22328418      -1.72552071
H       -1.40471344       2.01332043      -1.55742509
H       -1.57574437       1.78826004       0.91529646
H       -0.94012591      -2.38242437      -0.02847552
H       -2.18552928      -1.29137893      -0.40485444
H       -1.96532162      -1.68976074       1.28300289
19
Frame=11 idx=007572 GeodesicLength=1.0234404782785353 rxn_smarts="[C:1]([C@@:2]([O:3][H:12])([C@@:4]1([H:13])[C:5]([H:14])([H:15])[C@:6]1([C:7]([H:17])([H:18])[H:19])[H:16])[H:11])([H:8])([H:9])[H:10]>>[C:1]([C@@:2]([O:3][C:7]([H:17])([H:18])[H:19])([C:4]1([H:13])[C:5]([H:14])([H:15])[C:6]1([H:12])[H:16])[H:11])([H:8])([H:9])[H:10]"
C        2.38963852      -0.02158121       0.16744721
C        0.92408395      -0.29149360      -0.08354207
O        0.38272483      -0.90968557       1.09709756
C        0.12254825       0.97822907      -0.32621881
C       -1.14497873       1.06426279      -1.10499976
C       -1.21083795       0.91411101       0.38495945
C       -1.43193558      -1.48062499       0.34944555
H        2.83829679       0.46415390      -0.70123155
H        2.92402663      -0.95231794       0.36243863
H        2.52165744       0.62643456       1.03600923
H        0.82650694      -0.99268627      -0.92023602
H       -0.30409103       0.04915741       1.56733492
H        0.67385939       1.91242083      -0.27922294
H       -1.43581608       0.22531652      -1.72602359
H       -1.40108711       2.01461072      -1.55813553
H       -1.57949603       1.78815194       0.90889696
H       -0.93704258      -2.36412812      -0.06154081
H       -2.21159471      -1.31013987      -0.39168674
H       -1.94646296      -1.71419117       1.27920832
19
Frame=12 idx=007572 GeodesicLength=1.116934156041422 rxn_smarts="[C:1]([C@@:2]([O:3][H:12])([C@@:4]1([H:13])[C:5]([H:14])([H:15])[C@:6]1([C:7]([H:17])([H:18])[H:19])[H:16])[H:11])([H:8])([H:9])[H:10]>>[C:1]([C@@:2]([O:3][C:7]([H:17])([H:18])[H:19])([C:4]1([H:13])[C:5]([H:14])([H:15])[C:6]1([H:12])[H:16])[H:11])([H:8])([H:9])[H:10]"
C        2.39132374      -0.02529977       0.16570146
C        0.92402716      -0.29303970      -0.07652453
O        0.38806302      -0.90143224       1.11002666
C        0.12380615       0.97504441      -0.32554129
C       -1.14108966       1.06552513      -1.10664421
C       -1.21222117       0.91219738       0.38361728
C       -1.43053862      -1.47356577       0.34233555
H        2.83808891       0.45489764      -0.70695756
H        2.92354102      -0.95698813       0.36243716
H        2.53003501       0.62497408       1.03147291
H        0.82263270      -0.99742730      -0.91038547
H       -0.31513587       0.08566313       1.58444742
H        0.67024983       1.91172458      -0.27368002
H       -1.43406010       0.22748649      -1.72658048
H       -1.39729282       2.01598741      -1.55883421
H       -1.58352006       1.78804295       0.90230314
H       -0.93466699      -2.34505880      -0.09457278
H       -2.23689702      -1.33000245      -0.37747356
H       -1.92634524      -1.73872903       1.27485252
19
Frame=13 idx=007572 GeodesicLength=1.2104681498400458 rxn_smarts="[C:1]([C@@:2]([O:3][H:12])([C@@:4]1([H:13])[C:5]([H:14])([H:15])[C@:6]1([C:7]([H:17])([H:18])[H:19])[H:16])[H:11])([H:8])([H:9])[H:10]>>[C:1]([C@@:2]([O:3][C:7]([H:17])([H:18])[H:19])([C:4]1([H:13])[C:5]([H:14])([H:15])[C:6]1([H:12])[H:16])[H:11])([H:8])([H:9])[H:10]"
C        2.39288618      -0.02920517       0.16400718
C        0.92388299      -0.29462412      -0.06954928
O        0.39343491      -0.89361610       1.12259285
C        0.12504730       0.97187102      -0.32468203
C       -1.13710726       1.06686408      -1.10826165
C       -1.21368475       0.91028857       0.38227474
C       -1.42951071      -1.46644092       0.33523038
H        2.83778387       0.44559975      -0.71248345
H        2.92292569      -0.96188019       0.36229619
H        2.53826517       0.62310049       1.02709613
H        0.81870246      -1.00199722      -0.90072472
H       -0.32655126       0.12344232       1.60127172
H        0.66664257       1.91097552      -0.26794749
H       -1.43223607       0.22981394      -1.72719859
H       -1.39331569       2.01746456      -1.55950821
H       -1.58785678       1.78792965       0.89549921
H       -0.93301145      -2.32520748      -0.12755401
H       -2.26134640      -1.35102923      -0.36222277
H       -1.90495075      -1.76334947       1.26986380
19
Frame=14 idx=007572 GeodesicLength=1.3040354033592254 rxn_smarts="[C:1]([C@@:2]([O:3][H:12])([C@@:4]1([H:13])[C:5]([H:14])([H:15])[C@:6]1([C:7]([H:17])([H:18])[H:19])[H:16])[H:11])([H:8])([H:9])[H:10]>>[C:1]([C@@:2]([O:3][C:7]([H:17])([H:18])[H:19])([C:4]1([H:13])[C:5]([H:14])([H:15])[C:6]1([H:12])[H:16])[H:11])([H:8])([H:9])[H:10]"
C        2.39431841      -0.03331512       0.16235044
C        0.92363672      -0.29625805      -0.06260383
O        0.39884898      -0.88625704       1.13482671
C        0.12626737       0.96870922      -0.32361463
C       -1.13302497       1.06829231      -1.10983576
C       -1.21523671       0.90838045       0.38094409
C       -1.42886508      -1.45925647       0.32815867
H        2.83736143       0.43624638      -0.71783335
H        2.92217145      -0.96701819       0.36198375
H        2.54636118       0.62079169       1.02286888
H        0.81468283      -1.00641214      -0.89123957
H       -0.33836320       0.16261997       1.61779558
H        0.66303888       1.91017157      -0.26199447
H       -1.43032195       0.23232232      -1.72788254
H       -1.38913965       2.01905962      -1.56013615
H       -1.59254730       1.78780527       0.88846644
H       -0.93208692      -2.30455623      -0.16046412
H       -2.28484074      -1.37330977      -0.34598815
H       -1.88226071      -1.78801578       1.26419800
19
Frame=15 idx=007572 GeodesicLength=1.3975868778049985 rxn_smarts="[C:1]([C@@:2]([O:3][H:12])([C@@:4]1([H:13])[C:5]([H:14])([H:15])[C@:6]1([C:7]([H:17])([H:18])[H:19])[H:16])[H:11])([H:8])([H:9])[H:10]>>[C:1]([C@@:2]([O:3][C:7]([H:17])([H:18])[H:19])([C:4]1([H:13])[C:5]([H:14])([H:15])[C:6]1([H:12])[H:16])[H:11])([H:8])([H:9])[H:10]"
C        2.39561234      -0.03764705       0.16071852
C        0.92327469      -0.29795296      -0.05567568
O        0.40431099      -0.87937278       1.14675677
C        0.12746206       0.96555822      -0.32231402
C       -1.12883817       1.06981920      -1.11134862
C       -1.21688247       0.90647259       0.37964175
C       -1.42861557      -1.45201860       0.32114421
H        2.83680244       0.42682269      -0.72302797
H        2.92126764      -0.97242520       0.36147161
H        2.55433349       0.61802532       1.01878097
H        0.81054179      -1.01068800      -0.88191525
H       -0.35059261       0.20331557       1.63400513
H        0.65944103       1.90930864      -0.25579558
H       -1.42830319       0.23502964      -1.72863059
H       -1.38475034       2.02078487      -1.56069945
H       -1.59763219       1.78766820       0.88118666
H       -0.93190767      -2.28308308      -0.19327986
H       -2.30726720      -1.39692274      -0.32880756
H       -1.85825704      -1.81269453       1.25778895
19
Frame=16 idx=007572 GeodesicLength=1.4910917227908915 rxn_smarts="[C:1]([C@@:2]([O:3][H:12])([C@@:4]1([H:13])[C:5]([H:14])([H:15])[C@:6]1([C:7]([H:17])([H:18])[H:19])[H:16])[H:11])([H:8])([H:9])[H:10]>>[C:1]([C@@:2]([O:3][C:7]([H:17])([H:18])[H:19])([C:4]1([H:13])[C:5]([H:14])([H:15])[C:6]1([H:12])[H:16])[H:11])([H:8])([H:9])[H:10]"
C        2.39675882      -0.04222149       0.15909925
C        0.92278214      -0.29972152      -0.04875084
O        0.40982901      -0.87298646       1.15841080
C        0.12862724       0.96241668      -0.32075251
C       -1.12454272       1.07145288      -1.11277893
C       -1.21862713       0.90456593       0.37838876
C       -1.42878013      -1.44473066       0.31421649
H        2.83608581       0.41731231      -0.72808793
H        2.92020215      -0.97812762       0.36072987
H        2.56219256       0.61477493       1.01482314
H        0.80624464      -1.01484065      -0.87273557
H       -0.36326416       0.24566467       1.64987999
H        0.65585295       1.90838199      -0.24932542
H       -1.42616762       0.23795233      -1.72943590
H       -1.38013292       2.02265071      -1.56117901
H       -1.60315747       1.78751834       0.87363801
H       -0.93249464      -2.26075549      -0.22597984
H       -2.32849785      -1.42195538      -0.31072717
H       -1.83291068      -1.83735150       1.25056679
