15
Frame=0 idx=008162 GeodesicLength=0.0 rxn_smarts="[O:1]([C@@:2]12[C:3]([H:9])([H:10])[C@@:4]3([H:11])[C:5]([H:12])([H:13])[C@:6]1([H:14])[C@@:7]23[H:15])[H:8]>>[O:1]([C@@:2]1([H:15])[C:3]([H:9])([H:10])[C@@:4]2([H:11])[C:5]([H:12])([H:13])[C@:6]1([H:14])[C:7]2)[H:8]"
O        2.15268247       0.89673398      -0.18714717
C        0.92475478       0.28785179      -0.37962376
C        0.60245473      -1.12791715       0.05930142
C       -0.88409081      -0.89944776      -0.25874061
C       -1.27268431       0.19040521       0.76472201
C       -0.37507361       1.06090378      -0.10295047
C       -0.76722458       0.25478200      -1.32322357
H        2.06990575       1.54264983       0.51680264
H        0.81300312      -1.36261624       1.10622758
H        1.07038486      -1.87393621      -0.58335115
H       -1.50359039      -1.76994340      -0.45877842
H       -2.31503867       0.49526648       0.67094742
H       -1.03174177       0.01987572       1.81723901
H       -0.31033322       2.14648569      -0.09772419
H        0.82659171       0.13890632      -1.54370078
15
Frame=1 idx=008162 GeodesicLength=0.06492691249965012 rxn_smarts="[O:1]([C@@:2]12[C:3]([H:9])([H:10])[C@@:4]3([H:11])[C:5]([H:12])([H:13])[C@:6]1([H:14])[C@@:7]23[H:15])[H:8]>>[O:1]([C@@:2]1([H:15])[C:3]([H:9])([H:10])[C@@:4]2([H:11])[C:5]([H:12])([H:13])[C@:6]1([H:14])[C:7]2)[H:8]"
O        2.14787076       0.90045747      -0.18166436
C        0.92235615       0.28963845      -0.38596746
C        0.60472025      -1.12644648       0.05890423
C       -0.88334717      -0.90375430      -0.25499028
C       -1.27237012       0.19387609       0.76112359
C       -0.37523103       1.06493642      -0.10799179
C       -0.76953078       0.24762879      -1.31693223
H        2.06908588       1.51535552       0.55007434
H        0.82127182      -1.36013301       1.10480237
H        1.07103231      -1.87295628      -0.58439213
H       -1.50373751      -1.77485270      -0.44880907
H       -2.31571584       0.49559559       0.67115879
H       -1.02019476       0.03024305       1.81197076
H       -0.31605362       2.15049615      -0.11007760
H        0.81984367       0.14991525      -1.56720917
15
Frame=2 idx=008162 GeodesicLength=0.12984011599585132 rxn_smarts="[O:1]([C@@:2]12[C:3]([H:9])([H:10])[C@@:4]3([H:11])[C:5]([H:12])([H:13])[C@:6]1([H:14])[C@@:7]23[H:15])[H:8]>>[O:1]([C@@:2]1([H:15])[C:3]([H:9])([H:10])[C@@:4]2([H:11])[C:5]([H:12])([H:13])[C@:6]1([H:14])[C:7]2)[H:8]"
O        2.14308653       0.90410830      -0.17573052
C        0.92009357       0.29136479      -0.39186347
C        0.60698019      -1.12504665       0.05874893
C       -0.88251018      -0.90800206      -0.25125021
C       -1.27213805       0.19724410       0.75753755
C       -0.37529002       1.06894694      -0.11278583
C       -0.77139751       0.24068712      -1.31050178
H        2.06821727       1.48805482       0.58142688
H        0.82935502      -1.35782976       1.10359463
H        1.07176048      -1.87197290      -0.58521120
H       -1.50377749      -1.77961381      -0.43909724
H       -2.31642104       0.49589031       0.67121851
H       -1.00907349       0.04034223       1.80661218
H       -0.32171792       2.15441158      -0.12206892
H        0.81283265       0.16141500      -1.59062950
15
Frame=3 idx=008162 GeodesicLength=0.19473713729873013 rxn_smarts="[O:1]([C@@:2]12[C:3]([H:9])([H:10])[C@@:4]3([H:11])[C:5]([H:12])([H:13])[C@:6]1([H:14])[C@@:7]23[H:15])[H:8]>>[O:1]([C@@:2]1([H:15])[C:3]([H:9])([H:10])[C@@:4]2([H:11])[C:5]([H:12])([H:13])[C@:6]1([H:14])[C:7]2)[H:8]"
O        2.13833137       0.90768149      -0.16940618
C        0.91796559       0.29302558      -0.39734117
C        0.60923656      -1.12371884       0.05883134
C       -0.88158423      -0.91219816      -0.24751795
C       -1.27197904       0.20051606       0.75395925
C       -0.37525109       1.07293058      -0.11735764
C       -0.77284427       0.23393446      -1.30394771
H        2.06732983       1.46076944       0.61104346
H        0.83726593      -1.35569309       1.10260368
H        1.07256563      -1.87099666      -0.58580648
H       -1.50371950      -1.78423806      -0.42962328
H       -2.31714924       0.49615448       0.67112653
H       -0.99835443       0.05019295       1.80116934
H       -0.32732809       2.15822873      -0.13374180
H        0.80551498       0.17341104      -1.61399139
15
Frame=4 idx=008162 GeodesicLength=0.2596262382301484 rxn_smarts="[O:1]([C@@:2]12[C:3]([H:9])([H:10])[C@@:4]3([H:11])[C:5]([H:12])([H:13])[C@:6]1([H:14])[C@@:7]23[H:15])[H:8]>>[O:1]([C@@:2]1([H:15])[C:3]([H:9])([H:10])[C@@:4]2([H:11])[C:5]([H:12])([H:13])[C@:6]1([H:14])[C:7]2)[H:8]"
O        2.13361138       0.91116055      -0.16272728
C        0.91597265       0.29461567      -0.40241919
C        0.61148906      -1.12246753       0.05915004
C       -0.88057360      -0.91634923      -0.24379437
C       -1.27188729       0.20369558       0.75038597
C       -0.37511237       1.07688438      -0.12172250
C       -0.77388331       0.22735699      -1.29728402
H        2.06645237       1.43354853       0.63904412
H        0.84501036      -1.35371788       1.10183320
H        1.07344283      -1.87004057      -0.58617479
H       -1.50357244      -1.78873646      -0.42037900
H       -2.31789720       0.49639051       0.67088150
H       -0.98802407       0.05980558       1.79565091
H       -0.33288176       2.16194604      -0.14512342
H        0.79785339       0.18590783      -1.63732116
15
Frame=5 idx=008162 GeodesicLength=0.3244981336908319 rxn_smarts="[O:1]([C@@:2]12[C:3]([H:9])([H:10])[C@@:4]3([H:11])[C:5]([H:12])([H:13])[C@:6]1([H:14])[C@@:7]23[H:15])[H:8]>>[O:1]([C@@:2]1([H:15])[C:3]([H:9])([H:10])[C@@:4]2([H:11])[C:5]([H:12])([H:13])[C@:6]1([H:14])[C:7]2)[H:8]"
O        2.12892954       0.91455056      -0.15573742
C        0.91411453       0.29612985      -0.40711910
C        0.61374017      -1.12129230       0.05970429
C       -0.87948116      -0.92046058      -0.24007845
C       -1.27185669       0.20678712       0.74681122
C       -0.37487339       1.08080321      -0.12590037
C       -0.77452767       0.22093508      -1.29052321
H        2.06561789       1.40639442       0.66556695
H        0.85259808      -1.35189121       1.10128448
H        1.07439236      -1.86911102      -0.58631002
H       -1.50334325      -1.79311737      -0.41135099
H       -2.31866204       0.49660050       0.67047856
H       -0.97806539       0.06919538       1.79005948
H       -0.33837874       2.16555825      -0.15624741
H        0.78979576       0.19891810      -1.66063801
15
Frame=6 idx=008162 GeodesicLength=0.38938669336354526 rxn_smarts="[O:1]([C@@:2]12[C:3]([H:9])([H:10])[C@@:4]3([H:11])[C:5]([H:12])([H:13])[C@:6]1([H:14])[C@@:7]23[H:15])[H:8]>>[O:1]([C@@:2]1([H:15])[C:3]([H:9])([H:10])[C@@:4]2([H:11])[C:5]([H:12])([H:13])[C@:6]1([H:14])[C:7]2)[H:8]"
O        2.12429638       0.91782333      -0.14845013
C        0.91239413       0.29756293      -0.41144551
C        0.61598775      -1.12020047       0.06049556
C       -0.87831012      -0.92453721      -0.23637368
C       -1.27188392       0.20979140       0.74323292
C       -0.37452941       1.08468493      -0.12989709
C       -0.77478249       0.21466333      -1.28367493
H        2.06484717       1.37937966       0.69067340
H        0.86002790      -1.35021574       1.10096413
H        1.07540883      -1.86822073      -0.58620824
H       -1.50303910      -1.79738804      -0.40254098
H       -2.31944154       0.49678559       0.66991324
H       -0.96847302       0.07836383       1.78440379
H       -0.34381097       2.16906460      -0.16712364
H        0.78130841       0.21244258      -1.68396883
15
Frame=7 idx=008162 GeodesicLength=0.45426779127740735 rxn_smarts="[O:1]([C@@:2]12[C:3]([H:9])([H:10])[C@@:4]3([H:11])[C:5]([H:12])([H:13])[C@:6]1([H:14])[C@@:7]23[H:15])[H:8]>>[O:1]([C@@:2]1([H:15])[C:3]([H:9])([H:10])[C@@:4]2([H:11])[C:5]([H:12])([H:13])[C@:6]1([H:14])[C:7]2)[H:8]"
O        2.11971777       0.92097327      -0.14088766
C        0.91081304       0.29890930      -0.41541578
C        0.61823245      -1.11919409       0.06152357
C       -0.87706303      -0.92858331      -0.23268192
C       -1.27196392       0.21271098       0.73964546
C       -0.37407754       1.08852480      -0.13372630
C       -0.77465664       0.20852959      -1.27674954
H        2.06416515       1.35252960       0.71445510
H        0.86730499      -1.34868394       1.10087490
H        1.07649052      -1.86737870      -0.58586366
H       -1.50266658      -1.80155481      -0.39394334
H       -2.32023335       0.49694736       0.66918008
H       -0.95923540       0.08731894       1.77868724
H       -0.34917298       2.17246038      -0.17777276
H        0.77234552       0.22649062      -1.70732540
15
Frame=8 idx=008162 GeodesicLength=0.5191586418763032 rxn_smarts="[O:1]([C@@:2]12[C:3]([H:9])([H:10])[C@@:4]3([H:11])[C:5]([H:12])([H:13])[C@:6]1([H:14])[C@@:7]23[H:15])[H:8]>>[O:1]([C@@:2]1([H:15])[C:3]([H:9])([H:10])[C@@:4]2([H:11])[C:5]([H:12])([H:13])[C@:6]1([H:14])[C:7]2)[H:8]"
O        2.11520040       0.92398939      -0.13306427
C        0.90937431       0.30016481      -0.41903438
C        0.62047469      -1.11827612       0.06279067
C       -0.87574144      -0.93260280      -0.22900586
C       -1.27209399       0.21554724       0.73604364
C       -0.37351373       1.09231989      -0.13739603
C       -0.77415418       0.20252551      -1.26975530
H        2.06359532       1.32587686       0.73697450
H        0.87443025      -1.34729306       1.10102251
H        1.07763718      -1.86659232      -0.58526966
H       -1.50222963      -1.80562283      -0.38555772
H       -2.32103601       0.49708685       0.66827134
H       -0.95034721       0.09606529       1.77291427
H       -0.35445761       2.17574262      -0.18820646
H        0.76286164       0.24106868      -1.73072726
15
Frame=9 idx=008162 GeodesicLength=0.5840297384492598 rxn_smarts="[O:1]([C@@:2]12[C:3]([H:9])([H:10])[C@@:4]3([H:11])[C:5]([H:12])([H:13])[C@:6]1([H:14])[C@@:7]23[H:15])[H:8]>>[O:1]([C@@:2]1([H:15])[C:3]([H:9])([H:10])[C@@:4]2([H:11])[C:5]([H:12])([H:13])[C@:6]1([H:14])[C:7]2)[H:8]"
O        2.11075663       0.92686721      -0.12499528
C        0.90807533       0.30132881      -0.42232560
C        0.62271602      -1.11744380       0.06429320
C       -0.87434347      -0.93659871      -0.22534440
C       -1.27226140       0.21830604       0.73242283
C       -0.37283411       1.09607063      -0.14092179
C       -0.77329163       0.19664128      -1.26269887
H        2.06310053       1.29940830       0.75832239
H        0.88141095      -1.34603200       1.10140403
H        1.07884521      -1.86586768      -0.58442162
H       -1.50172614      -1.80960005      -0.37737119
H       -2.32183694       0.49720703       0.66718640
H       -0.94178280       0.10461839       1.76708264
H       -0.35965847       2.17891458      -0.19844309
H        0.75283031       0.25617998      -1.75418966
15
Frame=10 idx=008162 GeodesicLength=0.6488954159870726 rxn_smarts="[O:1]([C@@:2]12[C:3]([H:9])([H:10])[C@@:4]3([H:11])[C:5]([H:12])([H:13])[C@:6]1([H:14])[C@@:7]23[H:15])[H:8]>>[O:1]([C@@:2]1([H:15])[C:3]([H:9])([H:10])[C@@:4]2([H:11])[C:5]([H:12])([H:13])[C@:6]1([H:14])[C:7]2)[H:8]"
O        2.10638309       0.92960686      -0.11670418
C        0.90692421       0.30239467      -0.42528854
C        0.62495817      -1.11670163       0.06603754
C       -0.87287161      -0.94057423      -0.22170324
C       -1.27247052       0.22098647       0.72877553
C       -0.37203523       1.09977030      -0.14431002
C       -0.77206284       0.19086813      -1.25559113
H        2.06275913       1.27316037       0.77856417
H        0.88824711      -1.34489745       1.10203170
H        1.08012090      -1.86521235      -0.58330894
H       -1.50116350      -1.81348904      -0.36939113
H       -2.32264383       0.49730838       0.66590957
H       -0.93355161       0.11297704       1.76119795
H       -0.36476839       2.18196688      -0.20849351
H        0.74217492       0.27183560      -1.77772578
15
Frame=11 idx=008162 GeodesicLength=0.7137646314164476 rxn_smarts="[O:1]([C@@:2]12[C:3]([H:9])([H:10])[C@@:4]3([H:11])[C:5]([H:12])([H:13])[C@:6]1([H:14])[C@@:7]23[H:15])[H:8]>>[O:1]([C@@:2]1([H:15])[C:3]([H:9])([H:10])[C@@:4]2([H:11])[C:5]([H:12])([H:13])[C@:6]1([H:14])[C:7]2)[H:8]"
O        2.10208707       0.93220922      -0.10821181
C        0.90592427       0.30336010      -0.42793500
C        0.62720396      -1.11604923       0.06802481
C       -0.87132552      -0.94453239      -0.21808442
C       -1.27271598       0.22359173       0.72509497
C       -0.37111271       1.10341674      -0.14757347
C       -0.77047297       0.18519679      -1.24844105
H        2.06258542       1.24713522       0.79779127
H        0.89494346      -1.34388082       1.10290994
H        1.08146740      -1.86463143      -0.58192423
H       -1.50054371      -1.81729563      -0.36161425
H       -2.32345344       0.49739259       0.66443192
H       -0.92564290       0.12114993       1.75526238
H       -0.36977853       2.18489799      -0.21837345
H        0.73083418       0.28803919      -1.80135760
15
Frame=12 idx=008162 GeodesicLength=0.7786429859117273 rxn_smarts="[O:1]([C@@:2]12[C:3]([H:9])([H:10])[C@@:4]3([H:11])[C:5]([H:12])([H:13])[C@:6]1([H:14])[C@@:7]23[H:15])[H:8]>>[O:1]([C@@:2]1([H:15])[C:3]([H:9])([H:10])[C@@:4]2([H:11])[C:5]([H:12])([H:13])[C@:6]1([H:14])[C:7]2)[H:8]"
O        2.09787651       0.93466890      -0.09952514
C        0.90507942       0.30422310      -0.43027121
C        0.62945495      -1.11548691       0.07025673
C       -0.86970429      -0.94847548      -0.21449122
C       -1.27299344       0.22612398       0.72137497
C       -0.37006122       1.10700845      -0.15072030
C       -0.76852487       0.17962148      -1.24125580
H        2.06259036       1.22134551       0.81606271
H        0.90150121      -1.34297668       1.10404371
H        1.08288679      -1.86412966      -0.58026003
H       -1.49986644      -1.82102377      -0.35404138
H       -2.32426218       0.49746106       0.66274428
H       -0.91805035       0.12914223       1.74927735
H       -0.37467924       2.18770692      -0.22809109
H        0.71875279       0.30479088      -1.82510359
15
Frame=13 idx=008162 GeodesicLength=0.8435161454703012 rxn_smarts="[O:1]([C@@:2]12[C:3]([H:9])([H:10])[C@@:4]3([H:11])[C:5]([H:12])([H:13])[C@:6]1([H:14])[C@@:7]23[H:15])[H:8]>>[O:1]([C@@:2]1([H:15])[C:3]([H:9])([H:10])[C@@:4]2([H:11])[C:5]([H:12])([H:13])[C@:6]1([H:14])[C:7]2)[H:8]"
O        2.09376041       0.93698612      -0.09065049
C        0.90439427       0.30498023      -0.43230754
C        0.63171363      -1.11501485       0.07273574
C       -0.86800663      -0.95240576      -0.21092760
C       -1.27329860       0.22858547       0.71760813
C       -0.36887474       1.11054281      -0.15376019
C       -0.76622063       0.17413539      -1.23404336
H        2.06278907       1.19579657       0.83343985
H        0.90792280      -1.34217775       1.10543895
H        1.08438295      -1.86371284      -0.57830711
H       -1.49913353      -1.82467816      -0.34667425
H       -2.32506778       0.49751526       0.66083521
H       -0.91076745       0.13695985       1.74324395
H       -0.37945976       2.19039166      -0.23765612
H        0.70586597       0.32209601      -1.84897514
15
Frame=14 idx=008162 GeodesicLength=0.908384248654717 rxn_smarts="[O:1]([C@@:2]12[C:3]([H:9])([H:10])[C@@:4]3([H:11])[C:5]([H:12])([H:13])[C@:6]1([H:14])[C@@:7]23[H:15])[H:8]>>[O:1]([C@@:2]1([H:15])[C:3]([H:9])([H:10])[C@@:4]2([H:11])[C:5]([H:12])([H:13])[C@:6]1([H:14])[C:7]2)[H:8]"
O        2.08974541       0.93915656      -0.08159562
C        0.90387471       0.30562925      -0.43404753
C        0.63398247      -1.11463335       0.07546484
C       -0.86623032      -0.95632487      -0.20739744
C       -1.27362727       0.23097836       0.71378666
C       -0.36754654       1.11401796      -0.15670063
C       -0.76355973       0.16873340      -1.22681054
H        2.06319256       1.17049698       0.84997795
H        0.91420889      -1.34147908       1.10710209
H        1.08596001      -1.86338557      -0.57605668
H       -1.49834357      -1.82826146      -0.33951581
H       -2.32586689       0.49755724       0.65869215
H       -0.90378941       0.14460735       1.73716188
H       -0.38410818       2.19295100      -0.24707454
H        0.69210785       0.33995624      -1.87298678
15
Frame=15 idx=008162 GeodesicLength=0.9732418905218353 rxn_smarts="[O:1]([C@@:2]12[C:3]([H:9])([H:10])[C@@:4]3([H:11])[C:5]([H:12])([H:13])[C@:6]1([H:14])[C@@:7]23[H:15])[H:8]>>[O:1]([C@@:2]1([H:15])[C:3]([H:9])([H:10])[C@@:4]2([H:11])[C:5]([H:12])([H:13])[C@:6]1([H:14])[C:7]2)[H:8]"
O        2.08584031       0.94118053      -0.07236522
C        0.90352713       0.30616778      -0.43549670
C        0.63626494      -1.11434208       0.07844712
C       -0.86437255      -0.96023438      -0.20390508
C       -1.27397500       0.23330512       0.70990185
C       -0.36606919       1.11743213      -0.15955050
C       -0.76054097       0.16340975      -1.21956468
H        2.06381253       1.14544721       0.86573552
H        0.92036089      -1.34087444       1.10903989
H        1.08762379      -1.86315216      -0.57349919
H       -1.49749526      -1.83177662      -0.33256943
H       -2.32665621       0.49758911       0.65630100
H       -0.89711097       0.15209051       1.73103033
H       -0.38861184       2.19538416      -0.25635370
H        0.67740241       0.35837338      -1.89715121
15
Frame=16 idx=008162 GeodesicLength=1.0380772735634725 rxn_smarts="[O:1]([C@@:2]12[C:3]([H:9])([H:10])[C@@:4]3([H:11])[C:5]([H:12])([H:13])[C@:6]1([H:14])[C@@:7]23[H:15])[H:8]>>[O:1]([C@@:2]1([H:15])[C:3]([H:9])([H:10])[C@@:4]2([H:11])[C:5]([H:12])([H:13])[C@:6]1([H:14])[C:7]2)[H:8]"
O        2.08205438       0.94305657      -0.06295607
C        0.90335857       0.30659343      -0.43665933
C        0.63856400      -1.11414086       0.08168618
C       -0.86243002      -0.96413562      -0.20045564
C       -1.27433751       0.23556785       0.70594437
C       -0.36443434       1.12078361      -0.16231710
C       -0.75716165       0.15816025      -1.21231287
H        2.06466009       1.12065088       0.88075716
H        0.92637865      -1.34035835       1.11125976
H        1.08938008      -1.86301681      -0.57062447
H       -1.49658629      -1.83522618      -0.32584079
H       -2.32743237       0.49761286       0.65364618
H       -0.89072845       0.15941366       1.72484827
H       -0.39295663       2.19769114      -0.26549788
H        0.66167151       0.37734757      -1.92147776
