12
Frame=0 idx=001409 GeodesicLength=0.0 rxn_smarts="[C:1]([C:2](=[O:3])[C:4]([C:5](=[O:6])[H:12])([H:10])[H:11])([H:7])([H:8])[H:9]>>[C:1]([C:4]([C:2](=[O:3])[H:11])([C:5](=[O:6])[H:12])[H:10])([H:7])([H:8])[H:9]"
C        1.53341466       0.32069108      -0.46636884
C        0.24737521       0.44861698       0.61361203
O       -0.05893749       1.65521404       0.82924542
C       -0.60138049      -0.60575875       0.18801198
C       -2.02543526      -0.42165005      -0.12927530
O       -2.72478912      -1.34110454      -0.48475231
H        1.92447036      -0.68984209      -0.54512268
H        2.25559128       1.00932528      -0.04157708
H        1.15871501       0.68817872      -1.41581451
H       -0.19740595      -1.60623266       0.07961161
H        0.89905151      -0.06230161       1.39654001
H       -2.41066971       0.60486355      -0.02411030
12
Frame=1 idx=001409 GeodesicLength=0.11510653469208489 rxn_smarts="[C:1]([C:2](=[O:3])[C:4]([C:5](=[O:6])[H:12])([H:10])[H:11])([H:7])([H:8])[H:9]>>[C:1]([C:4]([C:2](=[O:3])[H:11])([C:5](=[O:6])[H:12])[H:10])([H:7])([H:8])[H:9]"
C        1.52130744       0.31872113      -0.47336778
C        0.24007195       0.47443278       0.62224607
O       -0.05691143       1.67733055       0.83635118
C       -0.57977970      -0.59590368       0.17296775
C       -2.00959747      -0.42607438      -0.13347044
O       -2.71638769      -1.36615295      -0.40979756
H        1.89788335      -0.69124872      -0.61121782
H        2.27297875       0.95808092      -0.02216914
H        1.16711843       0.74247131      -1.40750295
H       -0.17830512      -1.60012516       0.09320983
H        0.83939578      -0.09592175       1.42587379
H       -2.39777428       0.60438996      -0.09312293
12
Frame=2 idx=001409 GeodesicLength=0.23027203614514583 rxn_smarts="[C:1]([C:2](=[O:3])[C:4]([C:5](=[O:6])[H:12])([H:10])[H:11])([H:7])([H:8])[H:9]>>[C:1]([C:4]([C:2](=[O:3])[H:11])([C:5](=[O:6])[H:12])[H:10])([H:7])([H:8])[H:9]"
C        1.50865861       0.31641547      -0.48108480
C        0.23375705       0.49851818       0.63227830
O       -0.05502066       1.69813600       0.84251008
C       -0.55772191      -0.58708502       0.16089620
C       -1.99227760      -0.43061311      -0.13857774
O       -2.70532435      -1.38499019      -0.33613629
H        1.87027649      -0.68927100      -0.67939486
H        2.28754072       0.90433907      -0.00549777
H        1.17643550       0.79493659      -1.39708924
H       -0.15872938      -1.59407678       0.10623093
H        0.77588143      -0.12605349       1.45667568
H       -2.38347589       0.59974428      -0.16081048
12
Frame=3 idx=001409 GeodesicLength=0.34557941870615116 rxn_smarts="[C:1]([C:2](=[O:3])[C:4]([C:5](=[O:6])[H:12])([H:10])[H:11])([H:7])([H:8])[H:9]>>[C:1]([C:4]([C:2](=[O:3])[H:11])([C:5](=[O:6])[H:12])[H:10])([H:7])([H:8])[H:9]"
C        1.49546785       0.31372330      -0.48974780
C        0.22851694       0.52120016       0.64352824
O       -0.05302778       1.71794725       0.84756565
C       -0.53517787      -0.57921709       0.15212771
C       -1.97341838      -0.43551765      -0.14472053
O       -2.69144680      -1.39810266      -0.26602730
H        1.84113262      -0.68391992      -0.74951015
H        2.29947350       0.84781565       0.00812085
H        1.18671389       0.84546663      -1.38483130
H       -0.13842672      -1.58818439       0.11959905
H        0.70825327      -0.15230443       1.48906904
H       -2.36806052       0.59109316      -0.22517346
12
Frame=4 idx=001409 GeodesicLength=0.4611386144768289 rxn_smarts="[C:1]([C:2](=[O:3])[C:4]([C:5](=[O:6])[H:12])([H:10])[H:11])([H:7])([H:8])[H:9]>>[C:1]([C:4]([C:2](=[O:3])[H:11])([C:5](=[O:6])[H:12])[H:10])([H:7])([H:8])[H:9]"
C        1.48162405       0.31077132      -0.49960860
C        0.22453657       0.54258917       0.65616268
O       -0.05061891       1.73683361       0.85205003
C       -0.51211560      -0.57232619       0.14707979
C       -1.95306540      -0.44100657      -0.15122390
O       -2.67494527      -1.40623756      -0.20092157
H        1.80992629      -0.67506378      -0.82138009
H        2.30880779       0.78862230       0.01803416
H        1.19768253       0.89411739      -1.37094099
H       -0.11719926      -1.58262346       0.13415513
H        0.63637959      -0.17473835       1.52306387
H       -2.35101238       0.57906211      -0.28647051
12
Frame=5 idx=001409 GeodesicLength=0.576707597036056 rxn_smarts="[C:1]([C:2](=[O:3])[C:4]([C:5](=[O:6])[H:12])([H:10])[H:11])([H:7])([H:8])[H:9]>>[C:1]([C:4]([C:2](=[O:3])[H:11])([C:5](=[O:6])[H:12])[H:10])([H:7])([H:8])[H:9]"
C        1.46705625       0.30769192      -0.51071370
C        0.22213981       0.56281188       0.67000911
O       -0.04730826       1.75475567       0.85604447
C       -0.48834793      -0.56621188       0.14535642
C       -1.93124278      -0.44709823      -0.15810829
O       -2.65616504      -1.41047736      -0.14107170
H        1.77616728      -0.66250969      -0.89445454
H        2.31560068       0.72643639       0.02426731
H        1.20933937       0.94098260      -1.35539380
H       -0.09470466      -1.57722918       0.15018126
H        0.55991248      -0.19320194       1.55824594
H       -2.33244721       0.56404981      -0.34436249
12
Frame=6 idx=001409 GeodesicLength=0.6925507781895112 rxn_smarts="[C:1]([C:2](=[O:3])[C:4]([C:5](=[O:6])[H:12])([H:10])[H:11])([H:7])([H:8])[H:9]>>[C:1]([C:4]([C:2](=[O:3])[H:11])([C:5](=[O:6])[H:12])[H:10])([H:7])([H:8])[H:9]"
C        1.45158657       0.30458849      -0.52332428
C        0.22158138       0.58192030       0.68555020
O       -0.04273585       1.77180230       0.86033952
C       -0.46388899      -0.56089225       0.14767911
C       -1.90782401      -0.45369809      -0.16457941
O       -2.63506939      -1.41177803      -0.08885879
H        1.73932122      -0.64650264      -0.96806929
H        2.31970903       0.66197553       0.02551749
H        1.22120006       0.98564153      -1.33873946
H       -0.07087162      -1.57211529       0.16881731
H        0.47867345      -0.20774930       1.59444628
H       -2.31168185       0.54680745      -0.39877869
12
Frame=7 idx=001409 GeodesicLength=0.8087118020163846 rxn_smarts="[C:1]([C:2](=[O:3])[C:4]([C:5](=[O:6])[H:12])([H:10])[H:11])([H:7])([H:8])[H:9]>>[C:1]([C:4]([C:2](=[O:3])[H:11])([C:5](=[O:6])[H:12])[H:10])([H:7])([H:8])[H:9]"
C        1.43502595       0.30163422      -0.53743385
C        0.22314978       0.59985989       0.70305505
O       -0.03656600       1.78780748       0.86553773
C       -0.43862879      -0.55628237       0.15404879
C       -1.88258011      -0.46065654      -0.17067931
O       -2.61190867      -1.41105969      -0.04435693
H        1.69882270      -0.62713530      -1.04152976
H        2.32100404       0.59562526       0.02127717
H        1.23294102       1.02796735      -1.32117460
H       -0.04552438      -1.56718745       0.19050312
H        0.39239378      -0.21843198       1.63101138
H       -2.28812933       0.52785913      -0.45025879
12
Frame=8 idx=001409 GeodesicLength=0.9252874905027931 rxn_smarts="[C:1]([C:2](=[O:3])[C:4]([C:5](=[O:6])[H:12])([H:10])[H:11])([H:7])([H:8])[H:9]>>[C:1]([C:4]([C:2](=[O:3])[H:11])([C:5](=[O:6])[H:12])[H:10])([H:7])([H:8])[H:9]"
C        1.41717011       0.29895786      -0.55294203
C        0.22712533       0.61657165       0.72287765
O       -0.02845136       1.80266632       0.87227386
C       -0.41251665      -0.55232301       0.16456515
C       -1.85532130      -0.46782844      -0.17645828
O       -2.58685815      -1.40915436      -0.00788269
H        1.65413017      -0.60471122      -1.11399101
H        2.31936564       0.52807559       0.01097838
H        1.24412714       1.06768072      -1.30299218
H       -0.01857796      -1.56238328       0.21572494
H        0.30100387      -0.22527615       1.66706294
H       -2.26119686       0.50772433      -0.49921674
12
Frame=9 idx=001409 GeodesicLength=1.0423165007198092 rxn_smarts="[C:1]([C:2](=[O:3])[C:4]([C:5](=[O:6])[H:12])([H:10])[H:11])([H:7])([H:8])[H:9]>>[C:1]([C:4]([C:2](=[O:3])[H:11])([C:5](=[O:6])[H:12])[H:10])([H:7])([H:8])[H:9]"
C        1.39779392       0.29665458      -0.56957330
C        0.23378454       0.63192291       0.74535630
O       -0.01803544       1.81616860       0.88112548
C       -0.38551341      -0.54894789       0.17921949
C       -1.82595566      -0.47499717      -0.18203458
O       -2.56016299      -1.40671663       0.02064079
H        1.60480906      -0.57960415      -1.18444890
H        2.31468973       0.46018747      -0.00571248
H        1.25415933       1.10445331      -1.28446381
H        0.01004777      -1.55763216       0.24479155
H        0.20475364      -0.22832237       1.70138552
H       -2.23037049       0.48683349      -0.54628607
12
Frame=10 idx=001409 GeodesicLength=1.160037797757633 rxn_smarts="[C:1]([C:2](=[O:3])[C:4]([C:5](=[O:6])[H:12])([H:10])[H:11])([H:7])([H:8])[H:9]>>[C:1]([C:4]([C:2](=[O:3])[H:11])([C:5](=[O:6])[H:12])[H:10])([H:7])([H:8])[H:9]"
C        1.37672580       0.29466435      -0.58695127
C        0.24315261       0.64597906       0.77067099
O       -0.00510259       1.82841666       0.89247556
C       -0.35776326      -0.54600972       0.19796994
C       -1.79440102      -0.48202720      -0.18743121
O       -2.53170480      -1.40457177       0.04069829
H        1.55049458      -0.55250941      -1.25185772
H        2.30683821       0.39283193      -0.02880621
H        1.26270650       1.13781489      -1.26600888
H        0.04016386      -1.55276837       0.27792579
H        0.10435039      -0.22753620       1.73250602
H       -2.19546027       0.46571577      -0.59119128
12
Frame=11 idx=001409 GeodesicLength=1.278616446987741 rxn_smarts="[C:1]([C:2](=[O:3])[C:4]([C:5](=[O:6])[H:12])([H:10])[H:11])([H:7])([H:8])[H:9]>>[C:1]([C:4]([C:2](=[O:3])[H:11])([C:5](=[O:6])[H:12])[H:10])([H:7])([H:8])[H:9]"
C        1.35385334       0.29290318      -0.60451023
C        0.25508251       0.65882645       0.79874353
O        0.01043464       1.83947186       0.90646541
C       -0.32949280      -0.54332237       0.22045072
C       -1.76078814      -0.48882862      -0.19272373
O       -2.50149131      -1.40330365       0.05266440
H        1.49104700      -0.52403442      -1.31515149
H        2.29564866       0.32675987      -0.05770442
H        1.26959462       1.16742388      -1.24783498
H        0.07148506      -1.54757680       0.31487778
H        0.00117046      -0.22304592       1.75867035
H       -2.15654404       0.44472655      -0.63394734
12
Frame=12 idx=001409 GeodesicLength=1.3982458433583924 rxn_smarts="[C:1]([C:2](=[O:3])[C:4]([C:5](=[O:6])[H:12])([H:10])[H:11])([H:7])([H:8])[H:9]>>[C:1]([C:4]([C:2](=[O:3])[H:11])([C:5](=[O:6])[H:12])[H:10])([H:7])([H:8])[H:9]"
C        1.32928467       0.29125990      -0.62163151
C        0.26915750       0.67067483       0.82920925
O        0.02838598       1.84956000       0.92293416
C       -0.30105778      -0.54067585       0.24602172
C       -1.72552283      -0.49540898      -0.19798703
O       -2.46967757      -1.40333559       0.05748139
H        1.42677415      -0.49472812      -1.37339813
H        2.28106698       0.26252178      -0.09131147
H        1.27506581       1.19312269      -1.23005768
H        0.10360503      -1.54187681       0.35498503
H       -0.10287655      -0.21523928       1.77819632
H       -2.11420541       0.42412542      -0.67444206
12
Frame=13 idx=001409 GeodesicLength=1.5190602764905252 rxn_smarts="[C:1]([C:2](=[O:3])[C:4]([C:5](=[O:6])[H:12])([H:10])[H:11])([H:7])([H:8])[H:9]>>[C:1]([C:4]([C:2](=[O:3])[H:11])([C:5](=[O:6])[H:12])[H:10])([H:7])([H:8])[H:9]"
C        1.30306826       0.28965056      -0.63767823
C        0.28487065       0.68159335       0.86166188
O        0.04834841       1.85862590       0.94170787
C       -0.27281078      -0.53781056       0.27387791
C       -1.68903556      -0.50145404      -0.20313044
O       -2.43656957      -1.40442634       0.05681202
H        1.35850752      -0.46506585      -1.42559373
H        2.26292136       0.20080281      -0.12827151
H        1.27878364       1.21469841      -1.21291203
H        0.13604421      -1.53550699       0.39713299
H       -0.20536881      -0.20498535       1.78985954
H       -2.06875934       0.40387810      -0.71346627
12
Frame=14 idx=001409 GeodesicLength=1.64117652345022 rxn_smarts="[C:1]([C:2](=[O:3])[C:4]([C:5](=[O:6])[H:12])([H:10])[H:11])([H:7])([H:8])[H:9]>>[C:1]([C:4]([C:2](=[O:3])[H:11])([C:5](=[O:6])[H:12])[H:10])([H:7])([H:8])[H:9]"
C        1.27570513       0.28795219      -0.65222422
C        0.30150207       0.69206306       0.89528806
O        0.06969125       1.86721978       0.96203365
C       -0.24522823      -0.53447932       0.30306958
C       -1.65201156      -0.50727029      -0.20828548
O       -2.40240500      -1.40684957       0.05184845
H        1.28714307      -0.43538450      -1.47146841
H        2.24140956       0.14153652      -0.16703732
H        1.28184059       1.23234369      -1.19629906
H        0.16826232      -1.52826792       0.44023613
H       -0.30425391      -0.19302025       1.79303324
H       -2.02165530       0.38415661      -0.75019460
12
Frame=15 idx=001409 GeodesicLength=1.7646381554007673 rxn_smarts="[C:1]([C:2](=[O:3])[C:4]([C:5](=[O:6])[H:12])([H:10])[H:11])([H:7])([H:8])[H:9]>>[C:1]([C:4]([C:2](=[O:3])[H:11])([C:5](=[O:6])[H:12])[H:10])([H:7])([H:8])[H:9]"
C        1.24754171       0.28609658      -0.66497173
C        0.31850420       0.70233203       0.92946035
O        0.09175373       1.87550689       0.98327223
C       -0.21862952      -0.53045357       0.33277982
C       -1.61496242      -0.51282732      -0.21345410
O       -2.36750485      -1.41037943       0.04398915
H        1.21367797      -0.40581987      -1.51087228
H        2.21665424       0.08471323      -0.20630793
H        1.28463924       1.24620183      -1.18021050
H        0.19986243      -1.52001130       0.48324546
H       -0.39773905      -0.18029448       1.78783391
H       -1.97379767       0.36493543      -0.78476439
12
Frame=16 idx=001409 GeodesicLength=1.8894645047247862 rxn_smarts="[C:1]([C:2](=[O:3])[C:4]([C:5](=[O:6])[H:12])([H:10])[H:11])([H:7])([H:8])[H:9]>>[C:1]([C:4]([C:2](=[O:3])[H:11])([C:5](=[O:6])[H:12])[H:10])([H:7])([H:8])[H:9]"
C        1.21892410       0.28407246      -0.67582765
C        0.33547570       0.71260128       0.96375020
O        0.11393905       1.88365608       1.00495568
C       -0.19326939      -0.52558436       0.36236983
C       -1.57837186      -0.51803533      -0.21855235
O       -2.33233658      -1.41464741       0.03449400
H        1.13918499      -0.37647527      -1.54395819
H        2.18890144       0.03034404      -0.24513125
H        1.28736115       1.25653081      -1.16474406
H        0.23048819      -1.51073235       0.52527747
H       -0.48456165      -0.16779661       1.77504124
H       -1.92573514       0.34606666      -0.81767491
