11
Frame=0 idx=004446 GeodesicLength=0.0 rxn_smarts="[N:1]1([H:7])[C@@:2]2([H:8])[C@:3]1([H:9])[C@@:4]1([H:10])[O:5][C@@:6]21[H:11]>>[N:1]([C:2][H:8])([C@@:3]1([H:9])[C@@:4]2([H:10])[O:5][C@@:6]12[H:11])[H:7]"
N        1.18017371       0.38561983       0.94418945
C        0.18643079       1.38245453       0.98745014
C        0.60697252      -0.01805935      -0.29557627
C       -0.25561459      -1.21075154      -0.47876845
O       -1.15053889      -1.07507038       0.61290464
C       -1.01235458      -0.01600028      -0.32545992
H        1.00199194      -0.30980559       1.66091156
H        0.44584172       2.08898433       0.17539479
H        1.08165258       0.36902925      -1.19063200
H       -0.26944575      -2.01494787      -1.19421645
H       -1.81510948       0.41854703      -0.89619750
11
Frame=1 idx=004446 GeodesicLength=0.03865341847331335 rxn_smarts="[N:1]1([H:7])[C@@:2]2([H:8])[C@:3]1([H:9])[C@@:4]1([H:10])[O:5][C@@:6]21[H:11]>>[N:1]([C:2][H:8])([C@@:3]1([H:9])[C@@:4]2([H:10])[O:5][C@@:6]12[H:11])[H:7]"
N        1.17342063       0.38174997       0.94807951
C        0.19080717       1.38594007       0.97327568
C        0.61100818      -0.01496868      -0.29974107
C       -0.25424443      -1.20812790      -0.48313527
O       -1.14348902      -1.08253207       0.61486317
C       -1.01717334      -0.01787113      -0.31981126
H        0.98246241      -0.31155463       1.66356867
H        0.46369654       2.10222470       0.17570055
H        1.09312505       0.37079818      -1.19116838
H       -0.26896177      -2.01256710      -1.19840294
H       -1.83065141       0.40690858      -0.88322867
11
Frame=2 idx=004446 GeodesicLength=0.07727046301083859 rxn_smarts="[N:1]1([H:7])[C@@:2]2([H:8])[C@:3]1([H:9])[C@@:4]1([H:10])[O:5][C@@:6]21[H:11]>>[N:1]([C:2][H:8])([C@@:3]1([H:9])[C@@:4]2([H:10])[O:5][C@@:6]12[H:11])[H:7]"
N        1.16651517       0.37808633       0.95175920
C        0.19517969       1.38932544       0.95897824
C        0.61505545      -0.01194192      -0.30394818
C       -0.25299817      -1.20547775      -0.48750842
O       -1.13651673      -1.08997086       0.61669739
C       -1.02202706      -0.01978930      -0.31416385
H        0.96302632      -0.31296449       1.66597147
H        0.48148233       2.11542160       0.17651587
H        1.10486406       0.37229767      -1.19162678
H       -0.26856236      -2.01019288      -1.20256178
H       -1.84601871       0.39520616      -0.87011317
11
Frame=3 idx=004446 GeodesicLength=0.11583976500940477 rxn_smarts="[N:1]1([H:7])[C@@:2]2([H:8])[C@:3]1([H:9])[C@@:4]1([H:10])[O:5][C@@:6]21[H:11]>>[N:1]([C:2][H:8])([C@@:3]1([H:9])[C@@:4]2([H:10])[O:5][C@@:6]12[H:11])[H:7]"
N        1.15947052       0.37462998       0.95521950
C        0.19955026       1.39260577       0.94455938
C        0.61911747      -0.00898298      -0.30820288
C       -0.25187984      -1.20280101      -0.49188130
O       -1.12962493      -1.09737346       0.61841437
C       -1.02691507      -0.02174967      -0.30851994
H        0.94370806      -0.31404585       1.66811427
H        0.49915395       2.12857084       0.17786039
H        1.11686325       0.37352578      -1.19200757
H       -0.26825269      -2.00783410      -1.20667615
H       -1.86119096       0.38345470      -0.85688007
11
Frame=4 idx=004446 GeodesicLength=0.15434997153553331 rxn_smarts="[N:1]1([H:7])[C@@:2]2([H:8])[C@:3]1([H:9])[C@@:4]1([H:10])[O:5][C@@:6]21[H:11]>>[N:1]([C:2][H:8])([C@@:3]1([H:9])[C@@:4]2([H:10])[O:5][C@@:6]12[H:11])[H:7]"
N        1.15230144       0.37138112       0.95845214
C        0.20392232       1.39577526       0.93002048
C        0.62319832      -0.00609659      -0.31251056
C       -0.25089329      -1.20009721      -0.49624724
O       -1.12281641      -1.10472458       0.62002172
C       -1.03183588      -0.02374618      -0.30288156
H        0.92453223      -0.31481026       1.66999278
H        0.51666159       2.14166627       0.17975242
H        1.12911507       0.37448072      -1.19231176
H       -0.26803797      -2.00549922      -1.21072894
H       -1.87614741       0.37167067      -0.84355949
11
Frame=5 idx=004446 GeodesicLength=0.19279188403978625 rxn_smarts="[N:1]1([H:7])[C@@:2]2([H:8])[C@:3]1([H:9])[C@@:4]1([H:10])[O:5][C@@:6]21[H:11]>>[N:1]([C:2][H:8])([C@@:3]1([H:9])[C@@:4]2([H:10])[O:5][C@@:6]12[H:11])[H:7]"
N        1.14502678       0.36834239       0.96145507
C        0.20830361       1.39883103       0.91536340
C        0.62730349      -0.00328714      -0.31687821
C       -0.25004357      -1.19736711      -0.50060183
O       -1.11609475      -1.11201001       0.62152795
C       -1.03678781      -0.02577246      -0.29725218
H        0.90552473      -0.31526915       1.67161268
H        0.53395177       2.15469873       0.18220873
H        1.14161069       0.37516140      -1.19254527
H       -0.26792598      -2.00319858      -1.21470762
H       -1.89086895       0.35987089      -0.83018272
11
Frame=6 idx=004446 GeodesicLength=0.23114188500242344 rxn_smarts="[N:1]1([H:7])[C@@:2]2([H:8])[C@:3]1([H:9])[C@@:4]1([H:10])[O:5][C@@:6]21[H:11]>>[N:1]([C:2][H:8])([C@@:3]1([H:9])[C@@:4]2([H:10])[O:5][C@@:6]12[H:11])[H:7]"
N        1.13765196       0.36550017       0.96420523
C        0.21268510       1.40177245       0.90059717
C        0.63143347      -0.00055691      -0.32130213
C       -0.24932650      -1.19460632      -0.50493126
O       -1.10946076      -1.11922129       0.62294374
C       -1.04177135      -0.02782202      -0.29162762
H        0.88670636      -0.31544913       1.67294142
H        0.55099546       2.16768186       0.18523926
H        1.15433688       0.37556296      -1.19269801
H       -0.26790770      -2.00093853      -1.21858161
H       -1.90534292       0.34807675      -0.81678619
11
Frame=7 idx=004446 GeodesicLength=0.2694464344553496 rxn_smarts="[N:1]1([H:7])[C@@:2]2([H:8])[C@:3]1([H:9])[C@@:4]1([H:10])[O:5][C@@:6]21[H:11]>>[N:1]([C:2][H:8])([C@@:3]1([H:9])[C@@:4]2([H:10])[O:5][C@@:6]12[H:11])[H:7]"
N        1.13018837       0.36286867       0.96672212
C        0.21709283       1.40460365       0.88569239
C        0.63560440       0.00209181      -0.32579571
C       -0.24874777      -1.19181964      -0.50924584
O       -1.10290787      -1.12635981       0.62427352
C       -1.04678502      -0.02989393      -0.28600863
H        0.86806587      -0.31532556       1.67402084
H        0.56776372       2.18057573       0.18885216
H        1.16731421       0.37568486      -1.19277881
H       -0.26800234      -1.99870688      -1.22238017
H       -1.91958640       0.33628110      -0.80335187
11
Frame=8 idx=004446 GeodesicLength=0.3076578410934039 rxn_smarts="[N:1]1([H:7])[C@@:2]2([H:8])[C@:3]1([H:9])[C@@:4]1([H:10])[O:5][C@@:6]21[H:11]>>[N:1]([C:2][H:8])([C@@:3]1([H:9])[C@@:4]2([H:10])[O:5][C@@:6]12[H:11])[H:7]"
N        1.12264683       0.36043852       0.96899530
C        0.22152922       1.40733055       0.87063809
C        0.63981355       0.00463855      -0.33035548
C       -0.24830701      -1.18900268      -0.51355272
O       -1.09641844      -1.13340853       0.62551250
C       -1.05180931      -0.03198312      -0.28039263
H        0.84959713      -0.31490898       1.67485331
H        0.58421240       2.19342762       0.19305012
H        1.18054597       0.37548694      -1.19276834
H       -0.26822354      -1.99649769      -1.22611720
H       -1.93358678       0.32447883      -0.78986294
11
Frame=9 idx=004446 GeodesicLength=0.34581258407216553 rxn_smarts="[N:1]1([H:7])[C@@:2]2([H:8])[C@:3]1([H:9])[C@@:4]1([H:10])[O:5][C@@:6]21[H:11]>>[N:1]([C:2][H:8])([C@@:3]1([H:9])[C@@:4]2([H:10])[O:5][C@@:6]12[H:11])[H:7]"
N        1.11502975       0.35820488       0.97101761
C        0.22599940       1.40995100       0.85543580
C        0.64407683       0.00708896      -0.33498735
C       -0.24799821      -1.18615924      -0.51783694
O       -1.09000322      -1.14037358       0.62667752
C       -1.05685396      -0.03408367      -0.27477738
H        0.83131157      -0.31421251       1.67542173
H        0.60031900       2.20621174       0.19784045
H        1.19402604       0.37499196      -1.19267656
H       -0.26856064      -1.99432111      -1.22976550
H       -1.94734655       0.31270157      -0.77634938
11
Frame=10 idx=004446 GeodesicLength=0.3839107847698851 rxn_smarts="[N:1]1([H:7])[C@@:2]2([H:8])[C@:3]1([H:9])[C@@:4]1([H:10])[O:5][C@@:6]21[H:11]>>[N:1]([C:2][H:8])([C@@:3]1([H:9])[C@@:4]2([H:10])[O:5][C@@:6]12[H:11])[H:7]"
N        1.10735193       0.35617033       0.97279170
C        0.23051849       1.41247226       0.84006402
C        0.64840224       0.00943325      -0.33969546
C       -0.24782545      -1.18328706      -0.52210998
O       -1.08365297      -1.14724687       0.62776609
C       -1.06191061      -0.03619230      -0.26916708
H        0.81320560      -0.31323027       1.67574698
H        0.61604486       2.21893217       0.20323481
H        1.20776877       0.37417563      -1.19249588
H       -0.26902695      -1.99217218      -1.23334117
H       -1.96087591       0.30094504      -0.76279404
11
Frame=11 idx=004446 GeodesicLength=0.42196675193371663 rxn_smarts="[N:1]1([H:7])[C@@:2]2([H:8])[C@:3]1([H:9])[C@@:4]1([H:10])[O:5][C@@:6]21[H:11]>>[N:1]([C:2][H:8])([C@@:3]1([H:9])[C@@:4]2([H:10])[O:5][C@@:6]12[H:11])[H:7]"
N        1.09961371       0.35433505       0.97431610
C        0.23509516       1.41490194       0.82450163
C        0.65279648       0.01166389      -0.34448631
C       -0.24778791      -1.18038675      -0.52637878
O       -1.07735724      -1.15402977       0.62878185
C       -1.06697559      -0.03830378      -0.26355846
H        0.79526540      -0.31195757       1.67583460
H        0.63137392       2.23159815       0.20924394
H        1.22178997       0.37301752      -1.19222026
H       -0.26962397      -1.99004760      -1.23685835
H       -1.97418992       0.28920893      -0.74917595
11
Frame=12 idx=004446 GeodesicLength=0.45998592971378355 rxn_smarts="[N:1]1([H:7])[C@@:2]2([H:8])[C@:3]1([H:9])[C@@:4]1([H:10])[O:5][C@@:6]21[H:11]>>[N:1]([C:2][H:8])([C@@:3]1([H:9])[C@@:4]2([H:10])[O:5][C@@:6]12[H:11])[H:7]"
N        1.09182081       0.35269717       0.97558628
C        0.23974465       1.41724608       0.80872996
C        0.65727032       0.01377489      -0.34936021
C       -0.24788490      -1.17745255      -0.53064948
O       -1.07110739      -1.16072079       0.62971861
C       -1.07204175      -0.04041686      -0.25795182
H        0.77748019      -0.31038905       1.67568763
H        0.64626710       2.24421057       0.21587033
H        1.23611318       0.37149285      -1.19183592
H       -0.27036378      -1.98793452      -1.24032599
H       -1.98729843       0.27749220      -0.73546939
11
Frame=13 idx=004446 GeodesicLength=0.49796375947114746 rxn_smarts="[N:1]1([H:7])[C@@:2]2([H:8])[C@:3]1([H:9])[C@@:4]1([H:10])[O:5][C@@:6]21[H:11]>>[N:1]([C:2][H:8])([C@@:3]1([H:9])[C@@:4]2([H:10])[O:5][C@@:6]12[H:11])[H:7]"
N        1.08399117       0.35125310       0.97659227
C        0.24447454       1.41948528       0.79274709
C        0.66183320       0.01575741      -0.35432319
C       -0.24811629      -1.17448032      -0.53491010
O       -1.06490710      -1.16729260       0.63059162
C       -1.07710474      -0.04251566      -0.25234658
H        0.75987718      -0.30853734       1.67529195
H        0.66065500       2.25674378       0.22313172
H        1.25072374       0.36960271      -1.19134220
H       -0.27124845      -1.98583454      -1.24371970
H       -2.00017825       0.26581817      -0.72171288
11
Frame=14 idx=004446 GeodesicLength=0.5359026012181304 rxn_smarts="[N:1]1([H:7])[C@@:2]2([H:8])[C@:3]1([H:9])[C@@:4]1([H:10])[O:5][C@@:6]21[H:11]>>[N:1]([C:2][H:8])([C@@:3]1([H:9])[C@@:4]2([H:10])[O:5][C@@:6]12[H:11])[H:7]"
N        1.07613611       0.34999864       0.97733768
C        0.24930795       1.42163656       0.77654335
C        0.66649825       0.01759925      -0.35937760
C       -0.24848501      -1.17147677      -0.53917035
O       -1.05875018      -1.17374931       0.63140108
C       -1.08215550      -0.04459399      -0.24674534
H        0.74245014      -0.30640545       1.67466481
H        0.67448403       2.26922419       0.23102900
H        1.26564000       0.36732227      -1.19073703
H       -0.27229043      -1.98375667      -1.24705865
H       -2.01283535       0.25420127      -0.70788696
11
Frame=15 idx=004446 GeodesicLength=0.5738178564304598 rxn_smarts="[N:1]1([H:7])[C@@:2]2([H:8])[C@:3]1([H:9])[C@@:4]1([H:10])[O:5][C@@:6]21[H:11]>>[N:1]([C:2][H:8])([C@@:3]1([H:9])[C@@:4]2([H:10])[O:5][C@@:6]12[H:11])[H:7]"
N        1.06825706       0.34893830       0.97781783
C        0.25425804       1.42369901       0.76008831
C        0.67127486       0.01929299      -0.36452672
C       -0.24898878      -1.16843506      -0.54343622
O       -1.05262496      -1.18008797       0.63214571
C       -1.08718980      -0.04664870      -0.24114729
H        0.72518686      -0.30397493       1.67380724
H        0.68772939       2.28163780       0.23957805
H        1.28087774       0.36462389      -1.19000449
H       -0.27349530      -1.98168084      -1.25035680
H       -2.02528510       0.24263552      -0.69396562
11
Frame=16 idx=004446 GeodesicLength=0.6117182911029093 rxn_smarts="[N:1]1([H:7])[C@@:2]2([H:8])[C@:3]1([H:9])[C@@:4]1([H:10])[O:5][C@@:6]21[H:11]>>[N:1]([C:2][H:8])([C@@:3]1([H:9])[C@@:4]2([H:10])[O:5][C@@:6]12[H:11])[H:7]"
N        1.06036192       0.34806967       0.97802588
C        0.25934007       1.42567382       0.74336118
C        0.67617721       0.02082753      -0.36977386
C       -0.24962595      -1.16535028      -0.54771276
O       -1.04652353      -1.18629951       0.63282589
C       -1.09219988      -0.04866897      -0.23554993
H        0.70808167      -0.30124260       1.67271726
H        0.70032945       2.29398131       0.24878691
H        1.29646393       0.36147636      -1.18913161
H       -0.27487344      -1.97959619      -1.25362359
H       -2.03753145       0.23112888      -0.67992536
