10
Frame=0 idx=000600 GeodesicLength=0.0 rxn_smarts="[N:1]([c:2]1[c:3]([H:9])[n:4]([H:10])[n:5][n:6]1)([H:7])[H:8]>>[N:1]([C:2]1=[N:6][N:5]=[N:4][C:3]1([H:9])[H:10])([H:7])[H:8]"
N        1.70419181       0.14243807       0.19435133
C        0.37461660      -0.16622043       0.08427029
C       -0.69140616       0.60064229      -0.37752856
N       -1.85293530      -0.24246383      -0.22029300
N       -1.42180569      -1.33857033       0.36412492
N       -0.11607391      -1.33395496       0.50836777
H        2.07833943       0.78562679      -0.47991472
H        2.29400054      -0.65207266       0.37854281
H       -0.74110124       1.49459061      -0.97828800
H       -1.62782607       0.70998446       0.52636717
10
Frame=1 idx=000600 GeodesicLength=0.04036503544623062 rxn_smarts="[N:1]([c:2]1[c:3]([H:9])[n:4]([H:10])[n:5][n:6]1)([H:7])[H:8]>>[N:1]([C:2]1=[N:6][N:5]=[N:4][C:3]1([H:9])[H:10])([H:7])[H:8]"
N        1.70597100       0.14042024       0.19319042
C        0.37545335      -0.16562120       0.09222120
C       -0.69173674       0.60414107      -0.36790802
N       -1.84725359      -0.24410057      -0.22094229
N       -1.42050217      -1.34100288       0.35992673
N       -0.11295758      -1.33610612       0.50888503
H        2.07700122       0.78741786      -0.47909571
H        2.29673936      -0.65491854       0.37058328
H       -0.73589376       1.48810703      -0.98393811
H       -1.64682109       0.72166311       0.52707747
10
Frame=2 idx=000600 GeodesicLength=0.08073877098506702 rxn_smarts="[N:1]([c:2]1[c:3]([H:9])[n:4]([H:10])[n:5][n:6]1)([H:7])[H:8]>>[N:1]([C:2]1=[N:6][N:5]=[N:4][C:3]1([H:9])[H:10])([H:7])[H:8]"
N        1.70772280       0.13838712       0.19203491
C        0.37634176      -0.16512251       0.10011984
C       -0.69206587       0.60760718      -0.35818257
N       -1.84155204      -0.24561617      -0.22123131
N       -1.41915130      -1.34336343       0.35594042
N       -0.10974705      -1.33839949       0.50913670
H        2.07563818       0.78937594      -0.47804970
H        2.29945628      -0.65776514       0.36239670
H       -0.73051829       1.48130446      -0.98936359
H       -1.66612447       0.73359204       0.52719861
10
Frame=3 idx=000600 GeodesicLength=0.12109621674716059 rxn_smarts="[N:1]([c:2]1[c:3]([H:9])[n:4]([H:10])[n:5][n:6]1)([H:7])[H:8]>>[N:1]([C:2]1=[N:6][N:5]=[N:4][C:3]1([H:9])[H:10])([H:7])[H:8]"
N        1.70942789       0.13635807       0.19087483
C        0.37728863      -0.16477796       0.10783577
C       -0.69240123       0.61101897      -0.34839012
N       -1.83585437      -0.24699727      -0.22109869
N       -1.41776218      -1.34564763       0.35218729
N       -0.10643503      -1.34086426       0.50903861
H        2.07427151       0.79144622      -0.47683299
H        2.30214458      -0.66053739       0.35415120
H       -0.72500905       1.47422455      -0.99449490
H       -1.68567076       0.74577670       0.52672899
10
Frame=4 idx=000600 GeodesicLength=0.16145892706049722 rxn_smarts="[N:1]([c:2]1[c:3]([H:9])[n:4]([H:10])[n:5][n:6]1)([H:7])[H:8]>>[N:1]([C:2]1=[N:6][N:5]=[N:4][C:3]1([H:9])[H:10])([H:7])[H:8]"
N        1.71108357       0.13434806       0.18970799
C        0.37830328      -0.16463895       0.11524659
C       -0.69275131       0.61435638      -0.33856904
N       -1.83019687      -0.24823670      -0.22048892
N       -1.41634641      -1.34786322       0.34869182
N       -0.10301304      -1.34353747       0.50851068
H        2.07293023       0.79358780      -0.47548355
H        2.30481983      -0.66318132       0.34599976
H       -0.71942961       1.46691695      -0.99928711
H       -1.70539967       0.75824847       0.52567177
10
Frame=5 idx=000600 GeodesicLength=0.20183416067440393 rxn_smarts="[N:1]([c:2]1[c:3]([H:9])[n:4]([H:10])[n:5][n:6]1)([H:7])[H:8]>>[N:1]([C:2]1=[N:6][N:5]=[N:4][C:3]1([H:9])[H:10])([H:7])[H:8]"
N        1.71268365       0.13237754       0.18852261
C        0.37939045      -0.16474011       0.12225269
C       -0.69312188       0.61760798      -0.32873878
N       -1.82460140      -0.24933122      -0.21936016
N       -1.41490974      -1.35002092       0.34544996
N       -0.09947531      -1.34644018       0.50748048
H        2.07163781       0.79572436      -0.47409236
H        2.30749048      -0.66563077       0.33812388
H       -0.71382879       1.45943676      -1.00367631
H       -1.72526526       0.77101655       0.52403798
10
Frame=6 idx=000600 GeodesicLength=0.2422225646340196 rxn_smarts="[N:1]([c:2]1[c:3]([H:9])[n:4]([H:10])[n:5][n:6]1)([H:7])[H:8]>>[N:1]([C:2]1=[N:6][N:5]=[N:4][C:3]1([H:9])[H:10])([H:7])[H:8]"
N        1.71422391       0.13045297       0.18731778
C        0.38055806      -0.16511382       0.12877746
C       -0.69349926       0.62075085      -0.31892373
N       -1.81909031      -0.25028467      -0.21767882
N       -1.41346590      -1.35212866       0.34247107
N       -0.09582255      -1.34958151       0.50592012
H        2.07040454       0.79784158      -0.47267468
H        2.31016240      -0.66785842       0.33060159
H       -0.70825531       1.45182352      -1.00763054
H       -1.74521559       0.78409815       0.52181975
10
Frame=7 idx=000600 GeodesicLength=0.2826937123594803 rxn_smarts="[N:1]([c:2]1[c:3]([H:9])[n:4]([H:10])[n:5][n:6]1)([H:7])[H:8]>>[N:1]([C:2]1=[N:6][N:5]=[N:4][C:3]1([H:9])[H:10])([H:7])[H:8]"
N        1.71571503       0.12859925       0.18607010
C        0.38181605      -0.16577007       0.13476411
C       -0.69389061       0.62378989      -0.30911948
N       -1.81370009      -0.25111102      -0.21543788
N       -1.41202901      -1.35422451       0.33969563
N       -0.09204008      -1.35296507       0.50379907
H        2.06925693       0.79982103      -0.47139412
H        2.31286338      -0.66979825       0.32364641
H       -0.70276080       1.44415839      -1.01106718
H       -1.76523080       0.79750037       0.51904335
10
Frame=8 idx=000600 GeodesicLength=0.3227456365013927 rxn_smarts="[N:1]([c:2]1[c:3]([H:9])[n:4]([H:10])[n:5][n:6]1)([H:7])[H:8]>>[N:1]([C:2]1=[N:6][N:5]=[N:4][C:3]1([H:9])[H:10])([H:7])[H:8]"
N        1.71713461       0.12683847       0.18480126
C        0.38313214      -0.16672339       0.14017965
C       -0.69435090       0.62674116      -0.29925429
N       -1.80838878      -0.25167072      -0.21246185
N       -1.41054052      -1.35623037       0.33717649
N       -0.08814399      -1.35668446       0.50085405
H        2.06819140       0.80162825      -0.47029646
H        2.31559348      -0.67140433       0.31741448
H       -0.69733222       1.43639603      -1.01409945
H       -1.78529521       0.81110936       0.51568612
10
Frame=9 idx=000600 GeodesicLength=0.36314565611486616 rxn_smarts="[N:1]([c:2]1[c:3]([H:9])[n:4]([H:10])[n:5][n:6]1)([H:7])[H:8]>>[N:1]([C:2]1=[N:6][N:5]=[N:4][C:3]1([H:9])[H:10])([H:7])[H:8]"
N        1.71853462       0.12510524       0.18351850
C        0.38455552      -0.16796550       0.14505579
C       -0.69478394       0.62956412      -0.28943522
N       -1.80323286      -0.25219132      -0.20894172
N       -1.40909117      -1.35825425       0.33490834
N       -0.08410614      -1.36060077       0.49744092
H        2.06719935       0.80341917      -0.46914887
H        2.31839626      -0.67282069       0.31153142
H       -0.69205774       1.42857642      -1.01660829
H       -1.80541389       0.82516757       0.51167912
10
Frame=10 idx=000600 GeodesicLength=0.40327855189897893 rxn_smarts="[N:1]([c:2]1[c:3]([H:9])[n:4]([H:10])[n:5][n:6]1)([H:7])[H:8]>>[N:1]([C:2]1=[N:6][N:5]=[N:4][C:3]1([H:9])[H:10])([H:7])[H:8]"
N        1.71989478       0.12344488       0.18222069
C        0.38604088      -0.16946018       0.14944647
C       -0.69525825       0.63230311      -0.27954151
N       -1.79814897      -0.25250849      -0.20469310
N       -1.40758309      -1.36023553       0.33289776
N       -0.07997554      -1.36480974       0.49324495
H        2.06628815       0.80505994      -0.46816057
H        2.32124936      -0.67396815       0.30626725
H       -0.68688522       1.42069487      -1.01869323
H       -1.82562210       0.83947929       0.50701129
10
Frame=11 idx=000600 GeodesicLength=0.4434419948972528 rxn_smarts="[N:1]([c:2]1[c:3]([H:9])[n:4]([H:10])[n:5][n:6]1)([H:7])[H:8]>>[N:1]([C:2]1=[N:6][N:5]=[N:4][C:3]1([H:9])[H:10])([H:7])[H:8]"
N        1.72124172       0.12183158       0.18090024
C        0.38761284      -0.17120579       0.15338581
C       -0.69572667       0.63494127      -0.26958099
N       -1.79319522      -0.25270752      -0.19979282
N       -1.40607885      -1.36222616       0.33109635
N       -0.07571138      -1.36925547       0.48844735
H        2.06544864       0.80660117      -0.46727257
H        2.32418368      -0.67489703       0.30148055
H       -0.68186301       1.41277936      -1.02028518
H       -1.84591175       0.85413859       0.50162127
10
Frame=12 idx=000600 GeodesicLength=0.4836132313415511 rxn_smarts="[N:1]([c:2]1[c:3]([H:9])[n:4]([H:10])[n:5][n:6]1)([H:7])[H:8]>>[N:1]([C:2]1=[N:6][N:5]=[N:4][C:3]1([H:9])[H:10])([H:7])[H:8]"
N        1.72258609       0.12025294       0.17957398
C        0.38926119      -0.17317268       0.15696575
C       -0.69618903       0.63748195      -0.25951998
N       -1.78835188      -0.25278863      -0.19420786
N       -1.40455741      -1.36421867       0.32955028
N       -0.07132242      -1.37394671       0.48300013
H        2.06466714       0.80808542      -0.46642767
H        2.32720250      -0.67565132       0.29705707
H       -0.67697605       1.40480197      -1.02141454
H       -1.86632014       0.86915573       0.49542283
10
Frame=13 idx=000600 GeodesicLength=0.5238247922315561 rxn_smarts="[N:1]([c:2]1[c:3]([H:9])[n:4]([H:10])[n:5][n:6]1)([H:7])[H:8]>>[N:1]([C:2]1=[N:6][N:5]=[N:4][C:3]1([H:9])[H:10])([H:7])[H:8]"
N        1.72393459       0.11867206       0.17828658
C        0.39098553      -0.17536325       0.16023017
C       -0.69662659       0.63990637      -0.24937208
N       -1.78362653      -0.25276936      -0.18787780
N       -1.40302159      -1.36618377       0.32839395
N       -0.06680919      -1.37890297       0.47684939
H        2.06392453       0.80968863      -0.46536781
H        2.33030516      -0.67632275       0.29272631
H       -0.67223059       1.39666865      -1.02216235
H       -1.88683533       0.88460639       0.48829363
10
Frame=14 idx=000600 GeodesicLength=0.5639480182947385 rxn_smarts="[N:1]([c:2]1[c:3]([H:9])[n:4]([H:10])[n:5][n:6]1)([H:7])[H:8]>>[N:1]([C:2]1=[N:6][N:5]=[N:4][C:3]1([H:9])[H:10])([H:7])[H:8]"
N        1.72529122       0.11710699       0.17699987
C        0.39278104      -0.17773651       0.16323135
C       -0.69705503       0.64224838      -0.23905441
N       -1.77898327      -0.25260392      -0.18076694
N       -1.40144468      -1.36815837       0.32748107
N       -0.06218378      -1.38407636       0.47003503
H        2.06321947       0.81126565      -0.46430302
H        2.33348771      -0.67687254       0.28863789
H       -0.66762363       1.38845051      -1.02246897
H       -1.90748906       0.90037618       0.48020812
10
Frame=15 idx=000600 GeodesicLength=0.6040889773381882 rxn_smarts="[N:1]([c:2]1[c:3]([H:9])[n:4]([H:10])[n:5][n:6]1)([H:7])[H:8]>>[N:1]([C:2]1=[N:6][N:5]=[N:4][C:3]1([H:9])[H:10])([H:7])[H:8]"
N        1.72666138       0.11554149       0.17574761
C        0.39464671      -0.18029973       0.16599742
C       -0.69745516       0.64449466      -0.22857757
N       -1.77445411      -0.25232363      -0.17280748
N       -1.39983749      -1.37013967       0.32690849
N       -0.05744210      -1.38949348       0.46246977
H        2.06254423       0.81292982      -0.46307233
H        2.33675388      -0.67734515       0.28464056
H       -0.66316728       1.38008320      -1.02238249
H       -1.92825006       0.91655250       0.47107604
10
Frame=16 idx=000600 GeodesicLength=0.6442199763164516 rxn_smarts="[N:1]([c:2]1[c:3]([H:9])[n:4]([H:10])[n:5][n:6]1)([H:7])[H:8]>>[N:1]([C:2]1=[N:6][N:5]=[N:4][C:3]1([H:9])[H:10])([H:7])[H:8]"
N        1.72805254       0.11395021       0.17455118
C        0.39657926      -0.18303596       0.16860452
C       -0.69781922       0.64664355      -0.21791470
N       -1.77002858      -0.25191623      -0.16391917
N       -1.39819398      -1.37211734       0.32673503
N       -0.05259228      -1.39514849       0.45412127
H        2.06187948       0.81478150      -0.46152256
H        2.34009944      -0.67780444       0.28053339
H       -0.65885401       1.37150184      -1.02194770
H       -1.94912265       0.93314537       0.46075874
