17
Frame=0 idx=007040 GeodesicLength=0.0 rxn_smarts="[C:1]([C@:2]12[C:3]([H:11])([H:12])[C:4]([H:13])([H:14])[C@@:5]1([H:15])[C:6]([H:16])([H:17])[O:7]2)([H:8])([H:9])[H:10]>>[C:1]([C:3]([C:4]([C@:5]1([H:15])[C-:2]=[O+:7][C:6]1([H:16])[H:17])([H:13])[H:14])([H:11])[H:12])([H:8])([H:9])[H:10]"
C        1.87491604      -0.12274533      -0.47995567
C        0.38479285       0.94004877      -0.53506573
C        0.34723703      -1.06982613       0.38436638
C       -1.00553839      -1.00706463      -0.27291990
C       -1.08295662       0.47846519      -0.49705977
C       -1.16729170       1.37333871       0.74321260
O        0.23123951       1.70419814       0.60044573
H        2.40586895      -0.80634667       0.20805733
H        1.93502523      -0.52673305      -1.48687982
H        2.49192379       0.77749643      -0.44341004
H        0.85779394      -2.02479069       0.30894671
H        0.38419224      -0.69227472       1.40323694
H       -1.82617398      -1.45841790       0.30158619
H       -0.96969871      -1.51556200      -1.23909828
H       -1.69226488       0.80400756      -1.33998597
H       -1.37993389       0.88205591       1.69812067
H       -1.78913137       2.26415044       0.64640270
17
Frame=1 idx=007040 GeodesicLength=0.04868173662276619 rxn_smarts="[C:1]([C@:2]12[C:3]([H:11])([H:12])[C:4]([H:13])([H:14])[C@@:5]1([H:15])[C:6]([H:16])([H:17])[O:7]2)([H:8])([H:9])[H:10]>>[C:1]([C:3]([C:4]([C@:5]1([H:15])[C-:2]=[O+:7][C:6]1([H:16])[H:17])([H:13])[H:14])([H:11])[H:12])([H:8])([H:9])[H:10]"
C        1.88059177      -0.13074901      -0.48353578
C        0.38548506       0.94129348      -0.51681510
C        0.35215889      -1.06797041       0.38346292
C       -1.00255270      -1.00431207      -0.27466179
C       -1.08280207       0.48314889      -0.49498103
C       -1.17725967       1.37650550       0.74547360
O        0.22179052       1.71085666       0.61287161
H        2.42763272      -0.79510376       0.20947436
H        1.93642751      -0.54769325      -1.48584372
H        2.49132755       0.77439528      -0.47232041
H        0.85269682      -2.02874385       0.30807176
H        0.38524775      -0.70581912       1.40842856
H       -1.82301406      -1.45275343       0.30151050
H       -0.96985596      -1.51245061      -1.24105087
H       -1.68313585       0.80905804      -1.34411250
H       -1.39451080       0.88401588       1.69855739
H       -1.80022748       2.26632177       0.64547051
17
Frame=2 idx=007040 GeodesicLength=0.0973423442759503 rxn_smarts="[C:1]([C@:2]12[C:3]([H:11])([H:12])[C:4]([H:13])([H:14])[C@@:5]1([H:15])[C:6]([H:16])([H:17])[O:7]2)([H:8])([H:9])[H:10]>>[C:1]([C:3]([C:4]([C@:5]1([H:15])[C-:2]=[O+:7][C:6]1([H:16])[H:17])([H:13])[H:14])([H:11])[H:12])([H:8])([H:9])[H:10]"
C        1.88617750      -0.13887689      -0.48723501
C        0.38634863       0.94257857      -0.49791694
C        0.35714550      -1.06618489       0.38280456
C       -0.99945569      -1.00147621      -0.27635380
C       -1.08234791       0.48794050      -0.49287108
C       -1.18735718       1.37968336       0.74773098
O        0.21218034       1.71754690       0.62577395
H        2.44968831      -0.78308323       0.21038309
H        1.93781807      -0.56914448      -1.48456558
H        2.48987071       0.77090971      -0.50202235
H        0.84746505      -2.03274906       0.30729017
H        0.38635145      -0.71968291       1.41368622
H       -1.81984098      -1.44701652       0.30133536
H       -0.96983010      -1.50923291      -1.24296669
H       -1.67332794       0.81434149      -1.34831565
H       -1.40948342       0.88592435       1.69888670
H       -1.81140235       2.26852222       0.64435608
17
Frame=3 idx=007040 GeodesicLength=0.145821727813191 rxn_smarts="[C:1]([C@:2]12[C:3]([H:11])([H:12])[C:4]([H:13])([H:14])[C@@:5]1([H:15])[C:6]([H:16])([H:17])[O:7]2)([H:8])([H:9])[H:10]>>[C:1]([C:3]([C:4]([C@:5]1([H:15])[C-:2]=[O+:7][C:6]1([H:16])[H:17])([H:13])[H:14])([H:11])[H:12])([H:8])([H:9])[H:10]"
C        1.89163688      -0.14714701      -0.49105043
C        0.38737127       0.94379341      -0.47835525
C        0.36216619      -1.06443687       0.38235858
C       -0.99620715      -0.99849997      -0.27797592
C       -1.08153479       0.49280996      -0.49068857
C       -1.19757057       1.38283076       0.74997258
O        0.20236493       1.72416900       0.63911402
H        2.47198760      -0.77022020       0.21072301
H        1.93923827      -0.59109715      -1.48300314
H        2.48741151       0.76699006      -0.53248996
H        0.84206992      -2.03671061       0.30654746
H        0.38742266      -0.73382557       1.41892854
H       -1.81661323      -1.44109395       0.30107162
H       -0.96954432      -1.50583625      -1.24479713
H       -1.66273334       0.81979168      -1.35248740
H       -1.42485606       0.88780254       1.69906132
H       -1.82260977       2.27068015       0.64307065
17
Frame=4 idx=007040 GeodesicLength=0.19427988632296023 rxn_smarts="[C:1]([C@:2]12[C:3]([H:11])([H:12])[C:4]([H:13])([H:14])[C@@:5]1([H:15])[C:6]([H:16])([H:17])[O:7]2)([H:8])([H:9])[H:10]>>[C:1]([C:3]([C:4]([C@:5]1([H:15])[C-:2]=[O+:7][C:6]1([H:16])[H:17])([H:13])[H:14])([H:11])[H:12])([H:8])([H:9])[H:10]"
C        1.89699900      -0.15552696      -0.49496334
C        0.38856719       0.94502340      -0.45811834
C        0.36724808      -1.06280375       0.38217380
C       -0.99286310      -0.99546237      -0.27954469
C       -1.08039831       0.49778987      -0.48848201
C       -1.20788604       1.38600496       0.75218803
O        0.19240470       1.73083527       0.65292563
H        2.49459833      -0.75651356       0.21044625
H        1.94069284      -0.61350526      -1.48116149
H        2.48393325       0.76269579      -0.56366147
H        0.83653646      -2.04076440       0.30589046
H        0.38854636      -0.74832703       1.42424735
H       -1.81339731      -1.43512050       0.30071814
H       -0.96910850      -1.50235761      -1.24660031
H       -1.65142850       0.82548324      -1.35673297
H       -1.44059654       0.88964543       1.69911007
H       -1.83384792       2.27290348       0.64156488
17
Frame=5 idx=007040 GeodesicLength=0.2425726009231849 rxn_smarts="[C:1]([C@:2]12[C:3]([H:11])([H:12])[C:4]([H:13])([H:14])[C@@:5]1([H:15])[C:6]([H:16])([H:17])[O:7]2)([H:8])([H:9])[H:10]>>[C:1]([C:3]([C:4]([C@:5]1([H:15])[C-:2]=[O+:7][C:6]1([H:16])[H:17])([H:13])[H:14])([H:11])[H:12])([H:8])([H:9])[H:10]"
C        1.90221841      -0.16404758      -0.49898245
C        0.38993501       0.94619558      -0.43716251
C        0.37239476      -1.06122846       0.38223271
C       -0.98935933      -0.99229452      -0.28102809
C       -1.07887703       0.50286521      -0.48621094
C       -1.21831505       1.38916196       0.75435969
O        0.18224283       1.73745621       0.66719251
H        2.51739677      -0.74195114       0.20939865
H        1.94221805      -0.63636395      -1.47899686
H        2.47929247       0.75788645      -0.59548326
H        0.83087253      -2.04480525       0.30527699
H        0.38967711      -0.76312817       1.42957643
H       -1.81012203      -1.42897311       0.30029639
H       -0.96841676      -1.49872249      -1.24830506
H       -1.63929289       0.83138434      -1.36096501
H       -1.45674825       0.89145898       1.69897373
H       -1.84511658       2.27510595       0.63982707
17
Frame=6 idx=007040 GeodesicLength=0.2908297252245293 rxn_smarts="[C:1]([C@:2]12[C:3]([H:11])([H:12])[C:4]([H:13])([H:14])[C@@:5]1([H:15])[C:6]([H:16])([H:17])[O:7]2)([H:8])([H:9])[H:10]>>[C:1]([C:3]([C:4]([C@:5]1([H:15])[C-:2]=[O+:7][C:6]1([H:16])[H:17])([H:13])[H:14])([H:11])[H:12])([H:8])([H:9])[H:10]"
C        1.90731105      -0.17268065      -0.50309265
C        0.39149117       0.94733295      -0.41544038
C        0.37759859      -1.05978867       0.38257601
C       -0.98573744      -0.98904792      -0.28244608
C       -1.07696538       0.50805494      -0.48389607
C       -1.22883679       1.39233816       0.75648650
O        0.17192593       1.74406622       0.68198384
H        2.54050634      -0.72641197       0.20759914
H        1.94378813      -0.65971374      -1.47648499
H        2.47340563       0.75265714      -0.62806297
H        0.82506967      -2.04893001       0.30474669
H        0.39083074      -0.77832016       1.43498125
H       -1.80685365      -1.42273682       0.29977887
H       -0.96753832      -1.49497326      -1.24996956
H       -1.62630092       0.83754591      -1.36524034
H       -1.47332120       0.89323691       1.69865677
H       -1.85637356       2.27737098       0.63782397
17
Frame=7 idx=007040 GeodesicLength=0.3390156279823493 rxn_smarts="[C:1]([C@:2]12[C:3]([H:11])([H:12])[C:4]([H:13])([H:14])[C@@:5]1([H:15])[C:6]([H:16])([H:17])[O:7]2)([H:8])([H:9])[H:10]>>[C:1]([C:3]([C:4]([C@:5]1([H:15])[C-:2]=[O+:7][C:6]1([H:16])[H:17])([H:13])[H:14])([H:11])[H:12])([H:8])([H:9])[H:10]"
C        1.91223171      -0.18145075      -0.50730054
C        0.39323839       0.94839618      -0.39288359
C        0.38286552      -1.05845966       0.38320415
C       -0.98194253      -0.98568279      -0.28378945
C       -1.07460090       0.51335862      -0.48151032
C       -1.23945465       1.39551416       0.75856787
O        0.16141214       1.75061106       0.69733907
H        2.56384308      -0.70980521       0.20492224
H        1.94543392      -0.68362782      -1.47356013
H        2.46606373       0.74690100      -0.66144303
H        0.81913969      -2.05308849       0.30427991
H        0.39197269      -0.79387974       1.44043900
H       -1.80353793      -1.41634118       0.29915600
H       -0.96638306      -1.49105996      -1.25157533
H       -1.61231534       0.84396595      -1.36951748
H       -1.49036636       0.89498429       1.69812163
H       -1.86760011       2.27966434       0.63555000
17
Frame=8 idx=007040 GeodesicLength=0.38712529883398994 rxn_smarts="[C:1]([C@:2]12[C:3]([H:11])([H:12])[C:4]([H:13])([H:14])[C@@:5]1([H:15])[C:6]([H:16])([H:17])[O:7]2)([H:8])([H:9])[H:10]>>[C:1]([C:3]([C:4]([C@:5]1([H:15])[C-:2]=[O+:7][C:6]1([H:16])[H:17])([H:13])[H:14])([H:11])[H:12])([H:8])([H:9])[H:10]"
C        1.91699294      -0.19034520      -0.51158119
C        0.39517629       0.94935342      -0.36948752
C        0.38819058      -1.05726922       0.38411817
C       -0.97799747      -0.98220423      -0.28505180
C       -1.07177841       0.51877499      -0.47904826
C       -1.25014552       1.39868921       0.76057907
O        0.15072867       1.75707306       0.71322886
H        2.58741474      -0.69205404       0.20131898
H        1.94720544      -0.70806276      -1.47017455
H        2.45718679       0.74060186      -0.69557020
H        0.81308196      -2.05729373       0.30386208
H        0.39310197      -0.80984144       1.44593409
H       -1.80021115      -1.40978748       0.29843262
H       -0.96498584      -1.48697724      -1.25311213
H       -1.59733960       0.85064661      -1.37376582
H       -1.50785963       0.89670203       1.69733679
H       -1.87876175       2.28199417       0.63298082
17
Frame=9 idx=007040 GeodesicLength=0.4351815233739934 rxn_smarts="[C:1]([C@:2]12[C:3]([H:11])([H:12])[C:4]([H:13])([H:14])[C@@:5]1([H:15])[C:6]([H:16])([H:17])[O:7]2)([H:8])([H:9])[H:10]>>[C:1]([C:3]([C:4]([C@:5]1([H:15])[C-:2]=[O+:7][C:6]1([H:16])[H:17])([H:13])[H:14])([H:11])[H:12])([H:8])([H:9])[H:10]"
C        1.92157524      -0.19935232      -0.51592170
C        0.39730625       0.95019755      -0.34521240
C        0.39358023      -1.05624744       0.38534246
C       -0.97389299      -0.97863125      -0.28623179
C       -1.06846622       0.52430941      -0.47651574
C       -1.26089339       1.40188299       0.76250682
O        0.13987868       1.76346537       0.72968058
H        2.61119811      -0.67313049       0.19666869
H        1.94911517      -0.73299530      -1.46631207
H        2.44661793       0.73375393      -0.73038421
H        0.80690459      -2.06158377       0.30349945
H        0.39422339      -0.82623171       1.45149676
H       -1.79686670      -1.40309435       0.29761099
H       -0.96333924      -1.48275185      -1.25459377
H       -1.58131191       0.85760435      -1.37800037
H       -1.52580510       0.89840665       1.69628691
H       -1.88982403       2.28439824       0.63007939
17
Frame=10 idx=007040 GeodesicLength=0.48318424563918 rxn_smarts="[C:1]([C@:2]12[C:3]([H:11])([H:12])[C:4]([H:13])([H:14])[C@@:5]1([H:15])[C:6]([H:16])([H:17])[O:7]2)([H:8])([H:9])[H:10]>>[C:1]([C:3]([C:4]([C@:5]1([H:15])[C-:2]=[O+:7][C:6]1([H:16])[H:17])([H:13])[H:14])([H:11])[H:12])([H:8])([H:9])[H:10]"
C        1.92596600      -0.20846706      -0.52030540
C        0.39962835       0.95089394      -0.32001992
C        0.39903400      -1.05540867       0.38688510
C       -0.96962014      -0.97495856      -0.28732121
C       -1.06462891       0.52996021      -0.47390107
C       -1.27168138       1.40509366       0.76433239
O        0.12886423       1.76975886       0.74670252
H        2.63516182      -0.65295629       0.19085622
H        1.95119995      -0.75841052      -1.46192317
H        2.43419556       0.72630982      -0.76584394
H        0.80061118      -2.06595777       0.30318114
H        0.39532239      -0.84306972       1.45712006
H       -1.79350360      -1.39624350       0.29669266
H       -0.96142913      -1.47837100      -1.25601042
H       -1.56416132       0.86484046      -1.38219388
H       -1.54421233       0.90010614       1.69493385
H       -1.90074669       2.28687998       0.62681507
17
Frame=11 idx=007040 GeodesicLength=0.5311513109448823 rxn_smarts="[C:1]([C@:2]12[C:3]([H:11])([H:12])[C:4]([H:13])([H:14])[C@@:5]1([H:15])[C:6]([H:16])([H:17])[O:7]2)([H:8])([H:9])[H:10]>>[C:1]([C:3]([C:4]([C@:5]1([H:15])[C-:2]=[O+:7][C:6]1([H:16])[H:17])([H:13])[H:14])([H:11])[H:12])([H:8])([H:9])[H:10]"
C        1.93015389      -0.21768001      -0.52471153
C        0.40214169       0.95141264      -0.29387193
C        0.40455248      -1.05477574       0.38875828
C       -0.96517244      -0.97118918      -0.28831560
C       -1.06023189       0.53572752      -0.47119642
C       -1.28248851       1.40832619       0.76603724
O        0.11769270       1.77593329       0.76430721
H        2.65927343      -0.63144568       0.18376390
H        1.95349685      -0.78428962      -1.45695869
H        2.41974544       0.71822547      -0.80190331
H        0.79420713      -2.07042870       0.30290001
H        0.39638809      -0.86038304       1.46280646
H       -1.79012387      -1.38922934       0.29567580
H       -0.95924614      -1.47383149      -1.25736182
H       -1.54581877       0.87236085      -1.38632758
H       -1.56308633       0.90181104       1.69324255
H       -1.91148375       2.28945580       0.62315542
17
Frame=12 idx=007040 GeodesicLength=0.5791063188473824 rxn_smarts="[C:1]([C@:2]12[C:3]([H:11])([H:12])[C:4]([H:13])([H:14])[C@@:5]1([H:15])[C:6]([H:16])([H:17])[O:7]2)([H:8])([H:9])[H:10]>>[C:1]([C:3]([C:4]([C@:5]1([H:15])[C-:2]=[O+:7][C:6]1([H:16])[H:17])([H:13])[H:14])([H:11])[H:12])([H:8])([H:9])[H:10]"
C        1.93412855      -0.22697845      -0.52911722
C        0.40484479       0.95172129      -0.26673035
C        0.41013577      -1.05437326       0.39097533
C       -0.96054356      -0.96732799      -0.28921073
C       -1.05523838       0.54161034      -0.46839401
C       -1.29329055       1.41158632       0.76760168
O        0.10637423       1.78196696       0.78250731
H        2.68348912      -0.60850286       0.17526379
H        1.95604819      -0.81060689      -1.45136872
H        2.40308235       0.70944877      -0.83850539
H        0.78769773      -2.07501102       0.30264841
H        0.39740762      -0.87820144       1.46856039
H       -1.78673062      -1.38204825       0.29455871
H       -0.95678062      -1.46913188      -1.25864957
H       -1.52621066       0.88017068      -1.39038218
H       -1.58243100       0.90353321       1.69117646
H       -1.92198296       2.29214446       0.61906611
17
Frame=13 idx=007040 GeodesicLength=0.6271403205454811 rxn_smarts="[C:1]([C@:2]12[C:3]([H:11])([H:12])[C:4]([H:13])([H:14])[C@@:5]1([H:15])[C:6]([H:16])([H:17])[O:7]2)([H:8])([H:9])[H:10]>>[C:1]([C:3]([C:4]([C@:5]1([H:15])[C-:2]=[O+:7][C:6]1([H:16])[H:17])([H:13])[H:14])([H:11])[H:12])([H:8])([H:9])[H:10]"
C        1.93790133      -0.23633187      -0.53349131
C        0.40774845       0.95181865      -0.23855347
C        0.41578854      -1.05426122       0.39356986
C       -0.95575857      -0.96341031      -0.29001395
C       -1.04963004       0.54762198      -0.46550430
C       -1.30405285       1.41489693       0.76900466
O        0.09495816       1.78787061       0.80133488
H        2.70781420      -0.58398399       0.16525579
H        1.95889955      -0.83734433      -1.44509528
H        2.38401238       0.69997128      -0.87562757
H        0.78108658      -2.07977942       0.30244544
H        0.39839216      -0.89660664       1.47442787
H       -1.78336878      -1.37475424       0.29332879
H       -0.95407646      -1.46429559      -1.25990694
H       -1.50529552       0.88831107      -1.39438211
H       -1.60223874       0.90526978       1.68871030
H       -1.93218040       2.29500730       0.61449734
17
Frame=14 idx=007040 GeodesicLength=0.6751545732316135 rxn_smarts="[C:1]([C@:2]12[C:3]([H:11])([H:12])[C:4]([H:13])([H:14])[C@@:5]1([H:15])[C:6]([H:16])([H:17])[O:7]2)([H:8])([H:9])[H:10]>>[C:1]([C:3]([C:4]([C@:5]1([H:15])[C-:2]=[O+:7][C:6]1([H:16])[H:17])([H:13])[H:14])([H:11])[H:12])([H:8])([H:9])[H:10]"
C        1.94139209      -0.24575106      -0.53783929
C        0.41081613       0.95159323      -0.20924196
C        0.42153010      -1.05436937       0.39653139
C       -0.95069725      -0.95936182      -0.29065767
C       -1.04328352       0.55372406      -0.46246868
C       -1.31479922       1.41823092       0.77019087
O        0.08331741       1.79353208       0.82080319
H        2.73202172      -0.55807701       0.15333310
H        1.96198449      -0.86431070      -1.43819291
H        2.36232297       0.68960719      -0.91293897
H        0.77441529      -2.08459368       0.30223057
H        0.39928579      -0.91550912       1.48032280
H       -1.77988421      -1.36717789       0.29205669
H       -0.95096040      -1.45928377      -1.26099590
H       -1.48279436       0.89668543      -1.39821394
H       -1.62260271       0.90709498       1.68571361
H       -1.94206432       2.29796653       0.60936710
17
Frame=15 idx=007040 GeodesicLength=0.723332201801935 rxn_smarts="[C:1]([C@:2]12[C:3]([H:11])([H:12])[C:4]([H:13])([H:14])[C@@:5]1([H:15])[C:6]([H:16])([H:17])[O:7]2)([H:8])([H:9])[H:10]>>[C:1]([C:3]([C:4]([C@:5]1([H:15])[C-:2]=[O+:7][C:6]1([H:16])[H:17])([H:13])[H:14])([H:11])[H:12])([H:8])([H:9])[H:10]"
C        1.94461846      -0.25525402      -0.54208088
C        0.41403387       0.95099610      -0.17881147
C        0.42732521      -1.05476998       0.39984165
C       -0.94538450      -0.95518596      -0.29121388
C       -1.03619720       0.55993910      -0.45925840
C       -1.32544165       1.42159474       0.77119098
O        0.07153524       1.79890138       0.84089873
H        2.75609991      -0.53016507       0.13961335
H        1.96557553      -0.89179976      -1.43033187
H        2.33759733       0.67817704      -0.95075539
H        0.76766855      -2.08951698       0.30197676
H        0.40004438      -0.93498935       1.48621386
H       -1.77635498      -1.35934809       0.29058660
H       -0.94741516      -1.45400153      -1.26204165
H       -1.45876413       0.90536586      -1.40177201
H       -1.64344517       0.90897849       1.68217491
H       -1.95149566       2.30107803       0.60376872
17
Frame=16 idx=007040 GeodesicLength=0.7717636578238841 rxn_smarts="[C:1]([C@:2]12[C:3]([H:11])([H:12])[C:4]([H:13])([H:14])[C@@:5]1([H:15])[C:6]([H:16])([H:17])[O:7]2)([H:8])([H:9])[H:10]>>[C:1]([C:3]([C:4]([C@:5]1([H:15])[C-:2]=[O+:7][C:6]1([H:16])[H:17])([H:13])[H:14])([H:11])[H:12])([H:8])([H:9])[H:10]"
C        1.94760712      -0.26474179      -0.54619237
C        0.41743030       0.95006227      -0.14719619
C        0.43319986      -1.05554223       0.40358603
C       -0.93986453      -0.95096891      -0.29165673
C       -1.02833966       0.56627119      -0.45592318
C       -1.33595253       1.42503793       0.77194071
O        0.05967471       1.80404752       0.86168333
H        2.78002446      -0.50036399       0.12379269
H        1.96958508      -0.91952033      -1.42163782
H        2.30975351       0.66575220      -0.98873617
H        0.76085987      -2.09466682       0.30174504
H        0.40072234      -0.95515897       1.49223253
H       -1.77283306      -1.35138314       0.28899497
H       -0.94355125      -1.44857750      -1.26304830
H       -1.43311313       0.91437407      -1.40518182
H       -1.66478642       0.91093949       1.67805747
H       -1.96041667       2.30443902       0.59753982
