14
Frame=0 idx=006055 GeodesicLength=0.0 rxn_smarts="[C:1]1([H:7])([H:8])[C@@:2]2([H:9])[C@:3]1([H:10])[C@@:4]1([H:11])[C:5]([H:12])([H:13])[C@@:6]21[H:14]>>[C:1]1([H:7])([H:8])[C@@:2]([C:6](=[C:5]([H:12])[H:13])[H:14])([H:9])[C@@:3]1([C:4][H:11])[H:10]"
C        1.21762929      -0.65272539      -0.58119435
C        0.87325049       0.19504274       0.61385614
C        0.70802019       0.73913501      -0.77499249
C       -0.77665447       1.05171994      -0.86202040
C       -1.48783399      -0.63913163       0.68104244
C       -0.54070094       0.21439424       1.09767958
H        0.59868705      -1.49642511      -0.86050093
H        2.27870707      -0.81786616      -0.72368236
H        1.65531373       0.52492687       1.28382632
H        1.36410816       1.51880032      -1.14678281
H       -1.29062172       0.31751719      -1.50834334
H       -2.52681055      -0.46817101       0.93051842
H       -1.25787970      -1.52309018       0.10202861
H       -0.81521464       1.03587314       1.74856520
14
Frame=1 idx=006055 GeodesicLength=0.05642316186812144 rxn_smarts="[C:1]1([H:7])([H:8])[C@@:2]2([H:9])[C@:3]1([H:10])[C@@:4]1([H:11])[C:5]([H:12])([H:13])[C@@:6]21[H:14]>>[C:1]1([H:7])([H:8])[C@@:2]([C:6](=[C:5]([H:12])[H:13])[H:14])([H:9])[C@@:3]1([C:4][H:11])[H:10]"
C        1.21942909      -0.65370001      -0.57615018
C        0.87497925       0.19619584       0.61535415
C        0.71621023       0.74169477      -0.77555529
C       -0.76515966       1.03765011      -0.86981900
C       -1.48709032      -0.63729020       0.66906784
C       -0.54218475       0.22054961       1.09312939
H        0.59961393      -1.49536546      -0.85910008
H        2.28008697      -0.82030585      -0.71972681
H        1.65617715       0.52781122       1.28545610
H        1.37682329       1.51620036      -1.14908186
H       -1.33521302       0.34092178      -1.50449191
H       -2.52556791      -0.47566397       0.92670659
H       -1.25048896      -1.53302103       0.11110874
H       -0.81761530       1.03432283       1.75310233
14
Frame=2 idx=006055 GeodesicLength=0.11265556284325373 rxn_smarts="[C:1]1([H:7])([H:8])[C@@:2]2([H:9])[C@:3]1([H:10])[C@@:4]1([H:11])[C:5]([H:12])([H:13])[C@@:6]21[H:14]>>[C:1]1([H:7])([H:8])[C@@:2]([C:6](=[C:5]([H:12])[H:13])[H:14])([H:9])[C@@:3]1([C:4][H:11])[H:10]"
C        1.22167631      -0.65498720      -0.57080417
C        0.87667084       0.19737627       0.61677576
C        0.72467077       0.74377883      -0.77638620
C       -0.75346482       1.02202940      -0.87883900
C       -1.48610679      -0.63594346       0.65681122
C       -0.54382788       0.22679145       1.08802072
H        0.60121910      -1.49482964      -0.85725597
H        2.28197889      -0.82292427      -0.71512685
H        1.65677724       0.53110456       1.28708332
H        1.38965455       1.51312022      -1.15178901
H       -1.38192033       0.36845708      -1.49814548
H       -2.52394551      -0.48394696       0.92282650
H       -1.24289105      -1.54291739       0.12011741
H       -0.82049131       1.03289110       1.75671174
14
Frame=3 idx=006055 GeodesicLength=0.168525841924698 rxn_smarts="[C:1]1([H:7])([H:8])[C@@:2]2([H:9])[C@:3]1([H:10])[C@@:4]1([H:11])[C:5]([H:12])([H:13])[C@@:6]21[H:14]>>[C:1]1([H:7])([H:8])[C@@:2]([C:6](=[C:5]([H:12])[H:13])[H:14])([H:9])[C@@:3]1([C:4][H:11])[H:10]"
C        1.22444238      -0.65660704      -0.56516089
C        0.87827466       0.19858692       0.61803904
C        0.73338539       0.74531030      -0.77757451
C       -0.74156455       1.00454341      -0.88943706
C       -1.48486471      -0.63515912       0.64425680
C       -0.54569324       0.23317881       1.08218444
H        0.60365442      -1.49491261      -0.85489025
H        2.28446349      -0.82566642      -0.70990587
H        1.65703271       0.53469029       1.28869695
H        1.40256964       1.50958068      -1.15480346
H       -1.43074509       0.40057904      -1.48823248
H       -2.52193727      -0.49304580       0.91874639
H       -1.23504615      -1.55281870       0.12900876
H       -0.82397170       1.03174025       1.75907214
14
Frame=4 idx=006055 GeodesicLength=0.22395842252030618 rxn_smarts="[C:1]1([H:7])([H:8])[C@@:2]2([H:9])[C@:3]1([H:10])[C@@:4]1([H:11])[C:5]([H:12])([H:13])[C@@:6]21[H:14]>>[C:1]1([H:7])([H:8])[C@@:2]([C:6](=[C:5]([H:12])[H:13])[H:14])([H:9])[C@@:3]1([C:4][H:11])[H:10]"
C        1.22779641      -0.65866634      -0.55909998
C        0.87974920       0.19990023       0.61911585
C        0.74224930       0.74610661      -0.77926920
C       -0.72955847       0.98478241      -0.90174051
C       -1.48341005      -0.63506889       0.63129513
C       -0.54783380       0.23961207       1.07555801
H        0.60708761      -1.49587535      -0.85175121
H        2.28764076      -0.82853537      -0.70385807
H        1.65685154       0.53899063       1.29017841
H        1.41538243       1.50536283      -1.15855078
H       -1.48136422       0.43872416      -1.47431784
H       -2.51955613      -0.50316128       0.91447661
H       -1.22693401      -1.56289189       0.13773573
H       -0.82810058       1.03072017       1.76022785
14
Frame=5 idx=006055 GeodesicLength=0.27855641265800013 rxn_smarts="[C:1]1([H:7])([H:8])[C@@:2]2([H:9])[C@:3]1([H:10])[C@@:4]1([H:11])[C:5]([H:12])([H:13])[C@@:6]21[H:14]>>[C:1]1([H:7])([H:8])[C@@:2]([C:6](=[C:5]([H:12])[H:13])[H:14])([H:9])[C@@:3]1([C:4][H:11])[H:10]"
C        1.23177402      -0.66124648      -0.55250796
C        0.88101256       0.20134793       0.61995042
C        0.75099971       0.74592409      -0.78156412
C       -0.71771690       0.96221923      -0.91566357
C       -1.48180623      -0.63579716       0.61785045
C       -0.55030501       0.24586942       1.06815533
H        0.61172167      -1.49798617      -0.84745501
H        2.29155982      -0.83143902      -0.69695740
H        1.65611795       0.54444355       1.29125367
H        1.42766196       1.50019518      -1.16340971
H       -1.53268388       0.48444277      -1.45606042
H       -2.51680972      -0.51443345       0.91008228
H       -1.21854974      -1.57324052       0.14625585
H       -0.83297620       1.02970062       1.76007019
14
Frame=6 idx=006055 GeodesicLength=0.3326660578983026 rxn_smarts="[C:1]1([H:7])([H:8])[C@@:2]2([H:9])[C@:3]1([H:10])[C@@:4]1([H:11])[C:5]([H:12])([H:13])[C@@:6]21[H:14]>>[C:1]1([H:7])([H:8])[C@@:2]([C:6](=[C:5]([H:12])[H:13])[H:14])([H:9])[C@@:3]1([C:4][H:11])[H:10]"
C        1.23657870      -0.66448853      -0.54528937
C        0.88195345       0.20306255       0.62033497
C        0.75965013       0.74448841      -0.78486250
C       -0.70593263       0.93607602      -0.93219675
C       -1.47998799      -0.63764397       0.60371456
C       -0.55328102       0.25204762       1.05951689
H        0.61792410      -1.50158526      -0.84178513
H        2.29648683      -0.83437077      -0.68885141
H        1.65456210       0.55123899       1.29187811
H        1.43944169       1.49390958      -1.16961576
H       -1.58502630       0.53987740      -1.43049308
H       -2.51373012      -0.52720616       0.90497673
H       -1.20965173      -1.58428294       0.15470568
H       -0.83898722       1.02887705       1.75796705
14
Frame=7 idx=006055 GeodesicLength=0.38566179943569723 rxn_smarts="[C:1]1([H:7])([H:8])[C@@:2]2([H:9])[C@:3]1([H:10])[C@@:4]1([H:11])[C:5]([H:12])([H:13])[C@@:6]21[H:14]>>[C:1]1([H:7])([H:8])[C@@:2]([C:6](=[C:5]([H:12])[H:13])[H:14])([H:9])[C@@:3]1([C:4][H:11])[H:10]"
C        1.24223363      -0.66846851      -0.53736652
C        0.88238906       0.20520224       0.62005980
C        0.76773372       0.74147954      -0.78951595
C       -0.69467197       0.90543452      -0.95171747
C       -1.47803247      -0.64093347       0.58888343
C       -0.55691213       0.25794647       1.04951377
H        0.62598564      -1.50711452      -0.83420843
H        2.30248448      -0.83713906      -0.67945885
H        1.65193998       0.55995222       1.29167075
H        1.45006770       1.48627552      -1.17770097
H       -1.63608133       0.60707605      -1.39556951
H       -2.51047621      -0.54161240       0.89878118
H       -1.20029468      -1.59624196       0.16294583
H       -0.84636541       1.02814334       1.75368293
14
Frame=8 idx=006055 GeodesicLength=0.4371417373549991 rxn_smarts="[C:1]1([H:7])([H:8])[C@@:2]2([H:9])[C@:3]1([H:10])[C@@:4]1([H:11])[C:5]([H:12])([H:13])[C@@:6]21[H:14]>>[C:1]1([H:7])([H:8])[C@@:2]([C:6](=[C:5]([H:12])[H:13])[H:14])([H:9])[C@@:3]1([C:4][H:11])[H:10]"
C        1.24865706      -0.67322281      -0.52861454
C        0.88204040       0.20790545       0.61896342
C        0.77444104       0.73646600      -0.79580374
C       -0.68478663       0.86923085      -0.97397395
C       -1.47628007      -0.64595549       0.57316878
C       -0.56140835       0.26295744       1.03831666
H        0.63616532      -1.51504545      -0.82391801
H        2.30951405      -0.83923498      -0.66898691
H        1.64791720       0.57166146       1.28993316
H        1.45826904       1.47681525      -1.18879494
H       -1.68126300       0.68909525      -1.35072058
H       -2.50734030      -0.55792508       0.89149540
H       -1.19058547      -1.60959282       0.17149124
H       -0.85534029       1.02684493       1.74744401
14
Frame=9 idx=006055 GeodesicLength=0.4862981925866485 rxn_smarts="[C:1]1([H:7])([H:8])[C@@:2]2([H:9])[C@:3]1([H:10])[C@@:4]1([H:11])[C:5]([H:12])([H:13])[C@@:6]21[H:14]>>[C:1]1([H:7])([H:8])[C@@:2]([C:6](=[C:5]([H:12])[H:13])[H:14])([H:9])[C@@:3]1([C:4][H:11])[H:10]"
C        1.25520492      -0.67831080      -0.51958989
C        0.88059007       0.21139965       0.61669115
C        0.77870100       0.72977847      -0.80399414
C       -0.67739281       0.82786579      -0.99877894
C       -1.47490848      -0.65278260       0.55720199
C       -0.56691070       0.26707546       1.02618675
H        0.64787900      -1.52510409      -0.81103201
H        2.31689420      -0.84016389      -0.65829392
H        1.64240823       0.58619101       1.28619936
H        1.46306305       1.46609881      -1.20260515
H       -1.71380996       0.78246229      -1.29435764
H       -2.50503773      -0.57492150       0.88170444
H       -1.18086135      -1.62428784       0.18072955
H       -0.86581944       1.02469922       1.73993846
14
Frame=10 idx=006055 GeodesicLength=0.533609361738701 rxn_smarts="[C:1]1([H:7])([H:8])[C@@:2]2([H:9])[C@:3]1([H:10])[C@@:4]1([H:11])[C:5]([H:12])([H:13])[C@@:6]21[H:14]>>[C:1]1([H:7])([H:8])[C@@:2]([C:6](=[C:5]([H:12])[H:13])[H:14])([H:9])[C@@:3]1([C:4][H:11])[H:10]"
C        1.26048823      -0.68289080      -0.51107556
C        0.87790825       0.21537348       0.61361843
C        0.77950025       0.72266941      -0.81293835
C       -0.67350519       0.78427880      -1.02265376
C       -1.47454562      -0.66043531       0.54150531
C       -0.57314517       0.26992842       1.01467015
H        0.65909341      -1.53568625      -0.79699039
H        2.32293001      -0.83909632      -0.64970614
H        1.63584195       0.60254279       1.28041011
H        1.46320224       1.45535805      -1.21832774
H       -1.72555709       0.87857770      -1.23602239
H       -2.50401911      -0.59107252       0.87039327
H       -1.17161240      -1.63989923       0.19303522
H       -0.87657973       1.02035179       1.73408184
14
Frame=11 idx=006055 GeodesicLength=0.5813580628733467 rxn_smarts="[C:1]1([H:7])([H:8])[C@@:2]2([H:9])[C@:3]1([H:10])[C@@:4]1([H:11])[C:5]([H:12])([H:13])[C@@:6]21[H:14]>>[C:1]1([H:7])([H:8])[C@@:2]([C:6](=[C:5]([H:12])[H:13])[H:14])([H:9])[C@@:3]1([C:4][H:11])[H:10]"
C        1.26421785      -0.68655393      -0.50351605
C        0.87432008       0.21973442       0.61003986
C        0.77706731       0.71590470      -0.82228843
C       -0.67311609       0.74110156      -1.04426873
C       -1.47523790      -0.66847311       0.52680324
C       -0.57989971       0.27172769       1.00456166
H        0.66900706      -1.54579196      -0.78283106
H        2.32738196      -0.83618686      -0.64367795
H        1.62884947       0.61995759       1.27297407
H        1.45948668       1.44520369      -1.23515327
H       -1.71683133       0.97087000      -1.17951812
H       -2.50465938      -0.60563741       0.85780333
H       -1.16336733      -1.65552857       0.20795664
H       -0.88721867       1.01367218       1.73111482
14
Frame=12 idx=006055 GeodesicLength=0.6307000013925884 rxn_smarts="[C:1]1([H:7])([H:8])[C@@:2]2([H:9])[C@:3]1([H:10])[C@@:4]1([H:11])[C:5]([H:12])([H:13])[C@@:6]21[H:14]>>[C:1]1([H:7])([H:8])[C@@:2]([C:6](=[C:5]([H:12])[H:13])[H:14])([H:9])[C@@:3]1([C:4][H:11])[H:10]"
C        1.26598043      -0.68904429      -0.49713228
C        0.87008473       0.22446831       0.60616765
C        0.77208791       0.71008176      -0.83140328
C       -0.67524143       0.70106613      -1.06278494
C       -1.47622880      -0.67631054       0.51351208
C       -0.58662989       0.27315935       0.99602333
H        0.67690316      -1.55465180      -0.76931428
H        2.32958259      -0.83211114      -0.63978246
H        1.62167564       0.63763718       1.26438303
H        1.45328779       1.43576385      -1.25169582
H       -1.69177249       1.05208916      -1.12569326
H       -2.50622494      -0.61787684       0.84381734
H       -1.15638527      -1.66985227       0.22302445
H       -0.89711942       1.00558114       1.73087845
14
Frame=13 idx=006055 GeodesicLength=0.6808537967822311 rxn_smarts="[C:1]1([H:7])([H:8])[C@@:2]2([H:9])[C@:3]1([H:10])[C@@:4]1([H:11])[C:5]([H:12])([H:13])[C@@:6]21[H:14]>>[C:1]1([H:7])([H:8])[C@@:2]([C:6](=[C:5]([H:12])[H:13])[H:14])([H:9])[C@@:3]1([C:4][H:11])[H:10]"
C        1.26614025      -0.69040412      -0.49192265
C        0.86572568       0.22907981       0.60258041
C        0.76578229       0.70584694      -0.83966706
C       -0.67894085       0.66555890      -1.07761605
C       -1.47773801      -0.68332760       0.50154832
C       -0.59323231       0.27460001       0.98927156
H        0.68245835      -1.56157010      -0.75761451
H        2.32997666      -0.82730155      -0.63841368
H        1.61512842       0.65407514       1.25570793
H        1.44610868       1.42787761      -1.26697552
H       -1.65621088       1.12006525      -1.08009012
H       -2.50860816      -0.62808900       0.83021254
H       -1.15063108      -1.68264034       0.23912353
H       -0.90595904       0.99622906       1.73385531
14
Frame=14 idx=006055 GeodesicLength=0.7315543559127714 rxn_smarts="[C:1]1([H:7])([H:8])[C@@:2]2([H:9])[C@:3]1([H:10])[C@@:4]1([H:11])[C:5]([H:12])([H:13])[C@@:6]21[H:14]>>[C:1]1([H:7])([H:8])[C@@:2]([C:6](=[C:5]([H:12])[H:13])[H:14])([H:9])[C@@:3]1([C:4][H:11])[H:10]"
C        1.26497422      -0.69087772      -0.48764312
C        0.86135995       0.23339175       0.59943200
C        0.75879666       0.70305611      -0.84682882
C       -0.68339647       0.63407003      -1.08903052
C       -1.47943506      -0.68946142       0.49067874
C       -0.59959050       0.27634275       0.98392245
H        0.68592828      -1.56668283      -0.74786348
H        2.32875435      -0.82206715      -0.63911786
H        1.60918648       0.66887967       1.24737474
H        1.43852302       1.42152986      -1.28044631
H       -1.61452951       1.17632221      -1.04321936
H       -2.51110575      -0.63688285       0.81772524
H       -1.14581254      -1.69381106       0.25577846
H       -0.91365314       0.98619067       1.73923783
14
Frame=15 idx=006055 GeodesicLength=0.7825614352039666 rxn_smarts="[C:1]1([H:7])([H:8])[C@@:2]2([H:9])[C@:3]1([H:10])[C@@:4]1([H:11])[C:5]([H:12])([H:13])[C@@:6]21[H:14]>>[C:1]1([H:7])([H:8])[C@@:2]([C:6](=[C:5]([H:12])[H:13])[H:14])([H:9])[C@@:3]1([C:4][H:11])[H:10]"
C        1.26289840      -0.69072804      -0.48394620
C        0.85713652       0.23769100       0.59658618
C        0.75164245       0.70133120      -0.85330460
C       -0.68810288       0.60660669      -1.09821105
C       -1.48100539      -0.69490897       0.48056820
C       -0.60562646       0.27843387       0.97955047
H        0.68787430      -1.57046066      -0.73944337
H        2.32642184      -0.81698663      -0.64067112
H        1.60378238       0.68277694       1.23928224
H        1.43139210       1.41585582      -1.29280593
H       -1.57038398       1.22219161      -1.01046588
H       -2.51357776      -0.64447222       0.80554461
H       -1.14182680      -1.70344503       0.27151064
H       -0.92062472       0.97611443       1.74580581
14
Frame=16 idx=006055 GeodesicLength=0.8342514717425649 rxn_smarts="[C:1]1([H:7])([H:8])[C@@:2]2([H:9])[C@:3]1([H:10])[C@@:4]1([H:11])[C:5]([H:12])([H:13])[C@@:6]21[H:14]>>[C:1]1([H:7])([H:8])[C@@:2]([C:6](=[C:5]([H:12])[H:13])[H:14])([H:9])[C@@:3]1([C:4][H:11])[H:10]"
C        1.26019705      -0.69015053      -0.48069442
C        0.85304122       0.24172382       0.59411802
C        0.74437045       0.70039902      -0.85905777
C       -0.69305399       0.58178524      -1.10529173
C       -1.48256509      -0.69986068       0.47114474
C       -0.61144789       0.28074037       0.97602818
H        0.68865955      -1.57316037      -0.73231564
H        2.32329123      -0.81178956      -0.64329404
H        1.59885575       0.69557382       1.23157268
H        1.42436634       1.41109058      -1.30383848
H       -1.52425233       1.26101420      -0.98292557
H       -2.51592540      -0.65153518       0.79438349
H       -1.13846195      -1.71192441       0.28703497
H       -0.92707493       0.96609369       1.75313557
