15
Frame=0 idx=006500 GeodesicLength=0.0 rxn_smarts="[O:1]=[C:2]1[N:3]([H:8])[C:4]([H:9])([H:10])[C:5]([H:11])([H:12])[C:6]([H:13])([H:14])[N:7]1[H:15]>>[H:9][H:15].[O:1]=[C:2]=[N:7][C:6]([C:5](/[C:4](=[N:3]/[H:8])[H:10])([H:11])[H:12])([H:13])[H:14]"
O        2.82922085      -0.37327742       0.19579332
C        1.66090395      -0.08696360       0.09531342
N        0.71001918      -1.22207517       0.26668092
C       -0.55779606      -1.05703647      -0.05129983
C       -1.19114739       0.16835375       0.48162153
C       -0.20407278       1.37226125       0.27631385
N        1.04902276       1.01404582      -0.35605609
H        1.15664352      -2.11148130       0.08960368
H       -0.35727037      -0.33043629      -1.64750096
H       -1.13934194      -1.91968309      -0.35776062
H       -1.34252149      -0.00080819       1.55095368
H       -2.16619152       0.33171622       0.02525667
H       -0.01454046       1.83733372       1.24469712
H       -0.68620574       2.12035197      -0.35484828
H        0.25327751       0.25769882      -1.45876846
15
Frame=1 idx=006500 GeodesicLength=0.10928496972351888 rxn_smarts="[O:1]=[C:2]1[N:3]([H:8])[C:4]([H:9])([H:10])[C:5]([H:11])([H:12])[C:6]([H:13])([H:14])[N:7]1[H:15]>>[H:9][H:15].[O:1]=[C:2]=[N:7][C:6]([C:5](/[C:4](=[N:3]/[H:8])[H:10])([H:11])[H:12])([H:13])[H:14]"
O        2.83934168      -0.36399198       0.17556998
C        1.67016269      -0.07844907       0.09542052
N        0.70618155      -1.22959469       0.27570439
C       -0.55987922      -1.05924677      -0.05816333
C       -1.19083107       0.16767388       0.48085477
C       -0.20538107       1.37008832       0.28210420
N        1.04813449       1.01513579      -0.35346695
H        1.14733797      -2.12329492       0.10743883
H       -0.35664909      -0.33066972      -1.66359340
H       -1.14867052      -1.92638398      -0.33822186
H       -1.35122322      -0.00168977       1.54872392
H       -2.16306680       0.33355387       0.01888529
H       -0.01602455       1.83219365       1.25187654
H       -0.68858794       2.12021423      -0.34623924
H        0.26915509       0.27446116      -1.47689368
15
Frame=2 idx=006500 GeodesicLength=0.21827309409264423 rxn_smarts="[O:1]=[C:2]1[N:3]([H:8])[C:4]([H:9])([H:10])[C:5]([H:11])([H:12])[C:6]([H:13])([H:14])[N:7]1[H:15]>>[H:9][H:15].[O:1]=[C:2]=[N:7][C:6]([C:5](/[C:4](=[N:3]/[H:8])[H:10])([H:11])[H:12])([H:13])[H:14]"
O        2.84923911      -0.35458613       0.15547112
C        1.67958165      -0.06973491       0.09547023
N        0.70217194      -1.23730607       0.28485409
C       -0.56192363      -1.06165370      -0.06508243
C       -1.19044031       0.16681885       0.48012908
C       -0.20668723       1.36776214       0.28783457
N        1.04720462       1.01612028      -0.35101325
H        1.13772559      -2.13521963       0.12533143
H       -0.35615111      -0.33099052      -1.67991058
H       -1.15796520      -1.93260178      -0.31826618
H       -1.35986315      -0.00262485       1.54647617
H       -2.15984951       0.33522090       0.01260769
H       -0.01747111       1.82691514       1.25897045
H       -0.69103644       2.11987922      -0.33767004
H        0.28546478       0.29200107      -1.49520234
15
Frame=3 idx=006500 GeodesicLength=0.3270003045181457 rxn_smarts="[O:1]=[C:2]1[N:3]([H:8])[C:4]([H:9])([H:10])[C:5]([H:11])([H:12])[C:6]([H:13])([H:14])[N:7]1[H:15]>>[H:9][H:15].[O:1]=[C:2]=[N:7][C:6]([C:5](/[C:4](=[N:3]/[H:8])[H:10])([H:11])[H:12])([H:13])[H:14]"
O        2.85892589      -0.34504073       0.13551459
C        1.68916484      -0.06081170       0.09545688
N        0.69798691      -1.24522262       0.29414604
C       -0.56393198      -1.06427147      -0.07201333
C       -1.18997214       0.16578694       0.47946256
C       -0.20798880       1.36527791       0.29349851
N        1.04622580       1.01698358      -0.34871192
H        1.12778497      -2.14727243       0.14329794
H       -0.35582319      -0.33144617      -1.69643772
H       -1.16719986      -1.93829783      -0.29800978
H       -1.36843416      -0.00359568       1.54423202
H       -2.15654027       0.33670736       0.00644467
H       -0.01886736       1.82150758       1.26596374
H       -0.69355471       2.11933337      -0.32915266
H        0.30222405       0.31036190      -1.51369155
15
Frame=4 idx=006500 GeodesicLength=0.4355881841634029 rxn_smarts="[O:1]=[C:2]1[N:3]([H:8])[C:4]([H:9])([H:10])[C:5]([H:11])([H:12])[C:6]([H:13])([H:14])[N:7]1[H:15]>>[H:9][H:15].[O:1]=[C:2]=[N:7][C:6]([C:5](/[C:4](=[N:3]/[H:8])[H:10])([H:11])[H:12])([H:13])[H:14]"
O        2.86841835      -0.33533674       0.11572493
C        1.69891782      -0.05167197       0.09537345
N        0.69362451      -1.25335856       0.30359451
C       -0.56590731      -1.06711416      -0.07890930
C       -1.18942356       0.16457732       0.47887283
C       -0.20928256       1.36263145       0.29908759
N        1.04519540       1.01771215      -0.34657325
H        1.11749782      -2.15947569       0.16134977
H       -0.35574157      -0.33210326      -1.71316063
H       -1.17634981      -1.94344388      -0.27756780
H       -1.37692933      -0.00458229       1.54201304
H       -2.15313988       0.33800365       0.00041624
H       -0.02020304       1.81598339       1.27283947
H       -0.69614386       2.11856337      -0.32070321
H        0.31946701       0.32961521      -1.53235765
15
Frame=5 idx=006500 GeodesicLength=0.544040533275175 rxn_smarts="[O:1]=[C:2]1[N:3]([H:8])[C:4]([H:9])([H:10])[C:5]([H:11])([H:12])[C:6]([H:13])([H:14])[N:7]1[H:15]>>[H:9][H:15].[O:1]=[C:2]=[N:7][C:6]([C:5](/[C:4](=[N:3]/[H:8])[H:10])([H:11])[H:12])([H:13])[H:14]"
O        2.87773874      -0.32545529       0.09611735
C        1.70884518      -0.04230438       0.09521107
N        0.68908287      -1.26172662       0.31321890
C       -0.56785223      -1.07019263      -0.08572294
C       -1.18879340       0.16319117       0.47837916
C       -0.21056471       1.35981998       0.30459579
N        1.04410606       1.01829098      -0.34461406
H        1.10684523      -2.17185102       0.17950912
H       -0.35596129      -0.33301590      -1.73006254
H       -1.18539837      -1.94802527      -0.25706756
H       -1.38534359      -0.00556470       1.53984203
H       -2.14964982       0.33910192      -0.00545798
H       -0.02146535       1.81035552       1.27958344
H       -0.69880486       2.11755898      -0.31233368
H        0.33721554       0.34981726      -1.55119810
15
Frame=6 idx=006500 GeodesicLength=0.6524923073035295 rxn_smarts="[O:1]=[C:2]1[N:3]([H:8])[C:4]([H:9])([H:10])[C:5]([H:11])([H:12])[C:6]([H:13])([H:14])[N:7]1[H:15]>>[H:9][H:15].[O:1]=[C:2]=[N:7][C:6]([C:5](/[C:4](=[N:3]/[H:8])[H:10])([H:11])[H:12])([H:13])[H:14]"
O        2.88690356      -0.31538393       0.07669038
C        1.71895475      -0.03269945       0.09496582
N        0.68436169      -1.27034054       0.32303730
C       -0.56976768      -1.07351753      -0.09240941
C       -1.18808010       0.16162870       0.47799529
C       -0.21183131       1.35684021       0.31001673
N        1.04295820       1.01870771      -0.34283871
H        1.09580610      -2.18441670       0.19780671
H       -0.35657431      -0.33426743      -1.74713218
H       -1.19432814      -1.95204093      -0.23661793
H       -1.39367541      -0.00652492       1.53773555
H       -2.14607017       0.33999384      -0.01116652
H       -0.02264570       1.80463527       1.28618259
H       -0.70153498       2.11630992      -0.30405761
H        0.35552350       0.37107578      -1.57020800
15
Frame=7 idx=006500 GeodesicLength=0.7610032240138408 rxn_smarts="[O:1]=[C:2]1[N:3]([H:8])[C:4]([H:9])([H:10])[C:5]([H:11])([H:12])[C:6]([H:13])([H:14])[N:7]1[H:15]>>[H:9][H:15].[O:1]=[C:2]=[N:7][C:6]([C:5](/[C:4](=[N:3]/[H:8])[H:10])([H:11])[H:12])([H:13])[H:14]"
O        2.89593526      -0.30511039       0.05745046
C        1.72925200      -0.02284700       0.09462764
N        0.67945910      -1.27921483       0.33307025
C       -0.57165643      -1.07709922      -0.09892299
C       -1.18728351       0.15989088       0.47773704
C       -0.21307844       1.35368880       0.31534255
N        1.04174854       1.01894705      -0.34125767
H        1.08436364      -2.19719613       0.21626797
H       -0.35766078      -0.33593567      -1.76435951
H       -1.20312966      -1.95549653      -0.21632381
H       -1.40192273      -0.00744400       1.53571245
H       -2.14240270       0.34067112      -0.01669549
H       -0.02373418       1.79883547       1.29262166
H       -0.70433270       2.11480603      -0.29589025
H        0.37444259       0.39350441      -1.58938031
15
Frame=8 idx=006500 GeodesicLength=0.8696977888243719 rxn_smarts="[O:1]=[C:2]1[N:3]([H:8])[C:4]([H:9])([H:10])[C:5]([H:11])([H:12])[C:6]([H:13])([H:14])[N:7]1[H:15]>>[H:9][H:15].[O:1]=[C:2]=[N:7][C:6]([C:5](/[C:4](=[N:3]/[H:8])[H:10])([H:11])[H:12])([H:13])[H:14]"
O        2.90485449      -0.29462343       0.03839262
C        1.73974612      -0.01273457       0.09419030
N        0.67437720      -1.28836533       0.34333444
C       -0.57351877      -1.08094571      -0.10522451
C       -1.18640220       0.15797861       0.47761411
C       -0.21430029       1.35036239       0.32056597
N        1.04048095       1.01899691      -0.33987133
H        1.07249716      -2.21021473       0.23492767
H       -0.35932751      -0.33812810      -1.78173911
H       -1.21180344      -1.95841778      -0.19626828
H       -1.41008629      -0.00830640       1.53378396
H       -2.13864632       0.34112724      -0.02203941
H       -0.02472425       1.79296743       1.29888831
H       -0.70719067       2.11303848      -0.28784652
H        0.39404382       0.41726497      -1.60870822
15
Frame=9 idx=006500 GeodesicLength=0.9796279736288138 rxn_smarts="[O:1]=[C:2]1[N:3]([H:8])[C:4]([H:9])([H:10])[C:5]([H:11])([H:12])[C:6]([H:13])([H:14])[N:7]1[H:15]>>[H:9][H:15].[O:1]=[C:2]=[N:7][C:6]([C:5](/[C:4](=[N:3]/[H:8])[H:10])([H:11])[H:12])([H:13])[H:14]"
O        2.91372077      -0.28394832       0.01955452
C        1.75047928      -0.00237417       0.09362811
N        0.66912598      -1.29782765       0.35382389
C       -0.57535386      -1.08507776      -0.11125924
C       -1.18542929       0.15588994       0.47761580
C       -0.21549813       1.34685224       0.32566246
N        1.03921136       1.01887759      -0.33857944
H        1.06020169      -2.22350690       0.25376856
H       -0.36203951      -0.34113114      -1.79928137
H       -1.22034853      -1.96087727      -0.17642889
H       -1.41817072      -0.00908943       1.53193775
H       -2.13479484       0.34135232      -0.02721361
H       -0.02566921       1.78705898       1.30495210
H       -0.71009446       2.11098386      -0.27998431
H        0.41465947       0.44281771      -1.62819632
15
Frame=10 idx=006500 GeodesicLength=1.0897339379649797 rxn_smarts="[O:1]=[C:2]1[N:3]([H:8])[C:4]([H:9])([H:10])[C:5]([H:11])([H:12])[C:6]([H:13])([H:14])[N:7]1[H:15]>>[H:9][H:15].[O:1]=[C:2]=[N:7][C:6]([C:5](/[C:4](=[N:3]/[H:8])[H:10])([H:11])[H:12])([H:13])[H:14]"
O        2.92251542      -0.27305041       0.00086580
C        1.76142824       0.00826729       0.09294480
N        0.66369309      -1.30759771       0.36459246
C       -0.57715985      -1.08949502      -0.11701263
C       -1.18437077       0.15362476       0.47776229
C       -0.21665997       1.34315664       0.33063735
N        1.03788623       1.01853515      -0.33749660
H        1.04743993      -2.23708244       0.27289353
H       -0.36557052      -0.34487158      -1.81697189
H       -1.22877484      -1.96287571      -0.15694837
H       -1.42617718      -0.00978955       1.53019624
H       -2.13085175       0.34133795      -0.03220704
H       -0.02650081       1.78109546       1.31081524
H       -0.71304661       2.10864846      -0.27227574
H        0.43614937       0.47009670      -1.64779543
15
Frame=11 idx=006500 GeodesicLength=1.1999931860719018 rxn_smarts="[O:1]=[C:2]1[N:3]([H:8])[C:4]([H:9])([H:10])[C:5]([H:11])([H:12])[C:6]([H:13])([H:14])[N:7]1[H:15]>>[H:9][H:15].[O:1]=[C:2]=[N:7][C:6]([C:5](/[C:4](=[N:3]/[H:8])[H:10])([H:11])[H:12])([H:13])[H:14]"
O        2.93126069      -0.26192444      -0.01768082
C        1.77260339       0.01919904       0.09212295
N        0.65807640      -1.31769145       0.37565815
C       -0.57893392      -1.09420746      -0.12245708
C       -1.18322508       0.15118004       0.47805707
C       -0.21778090       1.33926978       0.33547936
N        1.03650807       1.01795269      -0.33662788
H        1.03418432      -2.25096010       0.29234880
H       -0.37005605      -0.34945895      -1.83480979
H       -1.23709380      -1.96445743      -0.13786915
H       -1.43410337      -0.01039834       1.52856344
H       -2.12681594       0.34107333      -0.03701979
H       -0.02721252       1.77508311       1.31646171
H       -0.71604162       2.10602212      -0.26473906
H        0.45863034       0.49931806      -1.66748792
15
Frame=12 idx=006500 GeodesicLength=1.3103116131891923 rxn_smarts="[O:1]=[C:2]1[N:3]([H:8])[C:4]([H:9])([H:10])[C:5]([H:11])([H:12])[C:6]([H:13])([H:14])[N:7]1[H:15]>>[H:9][H:15].[O:1]=[C:2]=[N:7][C:6]([C:5](/[C:4](=[N:3]/[H:8])[H:10])([H:11])[H:12])([H:13])[H:14]"
O        2.93997140      -0.25057295      -0.03611811
C        1.78401322       0.03043026       0.09114160
N        0.65227078      -1.32812511       0.38705297
C       -0.58067324      -1.09922908      -0.12756421
C       -1.18199323       0.14855131       0.47849808
C       -0.21885506       1.33518307       0.34017638
N        1.03507560       1.01710561      -0.33598851
H        1.02041057      -2.26515929       0.31219216
H       -0.37560748      -0.35499806      -1.85280133
H       -1.24532001      -1.96567665      -0.11920873
H       -1.44195737      -0.01090626       1.52703619
H       -2.12268505       0.34054595      -0.04166535
H       -0.02779331       1.76902044       1.32187638
H       -0.71907229       2.10309656      -0.25738777
H        0.48221548       0.53073422      -1.68723974
15
Frame=13 idx=006500 GeodesicLength=1.4206176573644265 rxn_smarts="[O:1]=[C:2]1[N:3]([H:8])[C:4]([H:9])([H:10])[C:5]([H:11])([H:12])[C:6]([H:13])([H:14])[N:7]1[H:15]>>[H:9][H:15].[O:1]=[C:2]=[N:7][C:6]([C:5](/[C:4](=[N:3]/[H:8])[H:10])([H:11])[H:12])([H:13])[H:14]"
O        2.94866707      -0.23899718      -0.05446374
C        1.79566642       0.04196689       0.08997554
N        0.64627355      -1.33891666       0.39879841
C       -0.58237566      -1.10457496      -0.13231170
C       -1.18067411       0.14573290       0.47908059
C       -0.21987578       1.33088637       0.34471174
N        1.03359089       1.01596900      -0.33559091
H        1.00609265      -2.27970200       0.33247761
H       -0.38237568      -0.36162770      -1.87095206
H       -1.25347455      -1.96658752      -0.10096779
H       -1.44974157      -0.01130612       1.52560863
H       -2.11845584       0.33974286      -0.04615537
H       -0.02823528       1.76290754       1.32703892
H       -0.72212970       2.09985912      -0.25024386
H        0.50704760       0.56464745      -1.70700601
15
Frame=14 idx=006500 GeodesicLength=1.5308170400598742 rxn_smarts="[O:1]=[C:2]1[N:3]([H:8])[C:4]([H:9])([H:10])[C:5]([H:11])([H:12])[C:6]([H:13])([H:14])[N:7]1[H:15]>>[H:9][H:15].[O:1]=[C:2]=[N:7][C:6]([C:5](/[C:4](=[N:3]/[H:8])[H:10])([H:11])[H:12])([H:13])[H:14]"
O        2.95735833      -0.22721293      -0.07276708
C        1.80757269       0.05381715       0.08859609
N        0.64007905      -1.35008565       0.41092983
C       -0.58403730      -1.11026667      -0.13667600
C       -1.17926773       0.14271535       0.47979433
C       -0.22083576       1.32636545       0.34906545
N        1.03205293       1.01450893      -0.33545815
H        0.99119711      -2.29460780       0.35328688
H       -0.39050769      -0.36949720      -1.88927127
H       -1.26157412      -1.96724988      -0.08313259
H       -1.45746569      -0.01159118       1.52426764
H       -2.11412362       0.33864568      -0.05051376
H       -0.02852502       1.75673658       1.33192656
H       -0.72520559       2.09629690      -0.24332719
H        0.53328242       0.60142527      -1.72672073
15
Frame=15 idx=006500 GeodesicLength=1.6407736349813076 rxn_smarts="[O:1]=[C:2]1[N:3]([H:8])[C:4]([H:9])([H:10])[C:5]([H:11])([H:12])[C:6]([H:13])([H:14])[N:7]1[H:15]>>[H:9][H:15].[O:1]=[C:2]=[N:7][C:6]([C:5](/[C:4](=[N:3]/[H:8])[H:10])([H:11])[H:12])([H:13])[H:14]"
O        2.96605551      -0.21523827      -0.09107707
C        1.81973982       0.06598534       0.08696563
N        0.63367889      -1.36165306       0.42348760
C       -0.58565500      -1.11633031      -0.14063222
C       -1.17777448       0.13948756       0.48062647
C       -0.22172713       1.32160303       0.35321160
N        1.03045770       1.01268369      -0.33562424
H        0.97569244      -2.30989727       0.37470109
H       -0.40015596      -0.37876786      -1.90776761
H       -1.26964042      -1.96772426      -0.06567514
H       -1.46513986      -0.01175253       1.52299736
H       -2.10968320       0.33723354      -0.05476730
H       -0.02864575       1.75049740       1.33650928
H       -0.72829162       2.09239339      -0.23666315
H        0.56108906       0.64147961      -1.74629230
15
Frame=16 idx=006500 GeodesicLength=1.7503618396101552 rxn_smarts="[O:1]=[C:2]1[N:3]([H:8])[C:4]([H:9])([H:10])[C:5]([H:11])([H:12])[C:6]([H:13])([H:14])[N:7]1[H:15]>>[H:9][H:15].[O:1]=[C:2]=[N:7][C:6]([C:5](/[C:4](=[N:3]/[H:8])[H:10])([H:11])[H:12])([H:13])[H:14]"
O        2.97476429      -0.20309944      -0.10945654
C        1.83217457       0.07847295       0.08503774
N        0.62706387      -1.37364214       0.43651364
C       -0.58722730      -1.12279998      -0.14415325
C       -1.17619516       0.13603458       0.48156055
C       -0.22254169       1.31657698       0.35711553
N        1.02879688       1.01044014      -0.33613804
H        0.95953959      -2.32559083       0.39682123
H       -0.41149044      -0.38962712      -1.92645552
H       -1.27769551      -1.96807319      -0.04855157
H       -1.47277366      -0.01178032       1.52177850
H       -2.10512959       0.33547949      -0.05894712
H       -0.02857542       1.74417612       1.34074699
H       -0.73138100       2.08812736      -0.23028415
H        0.59067057       0.68530539      -1.76558799
