10
Frame=0 idx=006146 GeodesicLength=0.0 rxn_smarts="[N:1]([c:2]1[c:3]([H:9])[c:4]([H:10])[n:5][o:6]1)([H:7])[H:8]>>[N:1]([C:2](=[C:3]=[C:4]([N:5]=[O:6])[H:10])[H:9])([H:7])[H:8]"
N        1.75073693       0.18711923      -0.37829915
C        0.37650800      -0.02524039      -0.27661242
C       -0.67632160       0.93204130      -0.46073119
C       -1.69271003       0.27433412       0.32680323
N       -1.30623257      -0.80436201       0.95239159
O       -0.02569631      -1.02653849       0.68025568
H        2.29710836      -0.65356689      -0.27536788
H        2.07775390       0.91715726       0.23354413
H       -0.08542135      -0.39526971      -1.26600941
H       -2.71572533       0.59432558       0.46402542
10
Frame=1 idx=006146 GeodesicLength=0.10910917387530536 rxn_smarts="[N:1]([c:2]1[c:3]([H:9])[c:4]([H:10])[n:5][o:6]1)([H:7])[H:8]>>[N:1]([C:2](=[C:3]=[C:4]([N:5]=[O:6])[H:10])[H:9])([H:7])[H:8]"
N        1.75582589       0.18623208      -0.37770596
C        0.38321449      -0.02815391      -0.27819934
C       -0.67303782       0.91631020      -0.45591218
C       -1.69001860       0.28004521       0.33896921
N       -1.31506850      -0.80546807       0.96933502
O       -0.04008944      -1.04431190       0.69126225
H        2.30685367      -0.65106360      -0.27151891
H        2.08067078       0.92628127       0.22289580
H       -0.09033191      -0.37411423      -1.28928697
H       -2.71801856       0.59424295       0.45016109
10
Frame=2 idx=006146 GeodesicLength=0.21821314003119263 rxn_smarts="[N:1]([c:2]1[c:3]([H:9])[c:4]([H:10])[n:5][o:6]1)([H:7])[H:8]>>[N:1]([C:2](=[C:3]=[C:4]([N:5]=[O:6])[H:10])[H:9])([H:7])[H:8]"
N        1.76089683       0.18522329      -0.37706036
C        0.38992290      -0.03158322      -0.28018753
C       -0.66973150       0.90010273      -0.45090585
C       -1.68768537       0.28483454       0.34998830
N       -1.32418985      -0.80649519       0.98660815
O       -0.05493896      -1.06210317       0.70318225
H        2.31674217      -0.64846790      -0.26720004
H        2.08324758       0.93555010       0.21174307
H       -0.09484495      -0.35164950      -1.31332044
H       -2.71941883       0.59458830       0.43715246
10
Frame=3 idx=006146 GeodesicLength=0.3272940037222877 rxn_smarts="[N:1]([c:2]1[c:3]([H:9])[c:4]([H:10])[n:5][o:6]1)([H:7])[H:8]>>[N:1]([C:2](=[C:3]=[C:4]([N:5]=[O:6])[H:10])[H:9])([H:7])[H:8]"
N        1.76595701       0.18410205      -0.37634110
C        0.39664925      -0.03559419      -0.28263346
C       -0.66641668       0.88328941      -0.44586684
C       -1.68573686       0.28860075       0.35974089
N       -1.33360422      -0.80745998       1.00418933
O       -0.07021366      -1.07989052       0.71612047
H        2.32681082      -0.64574384      -0.26242285
H        2.08542901       0.94493255       0.20013701
H       -0.09886554      -0.32776529      -1.33815134
H       -2.72000912       0.59552906       0.42522788
10
Frame=4 idx=006146 GeodesicLength=0.4363412207020747 rxn_smarts="[N:1]([c:2]1[c:3]([H:9])[c:4]([H:10])[n:5][o:6]1)([H:7])[H:8]>>[N:1]([C:2](=[C:3]=[C:4]([N:5]=[O:6])[H:10])[H:9])([H:7])[H:8]"
N        1.77099751       0.18287910      -0.37556008
C        0.40340284      -0.04024544      -0.28557796
C       -0.66308293       0.86577646      -0.44089470
C       -1.68414187       0.29132617       0.36823460
N       -1.34332044      -0.80837987       1.02207189
O       -0.08584972      -1.09758999       0.73027857
H        2.33705417      -0.64288211      -0.25732126
H        2.08718281       0.95434012       0.18816638
H       -0.10234122      -0.30230972      -1.36377611
H       -2.71990114       0.59708529       0.41437867
10
Frame=5 idx=006146 GeodesicLength=0.5453725886568186 rxn_smarts="[N:1]([c:2]1[c:3]([H:9])[c:4]([H:10])[n:5][o:6]1)([H:7])[H:8]>>[N:1]([C:2](=[C:3]=[C:4]([N:5]=[O:6])[H:10])[H:9])([H:7])[H:8]"
N        1.77603245       0.18150228      -0.37475777
C        0.41019456      -0.04558235      -0.28904581
C       -0.65970235       0.84754456      -0.43594435
C       -1.68284535       0.29309628       0.37565235
N       -1.35332887      -0.80919760       1.04035906
O       -0.10180991      -1.11514736       0.74582586
H        2.34748268      -0.63993823      -0.25200440
H        2.08855587       0.96367746       0.17579298
H       -0.10529085      -0.27497793      -1.39015449
H       -2.71928823       0.59902291       0.40427656
10
Frame=6 idx=006146 GeodesicLength=0.6543725912048968 rxn_smarts="[N:1]([c:2]1[c:3]([H:9])[c:4]([H:10])[n:5][o:6]1)([H:7])[H:8]>>[N:1]([C:2](=[C:3]=[C:4]([N:5]=[O:6])[H:10])[H:9])([H:7])[H:8]"
N        1.78104755       0.17992998      -0.37396672
C        0.41702274      -0.05167106      -0.29308159
C       -0.65625479       0.82853733      -0.43101428
C       -1.68179267       0.29396053       0.38211701
N       -1.36361465      -0.80985523       1.05913825
O       -0.11804295      -1.13248545       0.76295678
H        2.35808164      -0.63695627      -0.24659904
H        2.08954006       0.97284049       0.16302548
H       -0.10770682      -0.24545237      -1.41723011
H       -2.71828012       0.60115206       0.39465422
10
Frame=7 idx=006146 GeodesicLength=0.7633393950162788 rxn_smarts="[N:1]([c:2]1[c:3]([H:9])[c:4]([H:10])[n:5][o:6]1)([H:7])[H:8]>>[N:1]([C:2](=[C:3]=[C:4]([N:5]=[O:6])[H:10])[H:9])([H:7])[H:8]"
N        1.78602732       0.17812006      -0.37321782
C        0.42388355      -0.05859560      -0.29775142
C       -0.65273801       0.80867003      -0.42613094
C       -1.68094440       0.29394757       0.38772267
N       -1.37417039      -0.81029771       1.07848497
O       -0.13449625      -1.14950957       0.78188420
H        2.36884930      -0.63397642      -0.24123340
H        2.09011331       0.98172652       0.14989140
H       -0.10957187      -0.21339329      -1.44493140
H       -2.71695255       0.60330841       0.38528175
10
Frame=8 idx=006146 GeodesicLength=0.8722827851350128 rxn_smarts="[N:1]([c:2]1[c:3]([H:9])[c:4]([H:10])[n:5][o:6]1)([H:7])[H:8]>>[N:1]([C:2](=[C:3]=[C:4]([N:5]=[O:6])[H:10])[H:9])([H:7])[H:8]"
N        1.79094165       0.17603831      -0.37253439
C        0.43076628      -0.06646736      -0.30315217
C       -0.64916208       0.78780666      -0.42138864
C       -1.68027009       0.29304635       0.39250121
N       -1.38499481      -0.81047391       1.09846887
O       -0.15110302      -1.16610772       0.80284115
H        2.37977860      -0.63102949      -0.23604327
H        2.09020600       0.99023862       0.13646587
H       -0.11082207      -0.17844745      -1.47318457
H       -2.71534044       0.60539599       0.37602594
10
Frame=9 idx=006146 GeodesicLength=0.9811826729155492 rxn_smarts="[N:1]([c:2]1[c:3]([H:9])[c:4]([H:10])[n:5][o:6]1)([H:7])[H:8]>>[N:1]([C:2](=[C:3]=[C:4]([N:5]=[O:6])[H:10])[H:9])([H:7])[H:8]"
N        1.79576319       0.17360356      -0.37195122
C        0.43765443      -0.07539851      -0.30939402
C       -0.64553325       0.76583306      -0.41681395
C       -1.67973736       0.29125951       0.39652372
N       -1.39602529      -0.81021624       1.11927091
O       -0.16782522      -1.18218526       0.82599904
H        2.39085489      -0.62818404      -0.23113166
H        2.08978330       0.99825241       0.12275057
H       -0.11142173      -0.14011131      -1.50183706
H       -2.71351296       0.60714683       0.36658367
10
Frame=10 idx=006146 GeodesicLength=1.0900579760229852 rxn_smarts="[N:1]([c:2]1[c:3]([H:9])[c:4]([H:10])[n:5][o:6]1)([H:7])[H:8]>>[N:1]([C:2](=[C:3]=[C:4]([N:5]=[O:6])[H:10])[H:9])([H:7])[H:8]"
N        1.80044713       0.17077748      -0.37148742
C        0.44452978      -0.08554102      -0.31663642
C       -0.64189290       0.74252826      -0.41259507
C       -1.67932191       0.28854013       0.39977207
N       -1.40723536      -0.80941267       1.14099572
O       -0.18460231      -1.19760396       0.85157640
H        2.40207067      -0.62546610      -0.22665179
H        2.08873002       1.00566181       0.10887811
H       -0.11125585      -0.09796082      -1.53072462
H       -2.71146926       0.60847688       0.35687302
10
Frame=11 idx=006146 GeodesicLength=1.1990886321629026 rxn_smarts="[N:1]([c:2]1[c:3]([H:9])[c:4]([H:10])[n:5][o:6]1)([H:7])[H:8]>>[N:1]([C:2](=[C:3]=[C:4]([N:5]=[O:6])[H:10])[H:9])([H:7])[H:8]"
N        1.80493995       0.16751255      -0.37116174
C        0.45136719      -0.09707437      -0.32508255
C       -0.63830073       0.71765931      -0.40897655
C       -1.67899092       0.28484765       0.40222524
N       -1.41856301      -0.80795673       1.16380778
O       -0.20137735      -1.21227282       0.87979245
H        2.41341856      -0.62293490      -0.22271085
H        2.08692212       1.01241830       0.09498306
H       -0.11022116      -0.05151394      -1.55967327
H       -2.70919466       0.60931495       0.34679643
10
Frame=12 idx=006146 GeodesicLength=1.3076075938116947 rxn_smarts="[N:1]([c:2]1[c:3]([H:9])[c:4]([H:10])[n:5][o:6]1)([H:7])[H:8]>>[N:1]([C:2](=[C:3]=[C:4]([N:5]=[O:6])[H:10])[H:9])([H:7])[H:8]"
N        1.80916725       0.16364873      -0.37095020
C        0.45814592      -0.11014422      -0.33494582
C       -0.63486377       0.69088059      -0.40608103
C       -1.67872286       0.28012946       0.40387421
N       -1.42960978      -0.80504951       1.18812755
O       -0.21816971      -1.22607941       0.91031392
H        2.42489312      -0.62059719      -0.21940753
H        2.08413344       1.01815506       0.08113156
H       -0.10816149      -0.00007094      -1.58806990
H       -2.70681214       0.60912743       0.33600723
10
Frame=13 idx=006146 GeodesicLength=1.4162869727197704 rxn_smarts="[N:1]([c:2]1[c:3]([H:9])[c:4]([H:10])[n:5][o:6]1)([H:7])[H:8]>>[N:1]([C:2](=[C:3]=[C:4]([N:5]=[O:6])[H:10])[H:9])([H:7])[H:8]"
N        1.81300061       0.15929173      -0.37090107
C        0.46483535      -0.12499747      -0.34652677
C       -0.63170492       0.66173988      -0.40459461
C       -1.67837359       0.27438583       0.40466213
N       -1.44046076      -0.80091014       1.21389698
O       -0.23488273      -1.23889548       0.94360217
H        2.43641944      -0.61845034      -0.21700145
H        2.08009971       1.02300104       0.06781117
H       -0.10486775       0.05655599      -1.61570672
H       -2.70406536       0.60827897       0.32475818
10
Frame=14 idx=006146 GeodesicLength=1.5249374919724321 rxn_smarts="[N:1]([c:2]1[c:3]([H:9])[c:4]([H:10])[n:5][o:6]1)([H:7])[H:8]>>[N:1]([C:2](=[C:3]=[C:4]([N:5]=[O:6])[H:10])[H:9])([H:7])[H:8]"
N        1.81638049       0.15436725      -0.37097731
C        0.47144576      -0.14186030      -0.36017625
C       -0.62903523       0.62964601      -0.40503089
C       -1.67786934       0.26762062       0.40459540
N       -1.45074044      -0.79484833       1.24148032
O       -0.25162763      -1.25081575       0.97921366
H        2.44805662      -0.61641185      -0.21541771
H        2.07451814       1.02684010       0.05517804
H       -0.10016780       0.11884475      -1.64190933
H       -2.70096057       0.60661751       0.31304407
10
Frame=15 idx=006146 GeodesicLength=1.6335461828622277 rxn_smarts="[N:1]([c:2]1[c:3]([H:9])[c:4]([H:10])[n:5][o:6]1)([H:7])[H:8]>>[N:1]([C:2](=[C:3]=[C:4]([N:5]=[O:6])[H:10])[H:9])([H:7])[H:8]"
N        1.81917936       0.14895468      -0.37112908
C        0.47802461      -0.16101544      -0.37628454
C       -0.62714098       0.59371656      -0.40826938
C       -1.67698379       0.25994420       0.40370471
N       -1.46017495      -0.78646895       1.27087860
O       -0.26851033      -1.26201092       1.01672321
H        2.45985237      -0.61421886      -0.21454589
H        2.06687098       1.02973963       0.04357224
H       -0.09389581       0.18680717      -1.66591602
H       -2.69722147       0.60455194       0.30126616
10
Frame=16 idx=006146 GeodesicLength=1.7420089373934597 rxn_smarts="[N:1]([c:2]1[c:3]([H:9])[c:4]([H:10])[n:5][o:6]1)([H:7])[H:8]>>[N:1]([C:2](=[C:3]=[C:4]([N:5]=[O:6])[H:10])[H:9])([H:7])[H:8]"
N        1.82117989       0.14321509      -0.37126206
C        0.48466769      -0.18281859      -0.39530763
C       -0.62637416       0.55274209      -0.41541587
C       -1.67531415       0.25159070       0.40203415
N       -1.46822825      -0.77512043       1.30213413
O       -0.28575951      -1.27293162       1.05533033
H        2.47182294      -0.61142899      -0.21415212
H        2.05635861       1.03183285       0.03348104
H       -0.08599894       0.26020580      -1.68675579
H       -2.69235411       0.60271311       0.28991381
