16
Frame=0 idx=001214 GeodesicLength=0.0 rxn_smarts="[C:1]([C:2]([C@@:3]([C:4]([H:13])([H:14])[H:15])([C:5](=[O:6])[H:16])[H:12])([H:10])[H:11])([H:7])([H:8])[H:9]>>[C:1]([C:2]([O:6]/[C:5](=[C:3](\[C:4]([H:13])([H:14])[H:15])[H:12])[H:16])([H:10])[H:11])([H:7])([H:8])[H:9]"
C        2.18484361      -0.15239545      -0.16672141
C        0.93447232      -0.41376992       0.56307929
C       -1.20456630       0.09698886      -0.71081825
C       -1.86538750      -0.55596909       0.47738681
C       -0.55437787       1.32000360      -0.64133858
O        0.27002348       1.66193742       0.24411270
H        2.46003436       0.89936125      -0.11232836
H        2.97579043      -0.72810177       0.33453055
H        2.13250277      -0.47476318      -1.20479307
H        0.39788729      -1.32181681       0.33814106
H        0.86637017      -0.08152566       1.58815673
H       -1.66946020      -0.12890636      -1.66843106
H       -1.57720754      -0.07138034       1.41154440
H       -2.95400452      -0.49542306       0.39331091
H       -1.62266276      -1.62285628       0.57394581
H       -0.77425779       2.06861683      -1.41977760
16
Frame=1 idx=001214 GeodesicLength=0.0619009618962883 rxn_smarts="[C:1]([C:2]([C@@:3]([C:4]([H:13])([H:14])[H:15])([C:5](=[O:6])[H:16])[H:12])([H:10])[H:11])([H:7])([H:8])[H:9]>>[C:1]([C:2]([O:6]/[C:5](=[C:3](\[C:4]([H:13])([H:14])[H:15])[H:12])[H:16])([H:10])[H:11])([H:7])([H:8])[H:9]"
C        2.19310997      -0.15480356      -0.16659224
C        0.92575880      -0.39628396       0.54585124
C       -1.19194486       0.08944004      -0.70123078
C       -1.87172949      -0.55736935       0.47975957
C       -0.56825046       1.32803923      -0.63409084
O        0.28359174       1.66690128       0.22718259
H        2.48082395       0.89378813      -0.11401645
H        2.97155448      -0.73648804       0.34614591
H        2.15090199      -0.47974962      -1.20454538
H        0.41098230      -1.32198779       0.33725700
H        0.85643362      -0.07195602       1.57422076
H       -1.64583491      -0.14246636      -1.66292408
H       -1.57568794      -0.09033099       1.42016940
H       -2.95847069      -0.47264324       0.39394551
H       -1.64842824      -1.62909212       0.56481206
H       -0.81281025       2.07500238      -1.40594426
16
Frame=2 idx=001214 GeodesicLength=0.12350792372033567 rxn_smarts="[C:1]([C:2]([C@@:3]([C:4]([H:13])([H:14])[H:15])([C:5](=[O:6])[H:16])[H:12])([H:10])[H:11])([H:7])([H:8])[H:9]>>[C:1]([C:2]([O:6]/[C:5](=[C:3](\[C:4]([H:13])([H:14])[H:15])[H:12])[H:16])([H:10])[H:11])([H:7])([H:8])[H:9]"
C        2.20143480      -0.15706479      -0.16600935
C        0.91741365      -0.37903678       0.52832484
C       -1.18015617       0.08237874      -0.69145729
C       -1.87801333      -0.55894937       0.48213407
C       -0.58213561       1.33550276      -0.62686609
O        0.29693890       1.67166573       0.20875186
H        2.50158977       0.88818796      -0.11460451
H        2.96718126      -0.74461716       0.35800974
H        2.16961296      -0.48430032      -1.20383761
H        0.42438651      -1.32137919       0.33646255
H        0.84647861      -0.06201808       1.55974005
H       -1.62391867      -0.15470462      -1.65685308
H       -1.57349594      -0.11071814       1.42876645
H       -2.96238759      -0.44951752       0.39584936
H       -1.67486764      -1.63523997       0.55431205
H       -0.85006152       2.07981077      -1.39272305
16
Frame=3 idx=001214 GeodesicLength=0.18475890630791492 rxn_smarts="[C:1]([C:2]([C@@:3]([C:4]([H:13])([H:14])[H:15])([C:5](=[O:6])[H:16])[H:12])([H:10])[H:11])([H:7])([H:8])[H:9]>>[C:1]([C:2]([O:6]/[C:5](=[C:3](\[C:4]([H:13])([H:14])[H:15])[H:12])[H:16])([H:10])[H:11])([H:7])([H:8])[H:9]"
C        2.20971704      -0.15914801      -0.16502488
C        0.90942579      -0.36206987       0.51058891
C       -1.16909499       0.07573451      -0.68153051
C       -1.88422476      -0.56068956       0.48451346
C       -0.59588438       1.34238479      -0.61965983
O        0.30999024       1.67617184       0.18898084
H        2.52217250       0.88261226      -0.11417255
H        2.96266000      -0.75242496       0.36997925
H        2.18844617      -0.48838513      -1.20271244
H        0.43805032      -1.32004493       0.33583503
H        0.83654945      -0.05174036       1.54481158
H       -1.60355382      -0.16575918      -1.65030165
H       -1.57065449      -0.13254094       1.43726658
H       -2.96570555      -0.42604774       0.39902904
H       -1.70202501      -1.64119838       0.54252099
H       -0.88586851       2.08314566      -1.38012382
16
Frame=4 idx=001214 GeodesicLength=0.24559932375236052 rxn_smarts="[C:1]([C:2]([C@@:3]([C:4]([H:13])([H:14])[H:15])([C:5](=[O:6])[H:16])[H:12])([H:10])[H:11])([H:7])([H:8])[H:9]>>[C:1]([C:2]([O:6]/[C:5](=[C:3](\[C:4]([H:13])([H:14])[H:15])[H:12])[H:16])([H:10])[H:11])([H:7])([H:8])[H:9]"
C        2.21786200      -0.16102384      -0.16369308
C        0.90178107      -0.34542614       0.49274122
C       -1.15865384       0.06943572      -0.67148272
C       -1.89035035      -0.56256648       0.48689662
C       -0.60934770       1.34867517      -0.61248576
O        0.32267588       1.68036495       0.16804743
H        2.54242136       0.87711375      -0.11280609
H        2.95799099      -0.75985923       0.38191019
H        2.20721271      -0.49196870      -1.20122217
H        0.45192863      -1.31804496       0.33545844
H        0.82668662      -0.04116189       1.52954443
H       -1.58457341      -0.17577390      -1.64334805
H       -1.56720021      -0.15577949       1.44559209
H       -2.96837174      -0.40224202       0.40347270
H       -1.72993703      -1.64685572       0.52952478
H       -0.92012498       2.08511279      -1.36815002
16
Frame=5 idx=001214 GeodesicLength=0.3059658000476376 rxn_smarts="[C:1]([C:2]([C@@:3]([C:4]([H:13])([H:14])[H:15])([C:5](=[O:6])[H:16])[H:12])([H:10])[H:11])([H:7])([H:8])[H:9]>>[C:1]([C:2]([O:6]/[C:5](=[C:3](\[C:4]([H:13])([H:14])[H:15])[H:12])[H:16])([H:10])[H:11])([H:7])([H:8])[H:9]"
C        2.22576891      -0.16265343      -0.16207875
C        0.89446023      -0.32915702       0.47489313
C       -1.14872992       0.06341639      -0.66133817
C       -1.89638139      -0.56455581       0.48928674
C       -0.62238077       1.35437233      -0.60536198
O        0.33491202       1.68420252       0.14619508
H        2.56216616       0.87176753      -0.11062184
H        2.95319187      -0.76684597       0.39365495
H        2.22570946      -0.49501514      -1.19943586
H        0.46597724      -1.31545092       0.33541202
H        0.81693028      -0.03035367       1.51407232
H       -1.56681095      -0.18488635      -1.63606275
H       -1.56318113      -0.18041600       1.45367732
H       -2.97033504      -0.37810982       0.40915624
H       -1.75864104      -1.65210143       0.51541562
H       -0.95265594       2.08578680      -1.35686409
16
Frame=6 idx=001214 GeodesicLength=0.36584896130156735 rxn_smarts="[C:1]([C:2]([C@@:3]([C:4]([H:13])([H:14])[H:15])([C:5](=[O:6])[H:16])[H:12])([H:10])[H:11])([H:7])([H:8])[H:9]>>[C:1]([C:2]([O:6]/[C:5](=[C:3](\[C:4]([H:13])([H:14])[H:15])[H:12])[H:16])([H:10])[H:11])([H:7])([H:8])[H:9]"
C        2.23339965      -0.16402710      -0.16021705
C        0.88744009      -0.31329764       0.45711693
C       -1.13924181       0.05760626      -0.65114360
C       -1.90231048      -0.56664175       0.49169179
C       -0.63487834       1.35949083      -0.59834982
O        0.34668176       1.68767168       0.12354346
H        2.58134274       0.86661920      -0.10766005
H        2.94827676      -0.77340443       0.40513292
H        2.24384845      -0.49749335      -1.19741935
H        0.48016088      -1.31234415       0.33574115
H        0.80728813      -0.01935959       1.49849950
H       -1.55014432      -0.19324274      -1.62853329
H       -1.55865370      -0.20638628       1.46145347
H       -2.97154682      -0.35369462       0.41607851
H       -1.78815084      -1.65683885       0.50030920
H       -0.98351216       2.08534253      -1.34624377
16
Frame=7 idx=001214 GeodesicLength=0.4252202590910291 rxn_smarts="[C:1]([C:2]([C@@:3]([C:4]([H:13])([H:14])[H:15])([C:5](=[O:6])[H:16])[H:12])([H:10])[H:11])([H:7])([H:8])[H:9]>>[C:1]([C:2]([O:6]/[C:5](=[C:3](\[C:4]([H:13])([H:14])[H:15])[H:12])[H:16])([H:10])[H:11])([H:7])([H:8])[H:9]"
C        2.24064269      -0.16506953      -0.15818678
C        0.88070151      -0.29789758       0.43952162
C       -1.13010240       0.05194665      -0.64086184
C       -1.90814321      -0.56874886       0.49407882
C       -0.64671282       1.36394723      -0.59143216
O        0.35782963       1.69061904       0.10051416
H        2.59972696       0.86172899      -0.10409570
H        2.94332343      -0.77933988       0.41614776
H        2.26139304      -0.49932800      -1.19518845
H        0.49445219      -1.30871762       0.33650317
H        0.79781740      -0.00832934       1.48290279
H       -1.53441418      -0.20095482      -1.62070004
H       -1.55366771      -0.23368993       1.46876850
H       -2.97196657      -0.32893685       0.42418726
H       -1.81852084      -1.66082778       0.48425427
H       -1.01235911       2.08359827      -1.33641338
16
Frame=8 idx=001214 GeodesicLength=0.48411305385259 rxn_smarts="[C:1]([C:2]([C@@:3]([C:4]([H:13])([H:14])[H:15])([C:5](=[O:6])[H:16])[H:12])([H:10])[H:11])([H:7])([H:8])[H:9]>>[C:1]([C:2]([O:6]/[C:5](=[C:3](\[C:4]([H:13])([H:14])[H:15])[H:12])[H:16])([H:10])[H:11])([H:7])([H:8])[H:9]"
C        2.24754609      -0.16582568      -0.15595115
C        0.87421450      -0.28298877       0.42208734
C       -1.12127026       0.04637353      -0.63059139
C       -1.91383883      -0.57088057       0.49648874
C       -0.65785992       1.36780351      -0.58478425
O        0.36844033       1.69310797       0.07697701
H        2.61737722       0.85711442      -0.09985565
H        2.93830351      -0.78479957       0.42682941
H        2.27848163      -0.50054976      -1.19277301
H        0.50882769      -1.30469174       0.33761157
H        0.78845993       0.00271448       1.46732263
H       -1.51957440      -0.20817447      -1.61270807
H       -1.54822173      -0.26225177       1.47559875
H       -2.97148911      -0.30385659       0.43355704
H       -1.84973074      -1.66402883       0.46739760
H       -1.03966593       2.08093386      -1.32720656
16
Frame=9 idx=001214 GeodesicLength=0.5425793970754337 rxn_smarts="[C:1]([C:2]([C@@:3]([C:4]([H:13])([H:14])[H:15])([C:5](=[O:6])[H:16])[H:12])([H:10])[H:11])([H:7])([H:8])[H:9]>>[C:1]([C:2]([O:6]/[C:5](=[C:3](\[C:4]([H:13])([H:14])[H:15])[H:12])[H:16])([H:10])[H:11])([H:7])([H:8])[H:9]"
C        2.25415424      -0.16627863      -0.15353922
C        0.86798164      -0.26858673       0.40484651
C       -1.11272141       0.04082471      -0.62034991
C       -1.91945095      -0.57299609       0.49891357
C       -0.66829479       1.37105839      -0.57844488
O        0.37848741       1.69510471       0.05310908
H        2.63430220       0.85281699      -0.09501319
H        2.93334060      -0.78972417       0.43714691
H        2.29515160      -0.50118222      -1.19019563
H        0.52328075      -1.30030213       0.33906265
H        0.77924060       0.01372410       1.45180546
H       -1.50555923      -0.21505164      -1.60458757
H       -1.54237198      -0.29208132       1.48185616
H       -2.97013133      -0.27840535       0.44422444
H       -1.88190495      -1.66629276       0.44976291
H       -1.06550440       2.07737216      -1.31859729
16
Frame=10 idx=001214 GeodesicLength=0.6006789940955374 rxn_smarts="[C:1]([C:2]([C@@:3]([C:4]([H:13])([H:14])[H:15])([C:5](=[O:6])[H:16])[H:12])([H:10])[H:11])([H:7])([H:8])[H:9]>>[C:1]([C:2]([O:6]/[C:5](=[C:3](\[C:4]([H:13])([H:14])[H:15])[H:12])[H:16])([H:10])[H:11])([H:7])([H:8])[H:9]"
C        2.26038193      -0.16639928      -0.15097089
C        0.86194095      -0.25471120       0.38782436
C       -1.10437088       0.03525975      -0.61014864
C       -1.92492712      -0.57507625       0.50136607
C       -0.67794629       1.37370685      -0.57248617
O        0.38795173       1.69656113       0.02902093
H        2.65038888       0.84886934      -0.08961019
H        2.92835099      -0.79410314       0.44706367
H        2.31131414      -0.50114316      -1.18747218
H        0.53775701      -1.29557723       0.34085632
H        0.77010582       0.02460318       1.43637599
H       -1.49222114      -0.22167411      -1.59634030
H       -1.53612640      -0.32320048       1.48743777
H       -2.96772621      -0.25260971       0.45623753
H       -1.91503896      -1.66746458       0.43146653
H       -1.08983444       2.07295888      -1.31062080
16
Frame=11 idx=001214 GeodesicLength=0.6584320045832195 rxn_smarts="[C:1]([C:2]([C@@:3]([C:4]([H:13])([H:14])[H:15])([C:5](=[O:6])[H:16])[H:12])([H:10])[H:11])([H:7])([H:8])[H:9]>>[C:1]([C:2]([O:6]/[C:5](=[C:3](\[C:4]([H:13])([H:14])[H:15])[H:12])[H:16])([H:10])[H:11])([H:7])([H:8])[H:9]"
C        2.26633071      -0.16621343      -0.14821859
C        0.85610926      -0.24136452       0.37099569
C       -1.09625047       0.02963869      -0.60001420
C       -1.93029281      -0.57708695       0.50384326
C       -0.68691549       1.37575890      -0.56694973
O        0.39685583       1.69747287       0.00471806
H        2.66572518       0.84525951      -0.08361321
H        2.92345661      -0.79797121       0.45665629
H        2.32711433      -0.50049048      -1.18456993
H        0.55229470      -1.29054691       0.34290666
H        0.76107670       0.03534043       1.42101865
H       -1.47960632      -0.22814789      -1.58799526
H       -1.52951520      -0.35559572       1.49224655
H       -2.96426750      -0.22642712       0.46965399
H       -1.94917312      -1.66738921       0.41251781
H       -1.11294242       2.06776303      -1.30319606
16
Frame=12 idx=001214 GeodesicLength=0.7159037933461977 rxn_smarts="[C:1]([C:2]([C@@:3]([C:4]([H:13])([H:14])[H:15])([C:5](=[O:6])[H:16])[H:12])([H:10])[H:11])([H:7])([H:8])[H:9]>>[C:1]([C:2]([O:6]/[C:5](=[C:3](\[C:4]([H:13])([H:14])[H:15])[H:12])[H:16])([H:10])[H:11])([H:7])([H:8])[H:9]"
C        2.27200766      -0.16569584      -0.14528366
C        0.85045409      -0.22856605       0.35433728
C       -1.08833399       0.02391983      -0.58997429
C       -1.93555237      -0.57901627       0.50637575
C       -0.69518968       1.37723934      -0.56191321
O        0.40519541       1.69783693      -0.01972486
H        2.68028728       0.84204979      -0.07704302
H        2.91865675      -0.80128928       0.46598212
H        2.34262888      -0.49921386      -1.18149385
H        0.56686274      -1.28526597       0.34514219
H        0.75210905       0.04585602       1.40573814
H       -1.46766135      -0.23457255      -1.57958949
H       -1.52253627      -0.38936874       1.49621284
H       -2.95964086      -0.19982254       0.48461443
H       -1.98442935      -1.66593325       0.39299243
H       -1.13485799       2.06184244      -1.29637282
16
Frame=13 idx=001214 GeodesicLength=0.773160451643942 rxn_smarts="[C:1]([C:2]([C@@:3]([C:4]([H:13])([H:14])[H:15])([C:5](=[O:6])[H:16])[H:12])([H:10])[H:11])([H:7])([H:8])[H:9]>>[C:1]([C:2]([O:6]/[C:5](=[C:3](\[C:4]([H:13])([H:14])[H:15])[H:12])[H:16])([H:10])[H:11])([H:7])([H:8])[H:9]"
C        2.27745285      -0.16485244      -0.14213599
C        0.84495923      -0.21630995       0.33780146
C       -1.08062139       0.01807492      -0.58005156
C       -1.94069601      -0.58085424       0.50897317
C       -0.70283033       1.37816094      -0.55742077
O        0.41300819       1.69763921      -0.04436766
H        2.69410790       0.83924294      -0.06986926
H        2.91395641      -0.80406873       0.47513467
H        2.35797160      -0.49733380      -1.17819739
H        0.58145647      -1.27975127       0.34749412
H        0.74317323       0.05613508       1.39048766
H       -1.45638345      -0.24101972      -1.57113756
H       -1.51519251      -0.42460780       1.49921559
H       -2.95371926      -0.17277962       0.50125731
H       -2.02087521      -1.66292332       0.37291809
H       -1.15576772       2.05524779      -1.29010187
16
Frame=14 idx=001214 GeodesicLength=0.8302557543722253 rxn_smarts="[C:1]([C:2]([C@@:3]([C:4]([H:13])([H:14])[H:15])([C:5](=[O:6])[H:16])[H:12])([H:10])[H:11])([H:7])([H:8])[H:9]>>[C:1]([C:2]([O:6]/[C:5](=[C:3](\[C:4]([H:13])([H:14])[H:15])[H:12])[H:16])([H:10])[H:11])([H:7])([H:8])[H:9]"
C        2.28270200      -0.16367302      -0.13874876
C        0.83960884      -0.20459840       0.32134863
C       -1.07311327       0.01207019      -0.57027242
C       -1.94572379      -0.58258382       0.51165289
C       -0.70988188       1.37852732      -0.55353502
O        0.42030214       1.69686728      -0.06922496
H        2.70720443       0.83686393      -0.06205180
H        2.90937229      -0.80630539       0.48418632
H        2.37325045      -0.49484328      -1.17464424
H        0.59607406      -1.27402911       0.34988883
H        0.73423515       0.06614463       1.37523543
H       -1.44577011      -0.24757347      -1.56265957
H       -1.50748096      -0.46144115       1.50112356
H       -2.94636021      -0.14526729       0.51976336
H       -2.05862730      -1.65816038       0.35233119
H       -1.17579185       2.04800195      -1.28439344
16
Frame=15 idx=001214 GeodesicLength=0.8872323323497029 rxn_smarts="[C:1]([C:2]([C@@:3]([C:4]([H:13])([H:14])[H:15])([C:5](=[O:6])[H:16])[H:12])([H:10])[H:11])([H:7])([H:8])[H:9]>>[C:1]([C:2]([O:6]/[C:5](=[C:3](\[C:4]([H:13])([H:14])[H:15])[H:12])[H:16])([H:10])[H:11])([H:7])([H:8])[H:9]"
C        2.28776589      -0.16214995      -0.13508974
C        0.83438207      -0.19343455       0.30494364
C       -1.06580331       0.00587958      -0.56066194
C       -1.95061096      -0.58419994       0.51443246
C       -0.71639825       1.37834883      -0.55030786
O        0.42708958       1.69551286      -0.09433904
H        2.71956303       0.83493802      -0.05356154
H        2.90489498      -0.80798907       0.49322583
H        2.38853667      -0.49174506      -1.17078676
H        0.61071404      -1.26812902       0.35226661
H        0.72525813       0.07585359       1.35995172
H       -1.43581638      -0.25429776      -1.55417485
H       -1.49940388      -0.50002657       1.50178809
H       -2.93735467      -0.11726231       0.54032328
H       -2.09777730      -1.65142441       0.33126224
H       -1.19503964       2.04012575      -1.27927215
16
Frame=16 idx=001214 GeodesicLength=0.9441007622472711 rxn_smarts="[C:1]([C:2]([C@@:3]([C:4]([H:13])([H:14])[H:15])([C:5](=[O:6])[H:16])[H:12])([H:10])[H:11])([H:7])([H:8])[H:9]>>[C:1]([C:2]([O:6]/[C:5](=[C:3](\[C:4]([H:13])([H:14])[H:15])[H:12])[H:16])([H:10])[H:11])([H:7])([H:8])[H:9]"
C        2.29260555      -0.16024312      -0.13118300
C        0.82924392      -0.18282762       0.28863944
C       -1.05866789      -0.00053087      -0.55121924
C       -1.95536576      -0.58568509       0.51733388
C       -0.72236864       1.37760965      -0.54777834
O        0.43335300       1.69356948      -0.11951562
H        2.73115089       0.83350257      -0.04433641
H        2.90052194      -0.80916831       0.50210629
H        2.40372670      -0.48784304      -1.16669285
H        0.62534595      -1.26207979       0.35462575
H        0.71621470       0.08518517       1.34469915
H       -1.42645884      -0.26129237      -1.54567620
H       -1.49108936      -0.54035308       1.50105395
H       -2.92657250      -0.08889513       0.56300621
H       -2.13832582      -1.64249242       0.30988421
H       -1.21331382       2.03154397      -1.27494723
