14
Frame=0 idx=006859 GeodesicLength=0.0 rxn_smarts="[C:1]([c:2]1[c:3]([H:11])[c:4]([N:5]([H:12])[H:13])[c:6]([H:14])[o:7]1)([H:8])([H:9])[H:10]>>[C:1]([C:2]1=[C:3]([H:11])[C@@:4]([N:5]([H:12])[H:13])([H:14])[C-:6]=[O+:7]1)([H:8])([H:9])[H:10]"
C        2.41950305       0.00538663       0.00884821
C        0.94501350       0.13730233      -0.03745917
C       -0.06021879      -0.73506143       0.04941532
C       -1.28244271       0.07556177      -0.03498616
N       -2.54188102      -0.43603457      -0.40008094
C       -0.89599158       1.45685598      -0.26972340
O        0.45878103       1.41904846      -0.18399308
H        2.86346338       0.42509572      -0.89533080
H        2.70393456      -1.04224560       0.08988725
H        2.82674562       0.54831479       0.86349843
H        0.00951094      -1.80417535       0.16553232
H       -2.93468358      -1.07743322       0.27137868
H       -3.19376154       0.30658544      -0.60886266
H       -1.31797292       0.72079911       0.98187606
14
Frame=1 idx=006859 GeodesicLength=0.05453840867897628 rxn_smarts="[C:1]([c:2]1[c:3]([H:11])[c:4]([N:5]([H:12])[H:13])[c:6]([H:14])[o:7]1)([H:8])([H:9])[H:10]>>[C:1]([C:2]1=[C:3]([H:11])[C@@:4]([N:5]([H:12])[H:13])([H:14])[C-:6]=[O+:7]1)([H:8])([H:9])[H:10]"
C        2.42037801       0.00378873       0.00627317
C        0.94588461       0.13641052      -0.03650718
C       -0.06061324      -0.73381677       0.05930604
C       -1.28337767       0.07535937      -0.02651941
N       -2.53872615      -0.43822070      -0.40578860
C       -0.89377098       1.45313564      -0.26477295
O        0.45993641       1.41883013      -0.18359790
H        2.86290541       0.42310390      -0.89883082
H        2.70400665      -1.04417855       0.08599928
H        2.83026076       0.54610680       0.86007982
H        0.00981653      -1.80411364       0.16446037
H       -2.93155001      -1.08800696       0.25759064
H       -3.19367530       0.30359144      -0.60756834
H       -1.33147503       0.74801009       0.98987588
14
Frame=2 idx=006859 GeodesicLength=0.10908211197513026 rxn_smarts="[C:1]([c:2]1[c:3]([H:11])[c:4]([N:5]([H:12])[H:13])[c:6]([H:14])[o:7]1)([H:8])([H:9])[H:10]>>[C:1]([C:2]1=[C:3]([H:11])[C@@:4]([N:5]([H:12])[H:13])([H:14])[C-:6]=[O+:7]1)([H:8])([H:9])[H:10]"
C        2.42122805       0.00215281       0.00374028
C        0.94673993       0.13543303      -0.03573551
C       -0.06096611      -0.73266647       0.06879804
C       -1.28431469       0.07510135      -0.01790257
N       -2.53546701      -0.44042264      -0.41126826
C       -0.89156548       1.44934244      -0.25980247
O        0.46105356       1.41855572      -0.18309431
H        2.86245232       0.42130137      -0.90211854
H        2.70406927      -1.04615931       0.08195896
H        2.83359141       0.54367155       0.85689230
H        0.01011595      -1.80402150       0.16325752
H       -2.92814818      -1.09849383       0.24402622
H       -3.19358441       0.30040097      -0.60610124
H       -1.34520462       0.77580450       0.99734957
14
Frame=3 idx=006859 GeodesicLength=0.1636131099954837 rxn_smarts="[C:1]([c:2]1[c:3]([H:11])[c:4]([N:5]([H:12])[H:13])[c:6]([H:14])[o:7]1)([H:8])([H:9])[H:10]>>[C:1]([C:2]1=[C:3]([H:11])[C@@:4]([N:5]([H:12])[H:13])([H:14])[C-:6]=[O+:7]1)([H:8])([H:9])[H:10]"
C        2.42205058       0.00049938       0.00136221
C        0.94758119       0.13433845      -0.03542069
C       -0.06127844      -0.73164723       0.07758122
C       -1.28525073       0.07477672      -0.00917568
N       -2.53218433      -0.44261459      -0.41635997
C       -0.88938367       1.44545705      -0.25487532
O        0.46213509       1.41818138      -0.18279530
H        2.86231377       0.41971091      -0.90497264
H        2.70412938      -1.04815224       0.07796195
H        2.83651102       0.54104835       0.85414235
H        0.01041115      -1.80394748       0.16159011
H       -2.92446310      -1.10887670       0.23089410
H       -3.19358161       0.29705694      -0.60416885
H       -1.35899031       0.80416908       1.00423649
14
Frame=4 idx=006859 GeodesicLength=0.21815532994390135 rxn_smarts="[C:1]([c:2]1[c:3]([H:11])[c:4]([N:5]([H:12])[H:13])[c:6]([H:14])[o:7]1)([H:8])([H:9])[H:10]>>[C:1]([C:2]1=[C:3]([H:11])[C@@:4]([N:5]([H:12])[H:13])([H:14])[C-:6]=[O+:7]1)([H:8])([H:9])[H:10]"
C        2.42285760      -0.00120276      -0.00105030
C        0.94840799       0.13317901      -0.03510129
C       -0.06154939      -0.73071742       0.08610084
C       -1.28618791       0.07440006      -0.00025507
N       -2.52875746      -0.44482482      -0.42132289
C       -0.88720807       1.44150506      -0.24984448
O        0.46317983       1.41778002      -0.18215405
H        2.86215301       0.41830846      -0.90775698
H        2.70418415      -1.05021071       0.07366599
H        2.83940561       0.53816357       0.85149358
H        0.01070600      -1.80384765       0.16006580
H       -2.92052279      -1.11922171       0.21781406
H       -3.19352579       0.29351093      -0.60219102
H       -1.37314279       0.83317796       1.01053582
14
Frame=5 idx=006859 GeodesicLength=0.27273431293065664 rxn_smarts="[C:1]([c:2]1[c:3]([H:11])[c:4]([N:5]([H:12])[H:13])[c:6]([H:14])[o:7]1)([H:8])([H:9])[H:10]>>[C:1]([C:2]1=[C:3]([H:11])[C@@:4]([N:5]([H:12])[H:13])([H:14])[C-:6]=[O+:7]1)([H:8])([H:9])[H:10]"
C        2.42365084      -0.00298161      -0.00366500
C        0.94921971       0.13200208      -0.03436322
C       -0.06178505      -0.72982882       0.09477679
C       -1.28712838       0.07397863       0.00894385
N       -2.52506342      -0.44708638      -0.42637334
C       -0.88501478       1.43749815      -0.24457947
O        0.46419884       1.41740305      -0.18068132
H        2.86166135       0.41707943      -0.91077712
H        2.70420590      -1.05237290       0.06875159
H        2.84261736       0.53493218       0.84864153
H        0.01099448      -1.80365865       0.15919555
H       -2.91633443      -1.12957929       0.20446394
H       -3.19327800       0.28970316      -0.60055301
H       -1.38794443       0.86291098       1.01621921
14
Frame=6 idx=006859 GeodesicLength=0.3273532985919882 rxn_smarts="[C:1]([c:2]1[c:3]([H:11])[c:4]([N:5]([H:12])[H:13])[c:6]([H:14])[o:7]1)([H:8])([H:9])[H:10]>>[C:1]([C:2]1=[C:3]([H:11])[C@@:4]([N:5]([H:12])[H:13])([H:14])[C-:6]=[O+:7]1)([H:8])([H:9])[H:10]"
C        2.42442871      -0.00483199      -0.00642497
C        0.95001894       0.13079325      -0.03334082
C       -0.06198256      -0.72900644       0.10347001
C       -1.28807458       0.07351119       0.01840888
N       -2.52113422      -0.44938773      -0.43142233
C       -0.88281691       1.43344194      -0.23910404
O        0.46518861       1.41704669      -0.17852204
H        2.86094135       0.41603865      -0.91393041
H        2.70419951      -1.05463809       0.06331313
H        2.84603093       0.53136909       0.84569859
H        0.01129248      -1.80343629       0.15878229
H       -2.91187337      -1.13994472       0.19096561
H       -3.19288424       0.28565791      -0.59910863
H       -1.40333465       0.89338656       1.02121473
14
Frame=7 idx=006859 GeodesicLength=0.38192550915055856 rxn_smarts="[C:1]([c:2]1[c:3]([H:11])[c:4]([N:5]([H:12])[H:13])[c:6]([H:14])[o:7]1)([H:8])([H:9])[H:10]>>[C:1]([C:2]1=[C:3]([H:11])[C@@:4]([N:5]([H:12])[H:13])([H:14])[C-:6]=[O+:7]1)([H:8])([H:9])[H:10]"
C        2.42518689      -0.00674067      -0.00926565
C        0.95080611       0.12954182      -0.03217500
C       -0.06214904      -0.72824849       0.11201989
C       -1.28902641       0.07300187       0.02812193
N       -2.51701308      -0.45170576      -0.43636834
C       -0.88061041       1.42929919      -0.23342739
O        0.46615776       1.41667270      -0.17583358
H        2.86010085       0.41518607      -0.91708234
H        2.70415817      -1.05696744       0.05746568
H        2.84952950       0.52749210       0.84275950
H        0.01160000      -1.80320365       0.15861326
H       -2.90712194      -1.15030245       0.17742363
H       -3.19239501       0.28138694      -0.59766206
H       -1.41922341       0.92458779       1.02541047
14
Frame=8 idx=006859 GeodesicLength=0.43656133054242113 rxn_smarts="[C:1]([c:2]1[c:3]([H:11])[c:4]([N:5]([H:12])[H:13])[c:6]([H:14])[o:7]1)([H:8])([H:9])[H:10]>>[C:1]([C:2]1=[C:3]([H:11])[C@@:4]([N:5]([H:12])[H:13])([H:14])[C-:6]=[O+:7]1)([H:8])([H:9])[H:10]"
C        2.42592321      -0.00874047      -0.01235962
C        0.95158326       0.12828639      -0.03045939
C       -0.06228138      -0.72752874       0.12088896
C       -1.28998905       0.07244372       0.03818368
N       -2.51255746      -0.45409670      -0.44140991
C       -0.87838469       1.42510980      -0.22744040
O        0.46710874       1.41635044      -0.17210491
H        2.85882983       0.41454646      -0.92053930
H        2.70404968      -1.05942415       0.05084488
H        2.85343964       0.52318636       0.83955055
H        0.01192660      -1.80292091       0.15915632
H       -2.90208274      -1.16067116       0.16360137
H       -3.19164520       0.27682537      -0.59668538
H       -1.43592045       0.95663357       1.02877316
14
Frame=9 idx=006859 GeodesicLength=0.49121505621650385 rxn_smarts="[C:1]([c:2]1[c:3]([H:11])[c:4]([N:5]([H:12])[H:13])[c:6]([H:14])[o:7]1)([H:8])([H:9])[H:10]>>[C:1]([C:2]1=[C:3]([H:11])[C@@:4]([N:5]([H:12])[H:13])([H:14])[C-:6]=[O+:7]1)([H:8])([H:9])[H:10]"
C        2.42663819      -0.01080561      -0.01556833
C        0.95235411       0.12698833      -0.02854621
C       -0.06237638      -0.72689560       0.12967225
C       -1.29095769       0.07182805       0.04852571
N       -2.50787686      -0.45652121      -0.44635319
C       -0.87615539       1.42085665      -0.22118183
O        0.46803986       1.41603516      -0.16771461
H        2.85739148       0.41414115      -0.92403570
H        2.70389627      -1.06196615       0.04370958
H        2.85747913       0.51851821       0.83632061
H        0.01227833      -1.80265769       0.16001828
H       -2.89674545      -1.17101900       0.14975728
H       -3.19075663       0.27203505      -0.59580509
H       -1.45320897       0.98946266       1.03120125
14
Frame=10 idx=006859 GeodesicLength=0.5458812114266962 rxn_smarts="[C:1]([c:2]1[c:3]([H:11])[c:4]([N:5]([H:12])[H:13])[c:6]([H:14])[o:7]1)([H:8])([H:9])[H:10]>>[C:1]([C:2]1=[C:3]([H:11])[C@@:4]([N:5]([H:12])[H:13])([H:14])[C-:6]=[O+:7]1)([H:8])([H:9])[H:10]"
C        2.42733126      -0.01291050      -0.01878603
C        0.95311987       0.12561066      -0.02669289
C       -0.06243010      -0.72640206       0.13806869
C       -1.29192403       0.07112473       0.05910636
N       -2.50305314      -0.45895910      -0.45103729
C       -0.87393526       1.41651654      -0.21468564
O        0.46894638       1.41567486      -0.16294229
H        2.85598088       0.41399853      -0.92736735
H        2.70371719      -1.06454756       0.03624974
H        2.86143172       0.51353856       0.83325884
H        0.01266471      -1.80245301       0.16085688
H       -2.89113067      -1.18128358       0.13613111
H       -3.18979937       0.26706002      -0.59478847
H       -1.47091943       1.02303192       1.03262833
14
Frame=11 idx=006859 GeodesicLength=0.6005425515783906 rxn_smarts="[C:1]([c:2]1[c:3]([H:11])[c:4]([N:5]([H:12])[H:13])[c:6]([H:14])[o:7]1)([H:8])([H:9])[H:10]>>[C:1]([C:2]1=[C:3]([H:11])[C@@:4]([N:5]([H:12])[H:13])([H:14])[C-:6]=[O+:7]1)([H:8])([H:9])[H:10]"
C        2.42801836      -0.01502150      -0.02186724
C        0.95388642       0.12411342      -0.02522087
C       -0.06243448      -0.72610959       0.14570657
C       -1.29287615       0.07030780       0.06986881
N       -2.49821652      -0.46139179      -0.45525523
C       -0.87174341       1.41207087      -0.20802333
O        0.46982176       1.41522082      -0.15816719
H        2.85486211       0.41415396      -0.93027031
H        2.70356309      -1.06712042       0.02871951
H        2.86504100       0.50832156       0.83062766
H        0.01309488      -1.80240072       0.16117649
H       -2.88528957      -1.19140409       0.12304689
H       -3.18889015       0.26195536      -0.59332236
H       -1.48883735       1.05730430       1.03298060
14
Frame=12 idx=006859 GeodesicLength=0.6551948627154149 rxn_smarts="[C:1]([c:2]1[c:3]([H:11])[c:4]([N:5]([H:12])[H:13])[c:6]([H:14])[o:7]1)([H:8])([H:9])[H:10]>>[C:1]([C:2]1=[C:3]([H:11])[C@@:4]([N:5]([H:12])[H:13])([H:14])[C-:6]=[O+:7]1)([H:8])([H:9])[H:10]"
C        2.42871179      -0.01710991      -0.02469885
C        0.95465665       0.12246294      -0.02436906
C       -0.06238123      -0.72607513       0.15230353
C       -1.29379598       0.06934479       0.08077437
N       -2.49346819      -0.46380765      -0.45884476
C       -0.86959267       1.40749553      -0.20124000
O        0.47065848       1.41462623      -0.15368020
H        2.85423350       0.41462557      -0.93254926
H        2.70347925      -1.06964010       0.02132744
H        2.86811064       0.50293863       0.82862265
H        0.01357353      -1.80255070       0.16056344
H       -2.87928183      -1.20132310       0.11076073
H       -3.18810708       0.25676495      -0.59117420
H       -1.50679685       1.09224796       1.03220416
14
Frame=13 idx=006859 GeodesicLength=0.7098582575229616 rxn_smarts="[C:1]([c:2]1[c:3]([H:11])[c:4]([N:5]([H:12])[H:13])[c:6]([H:14])[o:7]1)([H:8])([H:9])[H:10]>>[C:1]([C:2]1=[C:3]([H:11])[C@@:4]([N:5]([H:12])[H:13])([H:14])[C-:6]=[O+:7]1)([H:8])([H:9])[H:10]"
C        2.42942132      -0.01918796      -0.02735074
C        0.95543332       0.12067826      -0.02397832
C       -0.06226780      -0.72628891       0.15803609
C       -1.29468148       0.06823379       0.09185648
N       -2.48876819      -0.46622195      -0.46188579
C       -0.86748215       1.40280953      -0.19425038
O        0.47145411       1.41392484      -0.14926658
H        2.85398382       0.41541929      -0.93433192
H        2.70347410      -1.07213096       0.01393406
H        2.87077757       0.49734901       0.82713166
H        0.01411486      -1.80291028       0.15921025
H       -2.87313181      -1.21105830       0.09917266
H       -3.18739581       0.25148224      -0.58850199
H       -1.52493185       1.12790140       1.03022453
14
Frame=14 idx=006859 GeodesicLength=0.7644545130813226 rxn_smarts="[C:1]([c:2]1[c:3]([H:11])[c:4]([N:5]([H:12])[H:13])[c:6]([H:14])[o:7]1)([H:8])([H:9])[H:10]>>[C:1]([C:2]1=[C:3]([H:11])[C@@:4]([N:5]([H:12])[H:13])([H:14])[C-:6]=[O+:7]1)([H:8])([H:9])[H:10]"
C        2.43014371      -0.02124754      -0.02981830
C        0.95621360       0.11876771      -0.02403082
C       -0.06210277      -0.72673357       0.16291780
C       -1.29551948       0.06696569       0.10312188
N       -2.48412980      -0.46861489      -0.46437317
C       -0.86539770       1.39799230      -0.18699149
O        0.47221796       1.41309550      -0.14491811
H        2.85409251       0.41649100      -0.93562127
H        2.70353840      -1.07456123       0.00658679
H        2.87306316       0.49158651       0.82611635
H        0.01470490      -1.80346001       0.15707220
H       -2.86684606      -1.22062640       0.08822488
H       -3.18676426       0.24611576      -0.58522941
H       -1.54321419       1.16422919       1.02694265
14
Frame=15 idx=006859 GeodesicLength=0.8190479183994979 rxn_smarts="[C:1]([c:2]1[c:3]([H:11])[c:4]([N:5]([H:12])[H:13])[c:6]([H:14])[o:7]1)([H:8])([H:9])[H:10]>>[C:1]([C:2]1=[C:3]([H:11])[C@@:4]([N:5]([H:12])[H:13])([H:14])[C-:6]=[O+:7]1)([H:8])([H:9])[H:10]"
C        2.43087762      -0.02331617      -0.03224108
C        0.95700211       0.11675774      -0.02421364
C       -0.06188088      -0.72737528       0.16732399
C       -1.29630886       0.06553534       0.11463780
N       -2.47944262      -0.47105503      -0.46643090
C       -0.86331988       1.39303626      -0.17936999
O        0.47296027       1.41217175      -0.14017749
H        2.85432453       0.41794202      -0.93659501
H        2.70364377      -1.07696666      -0.00111551
H        2.87521794       0.48546513       0.82539576
H        0.01535216      -1.80412749       0.15452442
H       -2.86045441      -1.22999790       0.07783341
H       -3.18606136       0.24059247      -0.58175912
H       -1.56191040       1.20133780       1.02218736
14
Frame=16 idx=006859 GeodesicLength=0.873661227856827 rxn_smarts="[C:1]([c:2]1[c:3]([H:11])[c:4]([N:5]([H:12])[H:13])[c:6]([H:14])[o:7]1)([H:8])([H:9])[H:10]>>[C:1]([C:2]1=[C:3]([H:11])[C@@:4]([N:5]([H:12])[H:13])([H:14])[C-:6]=[O+:7]1)([H:8])([H:9])[H:10]"
C        2.43162352      -0.02540710      -0.03467769
C        0.95779770       0.11466686      -0.02442821
C       -0.06160228      -0.72820889       0.17139222
C       -1.29705365       0.06394678       0.12643471
N       -2.47466695      -0.47353326      -0.46813734
C       -0.86125373       1.38799401      -0.17126483
O        0.47367668       1.41120417      -0.13489227
H        2.85459928       0.41974968      -0.93737755
H        2.70378478      -1.07938279      -0.00924583
H        2.87733023       0.47897887       0.82487322
H        0.01607200      -1.80495505       0.15175248
H       -2.85393779      -1.23923744       0.06785339
H       -3.18525742       0.23494023      -0.57815500
H       -1.58111238       1.23924394       1.01587269
