15
Frame=0 idx=004999 GeodesicLength=0.0 rxn_smarts="[C:1]([C:2]12[C:3]([H:10])([H:11])[N:4]([C:5]1([H:12])[H:13])[C:6]2([H:14])[H:15])([H:7])([H:8])[H:9]>>[C:1]([C-:2]1[C:3]([H:10])([H:11])[N+:4](=[C:6]([H:14])[H:15])[C:5]1([H:12])[H:13])([H:7])([H:8])[H:9]"
C        2.01498830       0.26230824       0.04119182
C        0.60530132      -0.21615972      -0.15611157
C       -0.30516650      -0.28168766       1.06948685
N       -1.39300812       0.12167783       0.14569589
C       -0.40343121       0.76556613      -0.75173603
C       -1.85793881      -0.96060840      -0.45195765
H        2.51956534       0.39647293      -0.91827070
H        2.59643407      -0.45876981       0.62008217
H        2.06148287       1.22682886       0.57577065
H       -0.52198149      -1.20707910       1.60220099
H       -0.09374630       0.52236549       1.79303909
H       -0.21310403       1.80444757      -0.43627847
H       -0.70630585       0.74970956      -1.79834432
H       -2.19464936      -0.89607178      -1.47898920
H       -2.10844022      -1.82900020       0.14422054
15
Frame=1 idx=004999 GeodesicLength=0.04795184178095912 rxn_smarts="[C:1]([C:2]12[C:3]([H:10])([H:11])[N:4]([C:5]1([H:12])[H:13])[C:6]2([H:14])[H:15])([H:7])([H:8])[H:9]>>[C:1]([C-:2]1[C:3]([H:10])([H:11])[N+:4](=[C:6]([H:14])[H:15])[C:5]1([H:12])[H:13])([H:7])([H:8])[H:9]"
C        2.00753313       0.24803218       0.03347275
C        0.59047478      -0.21280461      -0.15343095
C       -0.31388766      -0.26585848       1.07847575
N       -1.40196313       0.12372161       0.14724579
C       -0.41207694       0.78085527      -0.74209897
C       -1.82387797      -0.97519167      -0.46211259
H        2.50660784       0.37603354      -0.92973018
H        2.58404826      -0.48034861       0.60817606
H        2.07098977       1.21172001       0.56752970
H       -0.52621181      -1.18746436       1.61971361
H       -0.10340269       0.54439467       1.79467433
H       -0.22186136       1.81652499      -0.41771594
H       -0.71094613       0.77425717      -1.79006533
H       -2.16587668      -0.91110671      -1.48774128
H       -2.07954940      -1.84276502       0.13360726
15
Frame=2 idx=004999 GeodesicLength=0.09601457788401116 rxn_smarts="[C:1]([C:2]12[C:3]([H:10])([H:11])[N:4]([C:5]1([H:12])[H:13])[C:6]2([H:14])[H:15])([H:7])([H:8])[H:9]>>[C:1]([C-:2]1[C:3]([H:10])([H:11])[N+:4](=[C:6]([H:14])[H:15])[C:5]1([H:12])[H:13])([H:7])([H:8])[H:9]"
C        2.00003432       0.23420590       0.02601616
C        0.57615577      -0.20952184      -0.15082275
C       -0.32235604      -0.25072417       1.08699945
N       -1.41055910       0.12564540       0.14870904
C       -0.42046780       0.79540502      -0.73285640
C       -1.79055173      -0.98813273      -0.47128009
H        2.49368408       0.35638765      -0.94075622
H        2.57164980      -0.50118951       0.59669928
H        2.07979469       1.19684493       0.55949201
H       -0.53032294      -1.16878868       1.63610095
H       -0.11292280       0.56530770       1.79624008
H       -0.23053510       1.82799327      -0.40010745
H       -0.71542283       0.79736406      -1.78205433
H       -2.13730353      -0.92533162      -1.49572178
H       -2.05087679      -1.85546538       0.12334206
15
Frame=3 idx=004999 GeodesicLength=0.14422911002920596 rxn_smarts="[C:1]([C:2]12[C:3]([H:10])([H:11])[N:4]([C:5]1([H:12])[H:13])[C:6]2([H:14])[H:15])([H:7])([H:8])[H:9]>>[C:1]([C-:2]1[C:3]([H:10])([H:11])[N+:4](=[C:6]([H:14])[H:15])[C:5]1([H:12])[H:13])([H:7])([H:8])[H:9]"
C        1.99250579       0.22076571       0.01878557
C        0.56229258      -0.20628341      -0.14827078
C       -0.33060741      -0.23619780       1.09511423
N       -1.41884658       0.12745834       0.15008992
C       -0.42864205       0.80931138      -0.72395939
C       -1.75795648      -0.99960486      -0.47955687
H        2.48078683       0.33741263      -0.95141516
H        2.55922896      -0.52141498       0.58558426
H        2.08800445       1.18216545       0.55162369
H       -0.53432408      -1.15093679       1.65151743
H       -0.12234403       0.58525269       1.79774904
H       -0.23916092       1.83893937      -0.38332105
H       -0.71976118       0.81923028      -1.77428720
H       -2.10883177      -0.93884935      -1.50306112
H       -2.02234412      -1.86724864       0.11340745
15
Frame=4 idx=004999 GeodesicLength=0.19263515618172605 rxn_smarts="[C:1]([C:2]12[C:3]([H:10])([H:11])[N:4]([C:5]1([H:12])[H:13])[C:6]2([H:14])[H:15])([H:7])([H:8])[H:9]>>[C:1]([C-:2]1[C:3]([H:10])([H:11])[N+:4](=[C:6]([H:14])[H:15])[C:5]1([H:12])[H:13])([H:7])([H:8])[H:9]"
C        1.98495688       0.20765728       0.01174799
C        0.54884173      -0.20306222      -0.14575468
C       -0.33867496      -0.22220132       1.10287016
N       -1.42686808       0.12916092       0.15139385
C       -0.43663276       0.82265214      -0.71536047
C       -1.72607092      -1.00975885      -0.48703365
H        2.46789972       0.31899593      -0.96176732
H        2.54677443      -0.54112852       0.57476541
H        2.09570876       1.16764175       0.54389660
H       -0.53823246      -1.13379816       1.66609922
H       -0.13170532       0.60436278       1.79920608
H       -0.24777128       1.84943073      -0.36724339
H       -0.72397770       0.84002027      -1.76673403
H       -2.08038804      -0.95172863      -1.50986339
H       -1.99386000      -1.87824411       0.10377761
15
Frame=5 idx=004999 GeodesicLength=0.24119137804153712 rxn_smarts="[C:1]([C:2]12[C:3]([H:10])([H:11])[N:4]([C:5]1([H:12])[H:13])[C:6]2([H:14])[H:15])([H:7])([H:8])[H:9]>>[C:1]([C-:2]1[C:3]([H:10])([H:11])[N+:4](=[C:6]([H:14])[H:15])[C:5]1([H:12])[H:13])([H:7])([H:8])[H:9]"
C        1.97741184       0.19488020       0.00489789
C        0.53580626      -0.19987211      -0.14328155
C       -0.34655362      -0.20872850       1.11027851
N       -1.43462422       0.13074874       0.15261751
C       -0.44443436       0.83544052      -0.70705934
C       -1.69489102      -1.01872413      -0.49378327
H        2.45506088       0.30114922      -0.97181464
H        2.53432729      -0.56031815       0.56424283
H        2.10293689       1.15328620       0.53632041
H       -0.54201608      -1.11736611       1.67988858
H       -0.14100826       0.62266592       1.80061088
H       -0.25636844       1.85947993      -0.35184383
H       -0.72804154       0.85977706      -1.75941170
H       -2.05206432      -0.96395620      -1.51615922
H       -1.96554128      -1.88846260       0.09449695
15
Frame=6 idx=004999 GeodesicLength=0.28993048624286455 rxn_smarts="[C:1]([C:2]12[C:3]([H:10])([H:11])[N:4]([C:5]1([H:12])[H:13])[C:6]2([H:14])[H:15])([H:7])([H:8])[H:9]>>[C:1]([C-:2]1[C:3]([H:10])([H:11])[N+:4](=[C:6]([H:14])[H:15])[C:5]1([H:12])[H:13])([H:7])([H:8])[H:9]"
C        1.96987626       0.18238983      -0.00179059
C        0.52315144      -0.19668937      -0.14083414
C       -0.35427118      -0.19571687       1.11737866
N       -1.44214847       0.13222393       0.15376470
C       -0.45207400       0.84773827      -0.69901920
C       -1.66438890      -1.02661685      -0.49987454
H        2.44225331       0.28378161      -0.98160495
H        2.52187558      -0.57906765       0.55396461
H        2.10976112       1.13906474       0.52887001
H       -0.54569271      -1.10155197       1.69298825
H       -0.15028541       0.64026456       1.80196841
H       -0.26498049       1.86913919      -0.33703450
H       -0.73197347       0.87863234      -1.75229302
H       -2.02379010      -0.97559015      -1.52202707
H       -1.93731297      -1.89800159       0.08554338
15
Frame=7 idx=004999 GeodesicLength=0.33888401391126743 rxn_smarts="[C:1]([C:2]12[C:3]([H:10])([H:11])[N:4]([C:5]1([H:12])[H:13])[C:6]2([H:14])[H:15])([H:7])([H:8])[H:9]>>[C:1]([C-:2]1[C:3]([H:10])([H:11])[N+:4](=[C:6]([H:14])[H:15])[C:5]1([H:12])[H:13])([H:7])([H:8])[H:9]"
C        1.96235448       0.17014619      -0.00833837
C        0.51084850      -0.19348947      -0.13839597
C       -0.36185241      -0.18310966       1.12420390
N       -1.44946855       0.13358705       0.15483587
C       -0.45957590       0.85959903      -0.69120938
C       -1.63453041      -1.03354095      -0.50536785
H        2.42945645       0.26682895      -0.99117769
H        2.50940512      -0.59746229       0.54387224
H        2.11624415       1.12493898       0.52153548
H       -0.54927573      -1.08627553       1.70548635
H       -0.15957132       0.65725009       1.80328272
H       -0.27363239       1.87845444      -0.32274412
H       -0.73578836       0.89669342      -1.74535579
H       -1.99550670      -0.98667913      -1.52753068
H       -1.90910692      -1.90694112       0.07690329
15
Frame=8 idx=004999 GeodesicLength=0.3880828585684615 rxn_smarts="[C:1]([C:2]12[C:3]([H:10])([H:11])[N:4]([C:5]1([H:12])[H:13])[C:6]2([H:14])[H:15])([H:7])([H:8])[H:9]>>[C:1]([C-:2]1[C:3]([H:10])([H:11])[N+:4](=[C:6]([H:14])[H:15])[C:5]1([H:12])[H:13])([H:7])([H:8])[H:9]"
C        1.95484913       0.15811271      -0.01476500
C        0.49887229      -0.19024804      -0.13595174
C       -0.36932068      -0.17085689       1.13078306
N       -1.45660874       0.13483758       0.15583108
C       -0.46696232       0.87107114      -0.68360178
C       -1.60527971      -1.03958694      -0.51031619
H        2.41665252       0.25022673      -1.00056775
H        2.49689583      -0.61557696       0.53391801
H        2.12244171       1.11087446       0.51430123
H       -0.55278157      -1.07146503       1.71745821
H       -0.16889618       0.67370218       1.80455554
H       -0.28234906       1.88746624      -0.30890787
H       -0.73950290       0.91405769      -1.73857742
H       -1.96715922      -0.99726298      -1.53272319
H       -1.88085109      -1.91535189       0.06856381
15
Frame=9 idx=004999 GeodesicLength=0.43755825883600696 rxn_smarts="[C:1]([C:2]12[C:3]([H:10])([H:11])[N:4]([C:5]1([H:12])[H:13])[C:6]2([H:14])[H:15])([H:7])([H:8])[H:9]>>[C:1]([C-:2]1[C:3]([H:10])([H:11])[N+:4](=[C:6]([H:14])[H:15])[C:5]1([H:12])[H:13])([H:7])([H:8])[H:9]"
C        1.94736176       0.14625720      -0.02108870
C        0.48720176      -0.18694091      -0.13348737
C       -0.37669596      -0.15891448       1.13714230
N       -1.46358933       0.13597345       0.15675026
C       -0.47425393       0.88219774      -0.67617188
C       -1.57659802      -1.04483411      -0.51476741
H        2.40382141       0.23391240      -1.00980863
H        2.48432585      -0.63347729       0.52406132
H        2.12840268       1.09683942       0.50715336
H       -0.55622390      -1.05705753       1.72897062
H       -0.17828614       0.68969025       1.80579025
H       -0.29115705       1.89621106      -0.29546802
H       -0.74313290       0.93081033      -1.73193812
H       -1.93869413      -1.00737514      -1.53765155
H       -1.85248212      -1.92329238       0.06051356
15
Frame=10 idx=004999 GeodesicLength=0.48734151786677304 rxn_smarts="[C:1]([C:2]12[C:3]([H:10])([H:11])[N:4]([C:5]1([H:12])[H:13])[C:6]2([H:14])[H:15])([H:7])([H:8])[H:9]>>[C:1]([C-:2]1[C:3]([H:10])([H:11])[N+:4](=[C:6]([H:14])[H:15])[C:5]1([H:12])[H:13])([H:7])([H:8])[H:9]"
C        1.93989319       0.13454868      -0.02732655
C        0.47581889      -0.18354421      -0.13098921
C       -0.38399707      -0.14724319       1.14330457
N       -1.47042798       0.13699308       0.15759356
C       -0.48147068       0.89301864      -0.66889606
C       -1.54844705      -1.04935213      -0.51876350
H        2.39094272       0.21782517      -1.01893087
H        2.47167172      -0.65122200       0.51426809
H        2.13417104       1.08280433       0.50007311
H       -0.55961439      -1.04299858       1.74007881
H       -0.18776973       0.70527438       1.80699140
H       -0.30008059       1.90472280      -0.28237383
H       -0.74669647       0.94702889      -1.72541713
H       -1.91005379      -1.01704585      -1.54235689
H       -1.82393982      -1.93080999       0.05274449
15
Frame=11 idx=004999 GeodesicLength=0.537392069283944 rxn_smarts="[C:1]([C:2]12[C:3]([H:10])([H:11])[N:4]([C:5]1([H:12])[H:13])[C:6]2([H:14])[H:15])([H:7])([H:8])[H:9]>>[C:1]([C-:2]1[C:3]([H:10])([H:11])[N+:4](=[C:6]([H:14])[H:15])[C:5]1([H:12])[H:13])([H:7])([H:8])[H:9]"
C        1.93245630       0.12299757      -0.03347352
C        0.46473493      -0.18007712      -0.12846919
C       -0.39121172      -0.13585626       1.14926817
N       -1.47711326       0.13789286       0.15835896
C       -0.48860114       0.90352674      -0.66178498
C       -1.52081370      -1.05320126      -0.52234010
H        2.37804688       0.20199601      -1.02791979
H        2.45896090      -0.66877704       0.50455992
H        2.13974406       1.06878923       0.49306888
H       -0.56292616      -1.02930621       1.75078489
H       -0.19733656       0.72044408       1.80815734
H       -0.30911073       1.91299550      -0.26963265
H       -0.75016864       0.96270882      -1.71903207
H       -1.88133780      -1.02624752      -1.54682707
H       -1.79532335      -1.93788540       0.04528121
15
Frame=12 idx=004999 GeodesicLength=0.5876740087095698 rxn_smarts="[C:1]([C:2]12[C:3]([H:10])([H:11])[N:4]([C:5]1([H:12])[H:13])[C:6]2([H:14])[H:15])([H:7])([H:8])[H:9]>>[C:1]([C-:2]1[C:3]([H:10])([H:11])[N+:4](=[C:6]([H:14])[H:15])[C:5]1([H:12])[H:13])([H:7])([H:8])[H:9]"
C        1.92506303       0.11161088      -0.03952632
C        0.45395716      -0.17655655      -0.12593762
C       -0.39833050      -0.12476156       1.15503365
N       -1.48363716       0.13867176       0.15904588
C       -0.49563693       0.91371948      -0.65484561
C       -1.49368516      -1.05643764      -0.52553065
H        2.36516211       0.18644712      -1.03676437
H        2.44621919      -0.68611565       0.49495405
H        2.14512340       1.05481107       0.48614664
H       -0.56613814      -1.01599054       1.76109572
H       -0.20697750       0.73519537       1.80928695
H       -0.31823952       1.92102676      -0.25724627
H       -0.75353081       0.97785345      -1.71279575
H       -1.85263199      -1.03496533      -1.55105382
H       -1.76671716      -1.94450861       0.03813753
15
Frame=13 idx=004999 GeodesicLength=0.6381555734048083 rxn_smarts="[C:1]([C:2]12[C:3]([H:10])([H:11])[N:4]([C:5]1([H:12])[H:13])[C:6]2([H:14])[H:15])([H:7])([H:8])[H:9]>>[C:1]([C-:2]1[C:3]([H:10])([H:11])[N+:4](=[C:6]([H:14])[H:15])[C:5]1([H:12])[H:13])([H:7])([H:8])[H:9]"
C        1.91772393       0.10039306      -0.04548329
C        0.44348936      -0.17299767      -0.12340358
C       -0.40534643      -0.11396301       1.16060330
N       -1.48999501       0.13933016       0.15965497
C       -0.50257177       0.92359752      -0.64808200
C       -1.46704869      -1.05911227      -0.52836568
H        2.35231388       0.17119431      -1.04545691
H        2.43347029      -0.70321689       0.48546377
H        2.15031332       1.04088412       0.47931062
H       -0.56923436      -1.00305560       1.77102176
H       -0.21668401       0.74952901       1.81037959
H       -0.32745898       1.92881683      -0.24521259
H       -0.75676890       0.99247189      -1.70671680
H       -1.82400893      -1.04319459      -1.55503255
H       -1.73819369      -1.95067688       0.03131938
15
Frame=14 idx=004999 GeodesicLength=0.6888026618723582 rxn_smarts="[C:1]([C:2]12[C:3]([H:10])([H:11])[N:4]([C:5]1([H:12])[H:13])[C:6]2([H:14])[H:15])([H:7])([H:8])[H:9]>>[C:1]([C-:2]1[C:3]([H:10])([H:11])[N+:4](=[C:6]([H:14])[H:15])[C:5]1([H:12])[H:13])([H:7])([H:8])[H:9]"
C        1.91044773       0.08934988      -0.05134173
C        0.43333396      -0.16941853      -0.12087767
C       -0.41225110      -0.10346647       1.16597838
N       -1.49618113       0.13987089       0.16018799
C       -0.50939797       0.93315982      -0.64149945
C       -1.44089539      -1.06126977      -0.53087186
H        2.33952787       0.15625742      -1.05398790
H        2.42073843      -0.72005630       0.47610566
H        2.15531346       1.02702447       0.47256568
H       -0.57219770      -0.99050817       1.78057019
H       -0.22644386       0.76344182       1.81143391
H       -0.33675787       1.93636352      -0.23353267
H       -0.75986745       1.00656910      -1.70080483
H       -1.79554279      -1.05093099      -1.55875700
H       -1.70982620      -1.95638670       0.02483130
15
Frame=15 idx=004999 GeodesicLength=0.7395849783096772 rxn_smarts="[C:1]([C:2]12[C:3]([H:10])([H:11])[N:4]([C:5]1([H:12])[H:13])[C:6]2([H:14])[H:15])([H:7])([H:8])[H:9]>>[C:1]([C-:2]1[C:3]([H:10])([H:11])[N+:4](=[C:6]([H:14])[H:15])[C:5]1([H:12])[H:13])([H:7])([H:8])[H:9]"
C        1.90324213       0.07848509      -0.05710013
C        0.42349064      -0.16583549      -0.11836932
C       -0.41903802      -0.09327447       1.17116144
N       -1.50219251       0.14029784       0.16064759
C       -0.51610970       0.94240793      -0.63510087
C       -1.41521671      -1.06295117      -0.53307393
H        2.32682755       0.14165054      -1.06235047
H        2.40804619      -0.73661424       0.46689338
H        2.16012562       1.01324612       0.46591522
H       -0.57501549      -0.97834997       1.78975095
H       -0.23624524       0.77693448       1.81244887
H       -0.34612494       1.94366677      -0.22220442
H       -0.76281541       1.02015475      -1.69506594
H       -1.76729713      -1.05817742      -1.56222446
H       -1.68167701      -1.96164075       0.01867210
15
Frame=16 idx=004999 GeodesicLength=0.7904766617001195 rxn_smarts="[C:1]([C:2]12[C:3]([H:10])([H:11])[N:4]([C:5]1([H:12])[H:13])[C:6]2([H:14])[H:15])([H:7])([H:8])[H:9]>>[C:1]([C-:2]1[C:3]([H:10])([H:11])[N+:4](=[C:6]([H:14])[H:15])[C:5]1([H:12])[H:13])([H:7])([H:8])[H:9]"
C        1.89611323       0.06780050      -0.06275801
C        0.41395644      -0.16226271      -0.11588651
C       -0.42570257      -0.08338659       1.17615619
N       -1.50802823       0.14061583       0.16103690
C       -0.52270283       0.95134577      -0.62888707
C       -1.39000417      -1.06419375      -0.53499433
H        2.31423304       0.12738313      -1.07054017
H        2.39541330      -0.75287655       0.45783676
H        2.16475330       0.99956031       0.45936142
H       -0.57767928      -0.96657796       1.79857639
H       -0.24607701       0.79001081       1.81342364
H       -0.35554916       1.95072814      -0.21122325
H       -0.76560584       1.03324262      -1.68950310
H       -1.73932290      -1.06494300      -1.56543563
H       -1.65379733      -1.96644656       0.01283677
