12
Frame=0 idx=002493 GeodesicLength=0.0 rxn_smarts="[O:1]([C:2]1([C:5]#[C:6][H:12])[C:3]([H:8])([H:9])[C:4]1([H:10])[H:11])[H:7]>>[C:2]1([C:5]#[C:6][H:12])=[C:4]([H:11])[C:3]1([H:8])[H:9].[O:1]([H:7])[H:10]"
O       -0.63877365       1.57299661      -0.33542416
C       -0.05310742      -0.00023020      -0.02087981
C       -0.98568396      -0.95782408      -0.66272194
C       -1.14351909      -0.47155450       0.75740834
C        1.36082421       0.04004371       0.05808150
C        2.55637031       0.05606354       0.15006929
H       -0.11425745       2.20051656       0.18282492
H       -1.66069829      -0.59071203      -1.43029424
H       -0.54992129      -1.92900956      -0.89110939
H       -1.36877707       1.11386460       0.33305987
H       -1.02066788      -1.09402299       1.63244459
H        3.61821161       0.05986839       0.22654100
12
Frame=1 idx=002493 GeodesicLength=0.07503243147166946 rxn_smarts="[O:1]([C:2]1([C:5]#[C:6][H:12])[C:3]([H:8])([H:9])[C:4]1([H:10])[H:11])[H:7]>>[C:2]1([C:5]#[C:6][H:12])=[C:4]([H:11])[C:3]1([H:8])[H:9].[O:1]([H:7])[H:10]"
O       -0.64194356       1.58448810      -0.33667279
C       -0.05087326      -0.00684355      -0.02981297
C       -0.99070960      -0.96240606      -0.66540089
C       -1.13598797      -0.47609892       0.75558211
C        1.36310149       0.03023303       0.04663731
C        2.55753590       0.05988211       0.14844645
H       -0.09498303       2.20068811       0.17073692
H       -1.66989705      -0.59017036      -1.42671325
H       -0.56348153      -1.93656356      -0.89584783
H       -1.37518309       1.11769494       0.35060677
H       -1.01474059      -1.09654161       1.63217076
H        3.61716230       0.07563778       0.25026740
12
Frame=2 idx=002493 GeodesicLength=0.15005485003371843 rxn_smarts="[O:1]([C:2]1([C:5]#[C:6][H:12])[C:3]([H:8])([H:9])[C:4]1([H:10])[H:11])[H:7]>>[C:2]1([C:5]#[C:6][H:12])=[C:4]([H:11])[C:3]1([H:8])[H:9].[O:1]([H:7])[H:10]"
O       -0.64416116       1.59604205      -0.33763052
C       -0.04854165      -0.01395486      -0.03820641
C       -0.99560356      -0.96699829      -0.66817947
C       -1.12916893      -0.48055266       0.75343560
C        1.36542546       0.01945547       0.03684031
C        2.55852103       0.06192705       0.14880948
H       -0.07503645       2.20034859       0.15845068
H       -1.67808828      -0.58926698      -1.42372960
H       -0.57724422      -1.94428715      -0.90024698
H       -1.38129333       1.12158003       0.36838620
H       -1.01052346      -1.09895391       1.63171616
H        3.61571454       0.09466065       0.27035456
12
Frame=3 idx=002493 GeodesicLength=0.2250806049708614 rxn_smarts="[O:1]([C:2]1([C:5]#[C:6][H:12])[C:3]([H:8])([H:9])[C:4]1([H:10])[H:11])[H:7]>>[C:2]1([C:5]#[C:6][H:12])=[C:4]([H:11])[C:3]1([H:8])[H:9].[O:1]([H:7])[H:10]"
O       -0.64752622       1.60805153      -0.33847978
C       -0.04603336      -0.02058633      -0.04735763
C       -1.00032863      -0.97156133      -0.67086971
C       -1.12119495      -0.48512358       0.75142034
C        1.36796690       0.01015142       0.02505268
C        2.55959009       0.06645059       0.14602839
H       -0.05628118       2.20040286       0.14483438
H       -1.68688110      -0.58861949      -1.42000132
H       -0.59053965      -1.95168680      -0.90488209
H       -1.38754714       1.12506907       0.38742236
H       -1.00405073      -1.10140880       1.63128766
H        3.61282597       0.10886087       0.29554473
12
Frame=4 idx=002493 GeodesicLength=0.30009175293105245 rxn_smarts="[O:1]([C:2]1([C:5]#[C:6][H:12])[C:3]([H:8])([H:9])[C:4]1([H:10])[H:11])[H:7]>>[C:2]1([C:5]#[C:6][H:12])=[C:4]([H:11])[C:3]1([H:8])[H:9].[O:1]([H:7])[H:10]"
O       -0.64999460       1.62016451      -0.33899570
C       -0.04344392      -0.02766134      -0.05581016
C       -1.00477209      -0.97612717      -0.67368949
C       -1.11409313      -0.48959525       0.74904397
C        1.37052081       0.00003154       0.01537227
C        2.56043873       0.06944293       0.14582429
H       -0.03707502       2.19999622       0.13113851
H       -1.69439154      -0.58764368      -1.41704590
H       -0.60378735      -1.95922191      -0.90912849
H       -1.39370779       1.12857126       0.40661954
H       -0.99959141      -1.10373670       1.63065930
H        3.60989732       0.12577958       0.31601186
12
Frame=5 idx=002493 GeodesicLength=0.3751014139695279 rxn_smarts="[O:1]([C:2]1([C:5]#[C:6][H:12])[C:3]([H:8])([H:9])[C:4]1([H:10])[H:11])[H:7]>>[C:2]1([C:5]#[C:6][H:12])=[C:4]([H:11])[C:3]1([H:8])[H:9].[O:1]([H:7])[H:10]"
O       -0.65264293       1.63257718      -0.33930525
C       -0.04071662      -0.03470328      -0.06437227
C       -1.00902947      -0.98068004      -0.67651812
C       -1.10676588      -0.49406575       0.74657768
C        1.37320601      -0.00970683       0.00554796
C        2.56125045       0.07297392       0.14504915
H       -0.01829406       2.19957960       0.11662559
H       -1.70167611      -0.58664569      -1.41403483
H       -0.61682276      -1.96665979      -0.91332015
H       -1.39988223       1.13184966       0.42660338
H       -0.99483610      -1.10600861       1.62995813
H        3.60620969       0.14148962       0.33718873
12
Frame=6 idx=002493 GeodesicLength=0.45010658085814337 rxn_smarts="[O:1]([C:2]1([C:5]#[C:6][H:12])[C:3]([H:8])([H:9])[C:4]1([H:10])[H:11])[H:7]>>[C:2]1([C:5]#[C:6][H:12])=[C:4]([H:11])[C:3]1([H:8])[H:9].[O:1]([H:7])[H:10]"
O       -0.65526007       1.64526044      -0.33937748
C       -0.03785597      -0.04181388      -0.07292007
C       -1.01311077      -0.98521861      -0.67938013
C       -1.09939854      -0.49851199       0.74397824
C        1.37600854      -0.01930397      -0.00406115
C        2.56201275       0.07660895       0.14418621
H        0.00022599       2.19905903       0.10138700
H       -1.70858239      -0.58555368      -1.41110687
H       -0.62972388      -1.97404342      -0.91741197
H       -1.40603652       1.13492684       0.44730437
H       -0.99017830      -1.10821140       1.62915976
H        3.60189916       0.15680169       0.35824210
12
Frame=7 idx=002493 GeodesicLength=0.5251047905876155 rxn_smarts="[O:1]([C:2]1([C:5]#[C:6][H:12])[C:3]([H:8])([H:9])[C:4]1([H:10])[H:11])[H:7]>>[C:2]1([C:5]#[C:6][H:12])=[C:4]([H:11])[C:3]1([H:8])[H:9].[O:1]([H:7])[H:10]"
O       -0.65774065       1.65820964      -0.33918761
C       -0.03487208      -0.04903617      -0.08132581
C       -1.01697717      -0.98974294      -0.68229616
C       -1.09215698      -0.50291429       0.74121128
C        1.37890710      -0.02885735      -0.01309178
C        2.56270360       0.08018483       0.14367843
H        0.01851516       2.19839338       0.08552050
H       -1.71493322      -0.58434116      -1.40840253
H       -0.64245943      -1.98139228      -0.92135535
H       -1.41223035       1.13780541       0.46864658
H       -0.98595650      -1.11032376       1.62824998
H        3.59720050       0.17201468       0.37835247
12
Frame=8 idx=002493 GeodesicLength=0.6000940704985153 rxn_smarts="[O:1]([C:2]1([C:5]#[C:6][H:12])[C:3]([H:8])([H:9])[C:4]1([H:10])[H:11])[H:7]>>[C:2]1([C:5]#[C:6][H:12])=[C:4]([H:11])[C:3]1([H:8])[H:9].[O:1]([H:7])[H:10]"
O       -0.65999024       1.67142004      -0.33871608
C       -0.03176747      -0.05641806      -0.08952970
C       -1.02063870      -0.99425068      -0.68527850
C       -1.08513081      -0.50726139       0.73826625
C        1.38189301      -0.03847235      -0.02137168
C        2.56333634       0.08351696       0.14363139
H        0.03663228       2.19753228       0.06907396
H       -1.72066292      -0.58297218      -1.40599331
H       -0.65506969      -1.98872076      -0.92513660
H       -1.41848308       1.14048196       0.49060843
H       -0.98235915      -1.11233830       1.62722347
H        3.59224044       0.18748248       0.39722238
12
Frame=9 idx=002493 GeodesicLength=0.675075010009145 rxn_smarts="[O:1]([C:2]1([C:5]#[C:6][H:12])[C:3]([H:8])([H:9])[C:4]1([H:10])[H:11])[H:7]>>[C:2]1([C:5]#[C:6][H:12])=[C:4]([H:11])[C:3]1([H:8])[H:9].[O:1]([H:7])[H:10]"
O       -0.66206419       1.68491595      -0.33796185
C       -0.02854277      -0.06393115      -0.09752507
C       -1.02407095      -0.99874157      -0.68832665
C       -1.07831958      -0.51154396       0.73515060
C        1.38496434      -0.04806982      -0.02887861
C        2.56391546       0.08677618       0.14401640
H        0.05448068       2.19650060       0.05202846
H       -1.72575388      -0.58147060      -1.40389255
H       -0.66749949      -1.99601735      -0.92875236
H       -1.42487751       1.14292353       0.51320132
H       -0.97937642      -1.11423757       1.62608704
H        3.58714431       0.20289578       0.41485329
12
Frame=10 idx=002493 GeodesicLength=0.7500683828517998 rxn_smarts="[O:1]([C:2]1([C:5]#[C:6][H:12])[C:3]([H:8])([H:9])[C:4]1([H:10])[H:11])[H:7]>>[C:2]1([C:5]#[C:6][H:12])=[C:4]([H:11])[C:3]1([H:8])[H:9].[O:1]([H:7])[H:10]"
O       -0.66398197       1.69871461      -0.33692440
C       -0.02518768      -0.07157460      -0.10537883
C       -1.02731793      -1.00321655      -0.69144039
C       -1.07166003      -0.51576230       0.73188594
C        1.38814183      -0.05762834      -0.03579188
C        2.56447290       0.08999440       0.14466275
H        0.07205200       2.19530731       0.03428495
H       -1.73030768      -0.57983832      -1.40204931
H       -0.67981210      -2.00328290      -0.93224089
H       -1.43140320       1.14509850       0.53650777
H       -0.97687649      -1.11602533       1.62484852
H        3.58188034       0.21821353       0.43163578
12
Frame=11 idx=002493 GeodesicLength=0.8250128061484384 rxn_smarts="[O:1]([C:2]1([C:5]#[C:6][H:12])[C:3]([H:8])([H:9])[C:4]1([H:10])[H:11])[H:7]>>[C:2]1([C:5]#[C:6][H:12])=[C:4]([H:11])[C:3]1([H:8])[H:9].[O:1]([H:7])[H:10]"
O       -0.66569542       1.71281552      -0.33562901
C       -0.02169541      -0.07937033      -0.11310108
C       -1.03038450      -1.00765781      -0.69461005
C       -1.06513280      -0.51989976       0.72846571
C        1.39140920      -0.06718864      -0.04212711
C        2.56498282       0.09313983       0.14558437
H        0.08930002       2.19389821       0.01587533
H       -1.73431677      -0.57804065      -1.40045528
H       -0.69203478      -2.01049626      -0.93558256
H       -1.43805038       1.14698175       0.56051125
H       -0.97484125      -1.11768662       1.62349311
H        3.57645927       0.23350477       0.44757530
12
Frame=12 idx=002493 GeodesicLength=0.8999606389943722 rxn_smarts="[O:1]([C:2]1([C:5]#[C:6][H:12])[C:3]([H:8])([H:9])[C:4]1([H:10])[H:11])[H:7]>>[C:2]1([C:5]#[C:6][H:12])=[C:4]([H:11])[C:3]1([H:8])[H:9].[O:1]([H:7])[H:10]"
O       -0.66713893       1.72721780      -0.33400278
C       -0.01805898      -0.08737761      -0.12069079
C       -1.03333396      -1.01206126      -0.69786221
C       -1.05876734      -0.52397462       0.72489379
C        1.39479193      -0.07687540      -0.04787908
C        2.56549080       0.09600426       0.14681004
H        0.10639544       2.19223549      -0.00339815
H       -1.73783957      -0.57602057      -1.39911462
H       -0.70429488      -2.01767579      -0.93884115
H       -1.44477593       1.14855469       0.58534746
H       -0.97332919      -1.11926628       1.62200195
H        3.57086061       0.24923928       0.46273555
12
Frame=13 idx=002493 GeodesicLength=0.9748954716598814 rxn_smarts="[O:1]([C:2]1([C:5]#[C:6][H:12])[C:3]([H:8])([H:9])[C:4]1([H:10])[H:11])[H:7]>>[C:2]1([C:5]#[C:6][H:12])=[C:4]([H:11])[C:3]1([H:8])[H:9].[O:1]([H:7])[H:10]"
O       -0.66837666       1.74195908      -0.33208910
C       -0.01427314      -0.09553627      -0.12816850
C       -1.03612227      -1.01642743      -0.70117958
C       -1.05252381      -0.52795723       0.72118736
C        1.39828661      -0.08652566      -0.05310331
C        2.56598984       0.09886526       0.14824548
H        0.12313673       2.19035288      -0.02348677
H       -1.74084878      -0.57383590      -1.39802500
H       -0.71649555      -2.02479567      -0.94198628
H       -1.45168497       1.14976022       0.61098738
H       -0.97225385      -1.12071124       1.62040329
H        3.56516584       0.26485196       0.47721502
12
Frame=14 idx=002493 GeodesicLength=1.0498253058687428 rxn_smarts="[O:1]([C:2]1([C:5]#[C:6][H:12])[C:3]([H:8])([H:9])[C:4]1([H:10])[H:11])[H:7]>>[C:2]1([C:5]#[C:6][H:12])=[C:4]([H:11])[C:3]1([H:8])[H:9].[O:1]([H:7])[H:10]"
O       -0.66934304       1.75704977      -0.32986502
C       -0.01032916      -0.10388603      -0.13553128
C       -1.03878133      -1.02074825      -0.70456993
C       -1.04641331      -0.53184388       0.71734306
C        1.40190340      -0.09621383      -0.05778816
C        2.56650559       0.10157452       0.14993325
H        0.13955775       2.18821820      -0.04445693
H       -1.74336192      -0.57144359      -1.39719202
H       -0.72870582      -2.03186017      -0.94503619
H       -1.45877259       1.15057612       0.63747953
H       -0.97164523      -1.12203403       1.61867747
H        3.55938565       0.28061117       0.49100621
12
Frame=15 idx=002493 GeodesicLength=1.1247432392932855 rxn_smarts="[O:1]([C:2]1([C:5]#[C:6][H:12])[C:3]([H:8])([H:9])[C:4]1([H:10])[H:11])[H:7]>>[C:2]1([C:5]#[C:6][H:12])=[C:4]([H:11])[C:3]1([H:8])[H:9].[O:1]([H:7])[H:10]"
O       -0.67002115       1.77250805      -0.32732878
C       -0.00621723      -0.11242903      -0.14279744
C       -1.04131744      -1.02501392      -0.70803041
C       -1.04041147      -0.53562235       0.71336762
C        1.40564823      -0.10592430      -0.06198154
C        2.56704264       0.10416738       0.15184204
H        0.15561464       2.18581129      -0.06637843
H       -1.74539019      -0.56883293      -1.39660303
H       -0.74094265      -2.03885429      -0.94799612
H       -1.46605688       1.15095544       0.66487086
H       -0.97146054      -1.12322553       1.61682169
H        3.55351205       0.29646019       0.50421354
12
Frame=16 idx=002493 GeodesicLength=1.19964873075937 rxn_smarts="[O:1]([C:2]1([C:5]#[C:6][H:12])[C:3]([H:8])([H:9])[C:4]1([H:10])[H:11])[H:7]>>[C:2]1([C:5]#[C:6][H:12])=[C:4]([H:11])[C:3]1([H:8])[H:9].[O:1]([H:7])[H:10]"
O       -0.67036312       1.78835009      -0.32446396
C       -0.00192777      -0.12118456      -0.14996932
C       -1.04374486      -1.02921210      -0.71156384
C       -1.03451498      -0.53928409       0.70926383
C        1.40952757      -0.11567954      -0.06568912
C        2.56761125       0.10660235       0.15399484
H        0.17129576       2.18309754      -0.08933654
H       -1.74693591      -0.56597456      -1.39625905
H       -0.75324375      -2.04576582      -0.95087768
H       -1.47354892       1.15085264       0.69321584
H       -0.97170103      -1.12428871       1.61482576
H        3.54754576       0.31248676       0.51685924
