12
Frame=0 idx=006780 GeodesicLength=0.0 rxn_smarts="[O:1]=[C:2]([C@@:3]1([H:9])[C:4]([H:10])([H:11])[N:5]1[C:6](=[O:7])[H:12])[H:8]>>[O:1]=[C:2]([C:3]([N:5]=[C:4]([H:10])[H:11])([C:6](=[O:7])[H:12])[H:9])[H:8]"
O        2.31000759       0.36091123      -0.64031154
C        1.21489961      -0.09862377      -0.72058587
C        0.27123145      -0.20915213       0.51373503
C       -0.54942168       1.31514758       0.07170490
N       -1.04052145       0.64806070       1.08507734
C       -0.78536602      -1.27424038       0.29759747
O       -1.17859125      -1.53878524      -0.81322318
H        0.79537350      -0.55854666      -1.62970629
H        0.89785688      -0.20521354       1.39795464
H       -0.84563469       1.10512870      -0.97532110
H        0.03607470       2.23859937       0.20475929
H       -1.12590861      -1.78328582       1.20831931
12
Frame=1 idx=006780 GeodesicLength=0.10314413304535268 rxn_smarts="[O:1]=[C:2]([C@@:3]1([H:9])[C:4]([H:10])([H:11])[N:5]1[C:6](=[O:7])[H:12])[H:8]>>[O:1]=[C:2]([C:3]([N:5]=[C:4]([H:10])[H:11])([C:6](=[O:7])[H:12])[H:9])[H:8]"
O        2.33934625       0.30247504      -0.62525013
C        1.22465581      -0.10691109      -0.71213313
C        0.27983595      -0.19451238       0.51771343
C       -0.55636773       1.32163108       0.06061811
N       -1.03463719       0.63555783       1.06905052
C       -0.79424398      -1.27043468       0.29651042
O       -1.21835821      -1.52628292      -0.80416967
H        0.79079714      -0.52875845      -1.63344336
H        0.90184275      -0.19185286       1.40593104
H       -0.84934976       1.11227703      -0.98612043
H       -0.00036772       2.26008326       0.20529221
H       -1.08315332      -1.81327184       1.20600099
12
Frame=2 idx=006780 GeodesicLength=0.2059852566462158 rxn_smarts="[O:1]=[C:2]([C@@:3]1([H:9])[C:4]([H:10])([H:11])[N:5]1[C:6](=[O:7])[H:12])[H:8]>>[O:1]=[C:2]([C:3]([N:5]=[C:4]([H:10])[H:11])([C:6](=[O:7])[H:12])[H:9])[H:8]"
O        2.36739955       0.23993012      -0.61007682
C        1.23437066      -0.11498039      -0.70374497
C        0.28893678      -0.17917046       0.52169502
C       -0.56347994       1.32818677       0.04968152
N       -1.02799359       0.62365303       1.05345153
C       -0.80284051      -1.26654202       0.29571577
O       -1.25809801      -1.51372918      -0.79370476
H        0.78781561      -0.49794001      -1.63643467
H        0.90640830      -0.17770085       1.41379842
H       -0.85385242       1.11923614      -0.99654418
H       -0.03908606       2.28155402       0.20578646
H       -1.03958037      -1.84249717       1.20037669
12
Frame=3 idx=006780 GeodesicLength=0.30836191203426283 rxn_smarts="[O:1]=[C:2]([C@@:3]1([H:9])[C:4]([H:10])([H:11])[N:5]1[C:6](=[O:7])[H:12])[H:8]>>[O:1]=[C:2]([C:3]([N:5]=[C:4]([H:10])[H:11])([C:6](=[O:7])[H:12])[H:9])[H:8]"
O        2.39361486       0.17403252      -0.59522396
C        1.24418153      -0.12278638      -0.69523376
C        0.29850525      -0.16311765       0.52569317
C       -0.57077313       1.33483620       0.03897982
N       -1.02065955       0.61229469       1.03826801
C       -0.81122294      -1.26253907       0.29502487
O       -1.29815275      -1.50093215      -0.78186077
H        0.78679743      -0.46696337      -1.63826825
H        0.91149268      -0.16291144       1.42159226
H       -0.85883299       1.12610384      -1.00661723
H       -0.07997257       2.30277920       0.20630908
H       -0.99497782      -1.87079641       1.19133677
12
Frame=4 idx=006780 GeodesicLength=0.41034482580511333 rxn_smarts="[O:1]=[C:2]([C@@:3]1([H:9])[C:4]([H:10])([H:11])[N:5]1[C:6](=[O:7])[H:12])[H:8]>>[O:1]=[C:2]([C:3]([N:5]=[C:4]([H:10])[H:11])([C:6](=[O:7])[H:12])[H:9])[H:8]"
O        2.41776993       0.10392196      -0.58028209
C        1.25417867      -0.13031932      -0.68670515
C        0.30868821      -0.14627589       0.52965891
C       -0.57819726       1.34156266       0.02840385
N       -1.01249576       0.60150598       1.02346657
C       -0.81921718      -1.25844420       0.29465914
O       -1.33801735      -1.48814610      -0.76844755
H        0.78766583      -0.43483343      -1.63939003
H        0.91728822      -0.14729121       1.42924043
H       -0.86450225       1.13270679      -1.01635323
H       -0.12330024       2.32370158       0.20683416
H       -0.94986081      -1.89808883       1.17891500
12
Frame=5 idx=006780 GeodesicLength=0.5119547892979297 rxn_smarts="[O:1]=[C:2]([C@@:3]1([H:9])[C:4]([H:10])([H:11])[N:5]1[C:6](=[O:7])[H:12])[H:8]>>[O:1]=[C:2]([C:3]([N:5]=[C:4]([H:10])[H:11])([C:6](=[O:7])[H:12])[H:9])[H:8]"
O        2.43933483       0.03007327      -0.56558984
C        1.26447887      -0.13755341      -0.67786756
C        0.31941170      -0.12859384       0.53366449
C       -0.58578973       1.34841377       0.01800202
N       -1.00361622       0.59128476       1.00900201
C       -0.82694561      -1.25419691       0.29444057
O       -1.37818015      -1.47511062      -0.75341050
H        0.79063458      -0.40220231      -1.63934060
H        0.92363915      -0.13092258       1.43687015
H       -0.87049504       1.13915256      -1.02582975
H       -0.16894013       2.34411082       0.20723829
H       -0.90353224      -1.92445551       1.16282069
12
Frame=6 idx=006780 GeodesicLength=0.6132063023133175 rxn_smarts="[O:1]=[C:2]([C@@:3]1([H:9])[C:4]([H:10])([H:11])[N:5]1[C:6](=[O:7])[H:12])[H:8]>>[O:1]=[C:2]([C:3]([N:5]=[C:4]([H:10])[H:11])([C:6](=[O:7])[H:12])[H:9])[H:8]"
O        2.45787648      -0.04839051      -0.55081862
C        1.27520396      -0.14441121      -0.66887597
C        0.33085087      -0.10998702       0.53760841
C       -0.59350695       1.35535730       0.00768328
N       -0.99386256       0.58162655       0.99483222
C       -0.83417824      -1.24982009       0.29457386
O       -1.41804940      -1.46207279      -0.73659228
H        0.79582950      -0.36818172      -1.63848762
H        0.93078969      -0.11360471       1.44433201
H       -0.87704330       1.14526581      -1.03502976
H       -0.21725365       2.36386757       0.20763613
H       -0.85665640      -1.94964919       1.14313834
12
Frame=7 idx=006780 GeodesicLength=0.7139425542290868 rxn_smarts="[O:1]=[C:2]([C@@:3]1([H:9])[C:4]([H:10])([H:11])[N:5]1[C:6](=[O:7])[H:12])[H:8]>>[O:1]=[C:2]([C:3]([N:5]=[C:4]([H:10])[H:11])([C:6](=[O:7])[H:12])[H:9])[H:8]"
O        2.47277195      -0.12945709      -0.53648168
C        1.28651681      -0.15115982      -0.65948382
C        0.34300956      -0.09061062       0.54154809
C       -0.60122307       1.36230445      -0.00247117
N       -0.98318505       0.57243674       0.98096830
C       -0.84105119      -1.24536215       0.29487255
O       -1.45809508      -1.44888507      -0.71791434
H        0.80353105      -0.33372234      -1.63644692
H        0.93871275      -0.09577985       1.45170722
H       -0.88364502       1.15102385      -1.04399320
H       -0.26784718       2.38257641       0.20787781
H       -0.80949554      -1.97336450       1.11981717
12
Frame=8 idx=006780 GeodesicLength=0.8143475999074173 rxn_smarts="[O:1]=[C:2]([C@@:3]1([H:9])[C:4]([H:10])([H:11])[N:5]1[C:6](=[O:7])[H:12])[H:8]>>[O:1]=[C:2]([C:3]([N:5]=[C:4]([H:10])[H:11])([C:6](=[O:7])[H:12])[H:9])[H:8]"
O        2.48359539      -0.21361549      -0.52236736
C        1.29849585      -0.15780549      -0.64971399
C        0.35597118      -0.07038677       0.54544088
C       -0.60889030       1.36926946      -0.01255746
N       -0.97150036       0.56375190       0.96734876
C       -0.84751507      -1.24081055       0.29547870
O       -1.49811833      -1.43562652      -0.69718857
H        0.81387754      -0.29823908      -1.63336083
H        0.94750654      -0.07730209       1.45896009
H       -0.89034810       1.15633700      -1.05278223
H       -0.32092540       2.40008226       0.20794464
H       -0.76214895      -1.99565462       1.09279738
12
Frame=9 idx=006780 GeodesicLength=0.9146013075779049 rxn_smarts="[O:1]=[C:2]([C@@:3]1([H:9])[C:4]([H:10])([H:11])[N:5]1[C:6](=[O:7])[H:12])[H:8]>>[O:1]=[C:2]([C:3]([N:5]=[C:4]([H:10])[H:11])([C:6](=[O:7])[H:12])[H:9])[H:8]"
O        2.48975309      -0.30132310      -0.50846133
C        1.31123284      -0.16427236      -0.63944185
C        0.36975417      -0.04919581       0.54929900
C       -0.61654851       1.37625163      -0.02264349
N       -0.95881587       0.55562113       0.95391794
C       -0.85357066      -1.23609044       0.29651054
O       -1.53807803      -1.42223775      -0.67416114
H        0.82708735      -0.26135874      -1.62909182
H        0.95716922      -0.05800200       1.46610611
H       -0.89710857       1.16110579      -1.06145526
H       -0.37655399       2.41610210       0.20770731
H       -0.71432104      -2.01660046       1.06171400
12
Frame=10 idx=006780 GeodesicLength=1.0145608995923883 rxn_smarts="[O:1]=[C:2]([C@@:3]1([H:9])[C:4]([H:10])([H:11])[N:5]1[C:6](=[O:7])[H:12])[H:8]>>[O:1]=[C:2]([C:3]([N:5]=[C:4]([H:10])[H:11])([C:6](=[O:7])[H:12])[H:9])[H:8]"
O        2.49108545      -0.38965063      -0.49512851
C        1.32474259      -0.17110818      -0.62854077
C        0.38439749      -0.02733750       0.55313764
C       -0.62394095       1.38309623      -0.03269029
N       -0.94496102       0.54795242       0.94067936
C       -0.85939807      -1.23128914       0.29784732
O       -1.57849342      -1.40858796      -0.64854764
H        0.84332609      -0.22404977      -1.62340504
H        0.96770000      -0.03854717       1.47317216
H       -0.90344264       1.16520603      -1.07003355
H       -0.43421528       2.43019578       0.20693706
H       -0.66680024      -2.03588011       1.02657226
12
Frame=11 idx=006780 GeodesicLength=1.1143585538089424 rxn_smarts="[O:1]=[C:2]([C@@:3]1([H:9])[C:4]([H:10])([H:11])[N:5]1[C:6](=[O:7])[H:12])[H:8]>>[O:1]=[C:2]([C:3]([N:5]=[C:4]([H:10])[H:11])([C:6](=[O:7])[H:12])[H:9])[H:8]"
O        2.48743285      -0.47855911      -0.48233587
C        1.33906543      -0.17834010      -0.61713598
C        0.40001691      -0.00481641       0.55685785
C       -0.63100134       1.38975565      -0.04279033
N       -0.92984267       0.54069263       0.92755078
C       -0.86492825      -1.22646019       0.29960053
O       -1.61906655      -1.39479144      -0.62018416
H        0.86287870      -0.18578142      -1.61645170
H        0.97924710      -0.01890762       1.48006262
H       -0.90941486       1.16850949      -1.07857461
H       -0.49406566       2.44202998       0.20575166
H       -0.62032168      -2.05333146       0.98764921
12
Frame=12 idx=006780 GeodesicLength=1.213813062674034 rxn_smarts="[O:1]=[C:2]([C@@:3]1([H:9])[C:4]([H:10])([H:11])[N:5]1[C:6](=[O:7])[H:12])[H:8]>>[O:1]=[C:2]([C:3]([N:5]=[C:4]([H:10])[H:11])([C:6](=[O:7])[H:12])[H:9])[H:8]"
O        2.47933850      -0.56543980      -0.47029996
C        1.35409711      -0.18633364      -0.60539895
C        0.41670686       0.01804607       0.56031192
C       -0.63743255       1.39604808      -0.05287854
N       -0.91326168       0.53360596       0.91445811
C       -0.87025895      -1.22171866       0.30151457
O       -1.65998584      -1.38082787      -0.58894315
H        0.88587423      -0.14715106      -1.60826323
H        0.99186303       0.00020812       1.48661279
H       -0.91472515       1.17094121      -1.08700320
H       -0.55582859       2.45109334       0.20412050
H       -0.57638696      -2.06847174       0.94576915
12
Frame=13 idx=006780 GeodesicLength=1.3131727065102545 rxn_smarts="[O:1]=[C:2]([C@@:3]1([H:9])[C:4]([H:10])([H:11])[N:5]1[C:6](=[O:7])[H:12])[H:8]>>[O:1]=[C:2]([C:3]([N:5]=[C:4]([H:10])[H:11])([C:6](=[O:7])[H:12])[H:9])[H:8]"
O        2.46697003      -0.65037434      -0.45898503
C        1.36975088      -0.19504337      -0.59324104
C        0.43442501       0.04133030       0.56355134
C       -0.64333831       1.40201385      -0.06305515
N       -0.89529660       0.52679609       0.90135329
C       -0.87552778      -1.21697050       0.30370243
O       -1.70148898      -1.36650341      -0.55432161
H        0.91244021      -0.10799403      -1.59866512
H        1.00543609       0.01888004       1.49294260
H       -0.91937852       1.17242271      -1.09544751
H       -0.61938001       2.45710859       0.20179857
H       -0.53461201      -2.08166593       0.90036723
12
Frame=14 idx=006780 GeodesicLength=1.4127536964369067 rxn_smarts="[O:1]=[C:2]([C@@:3]1([H:9])[C:4]([H:10])([H:11])[N:5]1[C:6](=[O:7])[H:12])[H:8]>>[O:1]=[C:2]([C:3]([N:5]=[C:4]([H:10])[H:11])([C:6](=[O:7])[H:12])[H:9])[H:8]"
O        2.45027176      -0.73358541      -0.44835498
C        1.38594522      -0.20438835      -0.58055469
C        0.45313667       0.06512575       0.56661470
C       -0.64879537       1.40762156      -0.07344456
N       -0.87598418       0.52034052       0.88818802
C       -0.88086354      -1.21213055       0.30639040
O       -1.74372696      -1.35163503      -0.51561841
H        0.94284538      -0.06792235      -1.58739225
H        1.01986762       0.03724299       1.49911546
H       -0.92337351       1.17275454      -1.10400426
H       -0.68462081       2.45973318       0.19846805
H       -0.49470230      -2.09315685       0.85059253
12
Frame=15 idx=006780 GeodesicLength=1.512683566417185 rxn_smarts="[O:1]=[C:2]([C@@:3]1([H:9])[C:4]([H:10])([H:11])[N:5]1[C:6](=[O:7])[H:12])[H:8]>>[O:1]=[C:2]([C:3]([N:5]=[C:4]([H:10])[H:11])([C:6](=[O:7])[H:12])[H:9])[H:8]"
O        2.42953176      -0.81425477      -0.43851542
C        1.40255138      -0.21425366      -0.56728470
C        0.47278703       0.08939924       0.56950983
C       -0.65385598       1.41273318      -0.08415812
N       -0.85536799       0.51417916       0.87486954
C       -0.88638250      -1.20721130       0.30967217
O       -1.78681802      -1.33612369      -0.47211608
H        0.97723262      -0.02698315      -1.57414737
H        1.03501287       0.05523162       1.50515075
H       -0.92665410       1.17169281      -1.11275130
H       -0.75098862       2.45851843       0.19391516
H       -0.45704844      -2.10292787       0.79585554
12
Frame=16 idx=006780 GeodesicLength=1.6127140267689974 rxn_smarts="[O:1]=[C:2]([C@@:3]1([H:9])[C:4]([H:10])([H:11])[N:5]1[C:6](=[O:7])[H:12])[H:8]>>[O:1]=[C:2]([C:3]([N:5]=[C:4]([H:10])[H:11])([C:6](=[O:7])[H:12])[H:9])[H:8]"
O        2.40578511      -0.89090534      -0.42949831
C        1.41944194      -0.22467049      -0.55371816
C        0.49344570       0.11395939       0.57211270
C       -0.65840025       1.41729786      -0.09511806
N       -0.83338649       0.50812002       0.86131002
C       -0.89212200      -1.20226757       0.31321244
O       -1.83062238      -1.31992520      -0.42360019
H        1.01557721       0.01423570      -1.55902569
H        1.05087940       0.07234350       1.51096332
H       -0.92914554       1.16929989      -1.12164111
H       -0.81843946       2.45311666       0.18820528
H       -0.42301323      -2.11060442       0.73679777
