13
Frame=0 idx=008518 GeodesicLength=0.0 rxn_smarts="[O:1]=[C:2]1[C:3]([H:8])([H:9])[O:4][C@@:5]2([H:10])[C:6]([H:11])([H:12])[C@@:7]12[H:13]>>[O:1]=[C:2]([C:3]([O:4][H:11])([H:8])[H:9])[C:7]1([H:13])[C:5]([H:10])=[C:6]1[H:12]"
O        1.47058831       1.95457519       0.42513574
C        0.80826521       0.98594120       0.17284884
C        1.43767104      -0.38604347      -0.10081976
O        0.35715367      -1.33078025      -0.26461067
C       -1.01182504      -0.44510184      -0.55398344
C       -1.38627591      -0.21899109       0.79272023
C       -0.64906841       0.88535552      -0.02890917
H        2.08494049      -0.71406985       0.70956170
H        2.00452547      -0.35021045      -1.03071670
H       -1.43239633      -0.77143391      -1.49293359
H       -0.11397321      -1.34316960       0.68812485
H       -2.41203500      -0.03516769       1.08219333
H       -1.15757031       1.76909618      -0.39861134
13
Frame=1 idx=008518 GeodesicLength=0.07856299842641166 rxn_smarts="[O:1]=[C:2]1[C:3]([H:8])([H:9])[O:4][C@@:5]2([H:10])[C:6]([H:11])([H:12])[C@@:7]12[H:13]>>[O:1]=[C:2]([C:3]([O:4][H:11])([H:8])[H:9])[C:7]1([H:13])[C:5]([H:10])=[C:6]1[H:12]"
O        1.47152387       1.95858262       0.40013946
C        0.80937439       0.98466908       0.16771496
C        1.44007614      -0.38784200      -0.09863766
O        0.36535635      -1.33510966      -0.27124704
C       -1.01654863      -0.43948282      -0.56241450
C       -1.38601559      -0.22195436       0.78506826
C       -0.65022799       0.88726843      -0.02627785
H        2.07714300      -0.71093556       0.72256976
H        2.02066441      -0.35145250      -1.01989316
H       -1.44200827      -0.76459083      -1.49918423
H       -0.12291573      -1.35003396       0.69344544
H       -2.40741235      -0.04494367       1.09233266
H       -1.15900960       1.77582524      -0.38361610
13
Frame=2 idx=008518 GeodesicLength=0.15712991030152046 rxn_smarts="[O:1]=[C:2]1[C:3]([H:8])([H:9])[O:4][C@@:5]2([H:10])[C:6]([H:11])([H:12])[C@@:7]12[H:13]>>[O:1]=[C:2]([C:3]([O:4][H:11])([H:8])[H:9])[C:7]1([H:13])[C:5]([H:10])=[C:6]1[H:12]"
O        1.47230136       1.96230479       0.37498926
C        0.81048915       0.98342926       0.16239076
C        1.44249287      -0.38960895      -0.09647209
O        0.37374061      -1.33945810      -0.27800594
C       -1.02134536      -0.43371863      -0.57091499
C       -1.38576427      -0.22485473       0.77730508
C       -0.65136161       0.88918430      -0.02368187
H        2.06908212      -0.70769234       0.73551008
H        2.03690171      -0.35267180      -1.00874593
H       -1.45174409      -0.75761631      -1.50544854
H       -0.13202028      -1.35681409       0.69904243
H       -2.40243512      -0.05496451       1.10250440
H       -1.16033710       1.78248112      -0.36847264
13
Frame=3 idx=008518 GeodesicLength=0.23568991516189342 rxn_smarts="[O:1]=[C:2]1[C:3]([H:8])([H:9])[O:4][C@@:5]2([H:10])[C:6]([H:11])([H:12])[C@@:7]12[H:13]>>[O:1]=[C:2]([C:3]([O:4][H:11])([H:8])[H:9])[C:7]1([H:13])[C:5]([H:10])=[C:6]1[H:12]"
O        1.47291042       1.96573030       0.34970377
C        0.81160266       0.98221448       0.15687188
C        1.44491679      -0.39134252      -0.09432940
O        0.38231352      -1.34382158      -0.28489940
C       -1.02621628      -0.42780984      -0.57948411
C       -1.38552062      -0.22768992       0.76942987
C       -0.65246852       0.89109727      -0.02112443
H        2.06074418      -0.70434239       0.74836657
H        2.05323146      -0.35385698      -0.99726794
H       -1.46160072      -0.75051395      -1.51172303
H       -0.14129087      -1.36349360       0.70493927
H       -2.39708205      -0.06522376       1.11270185
H       -1.16153996       1.78905248      -0.35318490
13
Frame=4 idx=008518 GeodesicLength=0.3142443785642458 rxn_smarts="[O:1]=[C:2]1[C:3]([H:8])([H:9])[O:4][C@@:5]2([H:10])[C:6]([H:11])([H:12])[C@@:7]12[H:13]>>[O:1]=[C:2]([C:3]([O:4][H:11])([H:8])[H:9])[C:7]1([H:13])[C:5]([H:10])=[C:6]1[H:12]"
O        1.47335662       1.96887810       0.32419100
C        0.81271468       0.98102219       0.15115129
C        1.44734783      -0.39304867      -0.09219476
O        0.39108516      -1.34819768      -0.29195517
C       -1.03116308      -0.42174421      -0.58812763
C       -1.38528004      -0.23046725       0.76143502
C       -0.65354859       0.89300816      -0.01859682
H        2.05209751      -0.70088712       0.76116698
H        2.06967541      -0.35501734      -0.98541057
H       -1.47158837      -0.74325210      -1.51801258
H       -0.15074113      -1.37008365       0.71113527
H       -2.39133192      -0.07575659       1.12292276
H       -1.16262407       1.79554617      -0.33770478
13
Frame=5 idx=008518 GeodesicLength=0.39281028818947095 rxn_smarts="[O:1]=[C:2]1[C:3]([H:8])([H:9])[O:4][C@@:5]2([H:10])[C:6]([H:11])([H:12])[C@@:7]12[H:13]>>[O:1]=[C:2]([C:3]([O:4][H:11])([H:8])[H:9])[C:7]1([H:13])[C:5]([H:10])=[C:6]1[H:12]"
O        1.47364657       1.97174736       0.29846779
C        0.81382828       0.97985125       0.14522470
C        1.44978877      -0.39472489      -0.09007337
O        0.40006026      -1.35258723      -0.29918605
C       -1.03619726      -0.41552372      -0.59684741
C       -1.38504650      -0.23319070       0.75332323
C       -0.65460100       0.89491522      -0.01610471
H        2.04313892      -0.69733312       0.77390202
H        2.08623420      -0.35613317      -0.97316678
H       -1.48172569      -0.73583525      -1.52431925
H       -0.16037704      -1.37657559       0.71766458
H       -2.38517372      -0.08657011       1.13315848
H       -1.16357578       1.80195997      -0.32204323
13
Frame=6 idx=008518 GeodesicLength=0.4713804489616632 rxn_smarts="[O:1]=[C:2]1[C:3]([H:8])([H:9])[O:4][C@@:5]2([H:10])[C:6]([H:11])([H:12])[C@@:7]12[H:13]>>[O:1]=[C:2]([C:3]([O:4][H:11])([H:8])[H:9])[C:7]1([H:13])[C:5]([H:10])=[C:6]1[H:12]"
O        1.47377223       1.97433113       0.27254454
C        0.81493912       0.97869477       0.13909117
C        1.45223753      -0.39637186      -0.08797060
O        0.40924891      -1.35698871      -0.30660439
C       -1.04132073      -0.40914760      -0.60564171
C       -1.38481972      -0.23585813       0.74509227
C       -0.65562484       0.89681453      -0.01365069
H        2.03386084      -0.69368595       0.78655334
H        2.10289907      -0.35719249      -0.96052592
H       -1.49201414      -0.72826395      -1.53063725
H       -0.17020408      -1.38295390       0.72455738
H       -2.37859043      -0.09766430       1.14339201
H       -1.16438376       1.80828645      -0.30620016
13
Frame=7 idx=008518 GeodesicLength=0.5499574589705738 rxn_smarts="[O:1]=[C:2]1[C:3]([H:8])([H:9])[O:4][C@@:5]2([H:10])[C:6]([H:11])([H:12])[C@@:7]12[H:13]>>[O:1]=[C:2]([C:3]([O:4][H:11])([H:8])[H:9])[C:7]1([H:13])[C:5]([H:10])=[C:6]1[H:12]"
O        1.47373483       1.97662941       0.24642459
C        0.81604657       0.97754839       0.13275168
C        1.45469421      -0.39798958      -0.08588974
O        0.41866031      -1.36140170      -0.31422425
C       -1.04653899      -0.40261521      -0.61451114
C       -1.38460143      -0.23847121       0.73674063
C       -0.65661904       0.89870300      -0.01123788
H        2.02425852      -0.68995237       0.79910808
H        2.11966293      -0.35818133      -0.94747670
H       -1.50246155      -0.72053806      -1.53696562
H       -0.18023107      -1.38920726       0.73184714
H       -2.37156809      -0.10904513       1.15360820
H       -1.16503720       1.81452105      -0.29017500
13
Frame=8 idx=008518 GeodesicLength=0.6285404083664915 rxn_smarts="[O:1]=[C:2]1[C:3]([H:8])([H:9])[O:4][C@@:5]2([H:10])[C:6]([H:11])([H:12])[C@@:7]12[H:13]>>[O:1]=[C:2]([C:3]([O:4][H:11])([H:8])[H:9])[C:7]1([H:13])[C:5]([H:10])=[C:6]1[H:12]"
O        1.47352506       1.97863118       0.22011491
C        0.81714649       0.97640486       0.12620630
C        1.45715800      -0.39957797      -0.08383723
O        0.42830555      -1.36582272      -0.32206369
C       -1.05185665      -0.39592591      -0.62345352
C       -1.38439055      -0.24102902       0.72826846
C       -0.65758195       0.90057770      -0.00886826
H        2.01432085      -0.68614209       0.81154926
H        2.13652166      -0.35908280      -0.93400671
H       -1.51307463      -0.71265853      -1.54329705
H       -0.19046182      -1.39531681       0.73957101
H       -2.36409058      -0.12071578       1.16378498
H       -1.16552143       1.82065789      -0.27396847
13
Frame=9 idx=008518 GeodesicLength=0.7071242206560501 rxn_smarts="[O:1]=[C:2]1[C:3]([H:8])([H:9])[O:4][C@@:5]2([H:10])[C:6]([H:11])([H:12])[C@@:7]12[H:13]>>[O:1]=[C:2]([C:3]([O:4][H:11])([H:8])[H:9])[C:7]1([H:13])[C:5]([H:10])=[C:6]1[H:12]"
O        1.47314244       1.98034861       0.19351267
C        0.81823659       0.97526093       0.11944853
C        1.45962575      -0.40114118      -0.08179804
O        0.43820039      -1.37024474      -0.33015931
C       -1.05727360      -0.38906832      -0.63247422
C       -1.38418105      -0.24354436       0.71966725
C       -0.65851463       0.90243277      -0.00653202
H        2.00400609      -0.68225787       0.82389950
H        2.15349157      -0.35990353      -0.92005621
H       -1.52385277      -0.70458809      -1.54964176
H       -0.20091291      -1.40128839       0.74773604
H       -2.35612553      -0.13269685       1.17392259
H       -1.16584235       1.82669102      -0.25752500
13
Frame=10 idx=008518 GeodesicLength=0.7857295110361638 rxn_smarts="[O:1]=[C:2]1[C:3]([H:8])([H:9])[O:4][C@@:5]2([H:10])[C:6]([H:11])([H:12])[C@@:7]12[H:13]>>[O:1]=[C:2]([C:3]([O:4][H:11])([H:8])[H:9])[C:7]1([H:13])[C:5]([H:10])=[C:6]1[H:12]"
O        1.47259078       1.98177955       0.16661601
C        0.81932047       0.97411441       0.11247870
C        1.46210145      -0.40267759      -0.07977753
O        0.44835419      -1.37466639      -0.33853506
C       -1.06280305      -0.38204410      -0.64157392
C       -1.38397622      -0.24602465       0.71094188
C       -0.65941475       0.90426604      -0.00423109
H        1.99330773      -0.67831219       0.83614917
H        2.17057530      -0.36061949      -0.90561026
H       -1.53481667      -0.69632631      -1.55600216
H       -0.21159185      -1.40710886       0.75639065
H       -2.34766456      -0.14499819       1.18399966
H       -1.16598283       1.83261777      -0.24084606
13
Frame=11 idx=008518 GeodesicLength=0.8643477144383094 rxn_smarts="[O:1]=[C:2]1[C:3]([H:8])([H:9])[O:4][C@@:5]2([H:10])[C:6]([H:11])([H:12])[C@@:7]12[H:13]>>[O:1]=[C:2]([C:3]([O:4][H:11])([H:8])[H:9])[C:7]1([H:13])[C:5]([H:10])=[C:6]1[H:12]"
O        1.47185704       1.98290570       0.13944213
C        0.82039173       0.97295441       0.10529932
C        1.46458333      -0.40418672      -0.07778499
O        0.45878461      -1.37908067      -0.34721311
C       -1.06844689      -0.37485482      -0.65074865
C       -1.38377448      -0.24846969       0.70209106
C       -0.66028155       0.90606975      -0.00196895
H        1.98221392      -0.67431777       0.84826995
H        2.18776066      -0.36120868      -0.89065627
H       -1.54596579      -0.68787627      -1.56236861
H       -0.22250392      -1.41275006       0.76558093
H       -2.33869083      -0.15760886       1.19399032
H       -1.16592783       1.83842367      -0.22393312
13
Frame=12 idx=008518 GeodesicLength=0.9429755916184598 rxn_smarts="[O:1]=[C:2]1[C:3]([H:8])([H:9])[O:4][C@@:5]2([H:10])[C:6]([H:11])([H:12])[C@@:7]12[H:13]>>[O:1]=[C:2]([C:3]([O:4][H:11])([H:8])[H:9])[C:7]1([H:13])[C:5]([H:10])=[C:6]1[H:12]"
O        1.47093622       1.98371976       0.11209276
C        0.82144900       0.97177246       0.09793055
C        1.46707208      -0.40567034      -0.07584401
O        0.46950213      -1.38349601      -0.35619623
C       -1.07421164      -0.36751195      -0.65998966
C       -1.38357870      -0.25087541       0.69312063
C       -0.66111232       0.90783944       0.00024108
H        1.97076156      -0.67029923       0.86020301
H        2.20500085      -0.36163221      -0.87522691
H       -1.55730613      -0.67926443      -1.56872816
H       -0.23364936      -1.41817277       0.77539043
H       -2.32920974      -0.17050765       1.20384220
H       -1.16565397       1.84409834      -0.20683567
13
Frame=13 idx=008518 GeodesicLength=1.0216098368623796 rxn_smarts="[O:1]=[C:2]1[C:3]([H:8])([H:9])[O:4][C@@:5]2([H:10])[C:6]([H:11])([H:12])[C@@:7]12[H:13]>>[O:1]=[C:2]([C:3]([O:4][H:11])([H:8])[H:9])[C:7]1([H:13])[C:5]([H:10])=[C:6]1[H:12]"
O        1.46981749       1.98421608       0.08447618
C        0.82248831       0.97056189       0.09036755
C        1.46956837      -0.40712974      -0.07394493
O        0.48053424      -1.38789429      -0.36553280
C       -1.08009800      -0.36000480      -0.66929746
C       -1.38338144      -0.25325564       0.68402286
C       -0.66190922       0.90956415       0.00240966
H        1.95890600      -0.66626559       0.87195900
H        2.22231261      -0.36189164      -0.85926204
H       -1.56883800      -0.67045846      -1.57508087
H       -0.24504204      -1.42336868       0.78584058
H       -2.31919363      -0.18369711       1.21354155
H       -1.16516468       1.84962383      -0.18949928
13
Frame=14 idx=008518 GeodesicLength=1.1002669092257684 rxn_smarts="[O:1]=[C:2]1[C:3]([H:8])([H:9])[O:4][C@@:5]2([H:10])[C:6]([H:11])([H:12])[C@@:7]12[H:13]>>[O:1]=[C:2]([C:3]([O:4][H:11])([H:8])[H:9])[C:7]1([H:13])[C:5]([H:10])=[C:6]1[H:12]"
O        1.46850238       1.98439385       0.05659208
C        0.82351259       0.96931933       0.08261796
C        1.47207517      -0.40856485      -0.07209767
O        0.49189587      -1.39227369      -0.37525835
C       -1.08611642      -0.35233888      -0.67867038
C       -1.38318171      -0.25562257       0.67480674
C       -0.66266804       0.91123968       0.00453768
H        1.94664022      -0.66224036       0.88351993
H        2.23969001      -0.36195596      -0.84274983
H       -1.58057740      -0.66146052      -1.58142806
H       -0.25668841      -1.42831224       0.79700281
H       -2.30864532      -0.19717917       1.22304995
H       -1.16443896       1.85499537      -0.17192286
13
Frame=15 idx=008518 GeodesicLength=1.178942932896773 rxn_smarts="[O:1]=[C:2]1[C:3]([H:8])([H:9])[O:4][C@@:5]2([H:10])[C:6]([H:11])([H:12])[C@@:7]12[H:13]>>[O:1]=[C:2]([C:3]([O:4][H:11])([H:8])[H:9])[C:7]1([H:13])[C:5]([H:10])=[C:6]1[H:12]"
O        1.46698029       1.98424032       0.02845642
C        0.82451967       0.96803405       0.07469159
C        1.47459436      -0.40997783      -0.07031472
O        0.50361125      -1.39662766      -0.38540594
C       -1.09226928      -0.34451807      -0.68810134
C       -1.38297424      -0.25798368       0.66547468
C       -0.66338705       0.91285525       0.00662458
H        1.93396259      -0.65824770       0.89485165
H        2.25711339      -0.36179835      -0.82568180
H       -1.59252671      -0.65227153      -1.58775903
H       -0.26859259      -1.43296321       0.80894954
H       -2.29756793      -0.21093578       1.23231741
H       -1.16346376       1.86019420      -0.15410305
13
Frame=16 idx=008518 GeodesicLength=1.2576290287039156 rxn_smarts="[O:1]=[C:2]1[C:3]([H:8])([H:9])[O:4][C@@:5]2([H:10])[C:6]([H:11])([H:12])[C@@:7]12[H:13]>>[O:1]=[C:2]([C:3]([O:4][H:11])([H:8])[H:9])[C:7]1([H:13])[C:5]([H:10])=[C:6]1[H:12]"
O        1.46524449       1.98374477       0.00019762
C        0.82550545       0.96669297       0.06661465
C        1.47713042      -0.41137016      -0.06862786
O        0.51570339      -1.40095561      -0.39599683
C       -1.09856163      -0.33655958      -0.69757713
C       -1.38275810      -0.26034210       0.65603550
C       -0.66406619       0.91439879       0.00865852
H        1.92091224      -0.65432581       0.90588355
H        2.27453369      -0.36137572      -0.80810338
H       -1.60468437      -0.64292765      -1.59405507
H       -0.28075175      -1.43726469       0.82178499
H       -2.28598657      -0.22491227       1.24127992
H       -1.16222106       1.86519705      -0.13609447
