10
Frame=0 idx=006112 GeodesicLength=0.0 rxn_smarts="[C:1]1([H:6])([H:7])[C:2]([H:8])([H:9])[N:3]=[C:4]([H:10])[O:5]1>>[C:1]([C:2](=[N+:3]=[C-:4][H:10])[H:8])([O:5][H:9])([H:6])[H:7]"
C       -0.80417830      -0.58570436      -0.02918896
C       -0.61371672       0.89193833      -0.00616848
N        0.64436647       1.08704163      -0.54695529
C        1.32515050       0.02744173      -0.32990630
O        0.54874054      -0.83192248       0.56218635
H       -1.54076672      -1.02821160       0.63583879
H       -0.76978130      -1.06941198      -1.01688084
H       -1.39336451       1.60540942      -0.23079736
H        0.21192632       0.01938568       1.24441621
H        2.39162371      -0.11596637      -0.28254412
10
Frame=1 idx=006112 GeodesicLength=0.11295598772941905 rxn_smarts="[C:1]1([H:6])([H:7])[C:2]([H:8])([H:9])[N:3]=[C:4]([H:10])[O:5]1>>[C:1]([C:2](=[N+:3]=[C-:4][H:10])[H:8])([O:5][H:9])([H:6])[H:7]"
C       -0.80727139      -0.59100305      -0.02990819
C       -0.60675269       0.88837168      -0.00158128
N        0.64602881       1.08118208      -0.55638615
C        1.33792111       0.02985008      -0.34403948
O        0.53996753      -0.84597196       0.56348293
H       -1.55050904      -1.02397587       0.63460258
H       -0.78440185      -1.07390975      -1.01720843
H       -1.38538777       1.60345522      -0.22529646
H        0.20307262       0.02499607       1.25422547
H        2.40733268      -0.09299450      -0.27789100
10
Frame=2 idx=006112 GeodesicLength=0.22586067285325973 rxn_smarts="[C:1]1([H:6])([H:7])[C:2]([H:8])([H:9])[N:3]=[C:4]([H:10])[O:5]1>>[C:1]([C:2](=[N+:3]=[C-:4][H:10])[H:8])([O:5][H:9])([H:6])[H:7]"
C       -0.81026958      -0.59640980      -0.03060613
C       -0.59959080       0.88459332       0.00293292
N        0.64789442       1.07534884      -0.56531298
C        1.35109021       0.03249981      -0.35843367
O        0.53093263      -0.86033306       0.56527014
H       -1.56037705      -1.01961942       0.63309485
H       -0.79883283      -1.07841174      -1.01744165
H       -1.37719495       1.60132026      -0.21989111
H        0.19358263       0.03089220       1.26458193
H        2.42276533      -0.06988042      -0.27419430
10
Frame=3 idx=006112 GeodesicLength=0.33873362926238965 rxn_smarts="[C:1]1([H:6])([H:7])[C:2]([H:8])([H:9])[N:3]=[C:4]([H:10])[O:5]1>>[C:1]([C:2](=[N+:3]=[C-:4][H:10])[H:8])([O:5][H:9])([H:6])[H:7]"
C       -0.81317068      -0.60193101      -0.03127900
C       -0.59222778       0.88059268       0.00738681
N        0.64997695       1.06954137      -0.57373228
C        1.36466828       0.03539934      -0.37313515
O        0.52161219      -0.87501986       0.56757371
H       -1.57037662      -1.01514149       0.63129746
H       -0.81306867      -1.08291704      -1.01758159
H       -1.36877418       1.59899482      -0.21455432
H        0.18338414       0.03710265       1.27550662
H        2.43797637      -0.04662147      -0.27148227
10
Frame=4 idx=006112 GeodesicLength=0.4516034895920338 rxn_smarts="[C:1]1([H:6])([H:7])[C:2]([H:8])([H:9])[N:3]=[C:4]([H:10])[O:5]1>>[C:1]([C:2](=[N+:3]=[C-:4][H:10])[H:8])([O:5][H:9])([H:6])[H:7]"
C       -0.81596909      -0.60757255      -0.03192023
C       -0.58465890       0.87636178       0.01179918
N        0.65229344       1.06376387      -0.58162609
C        1.37866722       0.03856790      -0.38819017
O        0.51197941      -0.89004578       0.57042710
H       -1.58051039      -1.01054213       0.62918543
H       -0.82709487      -1.08742504      -1.01762607
H       -1.36011893       1.59646629      -0.20927014
H        0.17239211       0.04365519       1.28702819
H        2.45301999      -0.02322953      -0.26980719
10
Frame=5 idx=006112 GeodesicLength=0.5644614737079702 rxn_smarts="[C:1]1([H:6])([H:7])[C:2]([H:8])([H:9])[N:3]=[C:4]([H:10])[O:5]1>>[C:1]([C:2](=[N+:3]=[C-:4][H:10])[H:8])([O:5][H:9])([H:6])[H:7]"
C       -0.81866023      -0.61334127      -0.03252756
C       -0.57688063       0.87188928       0.01619011
N        0.65486205       1.05802298      -0.58896990
C        1.39309370       0.04202083      -0.40365256
O        0.50201558      -0.90542587       0.57385688
H       -1.59078340      -1.00582190       0.62674297
H       -0.84089779      -1.09193331      -1.01757937
H       -1.35122594       1.59372607      -0.20403077
H        0.16053815       0.05057860       1.29917668
H        2.46793851       0.00028459      -0.26920649
10
Frame=6 idx=006112 GeodesicLength=0.6773471881118025 rxn_smarts="[C:1]1([H:6])([H:7])[C:2]([H:8])([H:9])[N:3]=[C:4]([H:10])[O:5]1>>[C:1]([C:2](=[N+:3]=[C-:4][H:10])[H:8])([O:5][H:9])([H:6])[H:7]"
C       -0.82123513      -0.61924413      -0.03309074
C       -0.56888130       0.86716479       0.02058304
N        0.65770182       1.05231896      -0.59574734
C        1.40796213       0.04578041      -0.41958040
O        0.49168850      -0.92117685       0.57790441
H       -1.60119619      -1.00097962       0.62393947
H       -0.85445535      -1.09644403      -1.01743913
H       -1.34207816       1.59075778      -0.19880594
H        0.14770481       0.05790920       1.31197927
H        2.48278887       0.02391348      -0.26974265
10
Frame=7 idx=006112 GeodesicLength=0.7902562628423424 rxn_smarts="[C:1]1([H:6])([H:7])[C:2]([H:8])([H:9])[N:3]=[C:4]([H:10])[O:5]1>>[C:1]([C:2](=[N+:3]=[C-:4][H:10])[H:8])([O:5][H:9])([H:6])[H:7]"
C       -0.82368654      -0.62528996      -0.03360468
C       -0.56065109       0.86217585       0.02500370
N        0.66083507       1.04665648      -0.60193222
C        1.42327816       0.04987052      -0.43604449
O        0.48097190      -0.93731492       0.58260545
H       -1.61175057      -0.99601636       0.62075129
H       -0.86774681      -1.10095750      -1.01720643
H       -1.33266406       1.58754862      -0.19357786
H        0.13380172       0.06568200       1.32546353
H        2.49761223       0.04764526      -0.27145830
10
Frame=8 idx=006112 GeodesicLength=0.9031912326761745 rxn_smarts="[C:1]1([H:6])([H:7])[C:2]([H:8])([H:9])[N:3]=[C:4]([H:10])[O:5]1>>[C:1]([C:2](=[N+:3]=[C-:4][H:10])[H:8])([O:5][H:9])([H:6])[H:7]"
C       -0.82600406      -0.63148766      -0.03405974
C       -0.55217556       0.85690644       0.02948150
N        0.66428074       1.04103776      -0.60750633
C        1.43905422       0.05431320      -0.45311809
O        0.46983358      -0.95385673       0.58800522
H       -1.62244813      -0.99093311       0.61714687
H       -0.88074216      -1.10547438      -1.01688137
H       -1.32296469       1.58408608      -0.18831387
H        0.11871076       0.07393737       1.33965579
H        2.51245530       0.07147102      -0.27440997
10
Frame=9 idx=006112 GeodesicLength=1.0161063664329637 rxn_smarts="[C:1]1([H:6])([H:7])[C:2]([H:8])([H:9])[N:3]=[C:4]([H:10])[O:5]1>>[C:1]([C:2](=[N+:3]=[C-:4][H:10])[H:8])([O:5][H:9])([H:6])[H:7]"
C       -0.82817663      -0.63784195      -0.03444574
C       -0.54344156       0.85134540       0.03403413
N        0.66806010       1.03546846      -0.61243882
C        1.45529950       0.05913156      -0.47088268
O        0.45824930      -0.97082604       0.59413141
H       -1.63328789      -0.98572329       0.61310989
H       -0.89342233      -1.10999396      -1.01646616
H       -1.31297782       1.58035903      -0.18300052
H        0.10234303       0.08269814       1.35458688
H        2.52735430       0.09538266      -0.27862839
10
Frame=10 idx=006112 GeodesicLength=1.1290675643398536 rxn_smarts="[C:1]1([H:6])([H:7])[C:2]([H:8])([H:9])[N:3]=[C:4]([H:10])[O:5]1>>[C:1]([C:2](=[N+:3]=[C-:4][H:10])[H:8])([O:5][H:9])([H:6])[H:7]"
C       -0.83018636      -0.64436857      -0.03474945
C       -0.53442007       0.84547186       0.03871740
N        0.67220915       1.02994659      -0.61668634
C        1.47202035       0.06437321      -0.48944320
O        0.44617270      -0.98824124       0.60105253
H       -1.64426809      -0.98039181       0.60859332
H       -0.90573474      -1.11452282      -1.01595740
H       -1.30266508       1.57634305      -0.17759452
H        0.08451624       0.09203187       1.37027692
H        2.54235592       0.11935786      -0.28420926
10
Frame=11 idx=006112 GeodesicLength=1.242054012593642 rxn_smarts="[C:1]1([H:6])([H:7])[C:2]([H:8])([H:9])[N:3]=[C:4]([H:10])[O:5]1>>[C:1]([C:2](=[N+:3]=[C-:4][H:10])[H:8])([O:5][H:9])([H:6])[H:7]"
C       -0.83201699      -0.65107979      -0.03495556
C       -0.52508621       0.83926439       0.04357560
N        0.67675987       1.02447119      -0.62020538
C        1.48922201       0.07007669      -0.50889820
O        0.43356369      -1.00612478       0.60882600
H       -1.65538869      -0.97493971       0.60355785
H       -0.91763407      -1.11906275      -1.01535248
H       -1.29199948       1.57202114      -0.17205949
H        0.06507799       0.10199141       1.38673996
H        2.55750189       0.14338221      -0.29122828
10
Frame=12 idx=006112 GeodesicLength=1.3550486331281886 rxn_smarts="[C:1]1([H:6])([H:7])[C:2]([H:8])([H:9])[N:3]=[C:4]([H:10])[O:5]1>>[C:1]([C:2](=[N+:3]=[C-:4][H:10])[H:8])([O:5][H:9])([H:6])[H:7]"
C       -0.83364909      -0.65798774      -0.03505177
C       -0.51541068       0.83270375       0.04865352
N        0.68174934       1.01904580      -0.62293914
C        1.50690125       0.07630451      -0.52937022
O        0.42037863      -1.02450264       0.61750542
H       -1.66664236      -0.96936305       0.59797177
H       -0.92907122      -1.12362085      -1.01464982
H       -1.28095830       1.56736933      -0.16636406
H        0.04388016       0.11262941       1.40398978
H        2.57282227       0.16742149      -0.29974547
10
Frame=13 idx=006112 GeodesicLength=1.4680353900900378 rxn_smarts="[C:1]1([H:6])([H:7])[C:2]([H:8])([H:9])[N:3]=[C:4]([H:10])[O:5]1>>[C:1]([C:2](=[N+:3]=[C-:4][H:10])[H:8])([O:5][H:9])([H:6])[H:7]"
C       -0.83505911      -0.66510787      -0.03501700
C       -0.50535822       0.82576159       0.05401480
N        0.68721780       1.01366903      -0.62482754
C        1.52505652       0.08311350      -0.55098970
O        0.40657320      -1.04339584       0.62716332
H       -1.67802176      -0.96366752       0.59178570
H       -0.93997925      -1.12819981      -1.01384869
H       -1.26950529       1.56236889      -0.16046023
H        0.02072131       0.12401723       1.42203561
H        2.58835480       0.19144081      -0.30985629
10
Frame=14 idx=006112 GeodesicLength=1.5810255902740287 rxn_smarts="[C:1]1([H:6])([H:7])[C:2]([H:8])([H:9])[N:3]=[C:4]([H:10])[O:5]1>>[C:1]([C:2](=[N+:3]=[C-:4][H:10])[H:8])([O:5][H:9])([H:6])[H:7]"
C       -0.83621430      -0.67245778      -0.03482505
C       -0.49488133       0.81841125       0.05973718
N        0.69321891       1.00833863      -0.62578559
C        1.54367610       0.09059224      -0.57391100
O        0.39208316      -1.06283391       0.63788451
H       -1.68951689      -0.95785031       0.58494316
H       -0.95027798      -1.13281007      -1.01294107
H       -1.25759539       1.55698535      -0.15429835
H       -0.00462963       0.13623045       1.44087137
H        2.60413736       0.21539414      -0.32167516
10
Frame=15 idx=006112 GeodesicLength=1.693981409432766 rxn_smarts="[C:1]1([H:6])([H:7])[C:2]([H:8])([H:9])[N:3]=[C:4]([H:10])[O:5]1>>[C:1]([C:2](=[N+:3]=[C-:4][H:10])[H:8])([O:5][H:9])([H:6])[H:7]"
C       -0.83708334      -0.68005700      -0.03445170
C       -0.48393395       0.81061721       0.06590103
N        0.69980577       1.00305223      -0.62572515
C        1.56273668       0.09883827      -0.59829928
O        0.37685110      -1.08284319       0.64975076
H       -1.70111321      -0.95191578       0.57739091
H       -0.95988040      -1.13745909      -1.01192431
H       -1.24518185       1.55119047      -0.14782027
H       -0.03239545       0.14935855       1.46047663
H        2.62019464       0.23921832      -0.33529863
10
Frame=16 idx=006112 GeodesicLength=1.8068805908850774 rxn_smarts="[C:1]1([H:6])([H:7])[C:2]([H:8])([H:9])[N:3]=[C:4]([H:10])[O:5]1>>[C:1]([C:2](=[N+:3]=[C-:4][H:10])[H:8])([O:5][H:9])([H:6])[H:7]"
C       -0.83762755      -0.68792641      -0.03386338
C       -0.47245999       0.80234362       0.07260414
N        0.70704944       0.99780112      -0.62452407
C        1.58220211       0.10798092      -0.62434039
O        0.36080361      -1.10345667       0.66286248
H       -1.71279441      -0.94586150       0.56906227
H       -0.96868039      -1.14215950      -1.01078961
H       -1.23220828       1.54494584      -0.14096935
H       -0.06283967       0.16349330       1.48081872
H        2.63655514       0.26283928      -0.35086081
