11
Frame=0 idx=002304 GeodesicLength=0.0 rxn_smarts="[C:1]([N:2](/[C:3](=[N:4]/[H:11])[C:5]#[N:6])[H:10])([H:7])([H:8])[H:9]>>[C+:1]([N:2]([C:3]([N:4]([H:9])[H:11])=[C:5]=[N-:6])[H:10])([H:7])[H:8]"
C       -1.59177964      -0.22169905      -0.20460566
N       -0.34703432      -0.75795626       0.21068106
C        0.66962009       0.08872798       0.16387150
N        0.31438834       1.32473359      -0.16585088
C        2.01025069      -0.36116416       0.35712248
N        3.09034851      -0.71942279       0.51456879
H       -2.04074015       0.40932607       0.56473833
H       -2.26476187      -0.99901233      -0.55075780
H       -0.71888927       1.06316083      -0.66441378
H       -0.16594253      -1.74341839       0.31118409
H        1.04454017       1.91672456      -0.53653808
11
Frame=1 idx=002304 GeodesicLength=0.05537085437302426 rxn_smarts="[C:1]([N:2](/[C:3](=[N:4]/[H:11])[C:5]#[N:6])[H:10])([H:7])([H:8])[H:9]>>[C+:1]([N:2]([C:3]([N:4]([H:9])[H:11])=[C:5]=[N-:6])[H:10])([H:7])[H:8]"
C       -1.59065564      -0.22869830      -0.20929028
N       -0.34978052      -0.75137288       0.22703100
C        0.66809240       0.09775521       0.18322466
N        0.31704042       1.32994470      -0.16766509
C        2.00807713      -0.36520853       0.35070642
N        3.08892548      -0.73257851       0.48160666
H       -2.05273820       0.40882166       0.54638163
H       -2.25460485      -1.01393626      -0.55465132
H       -0.72537828       1.06471452      -0.68236980
H       -0.16621296      -1.73547107       0.33529190
H        1.05723502       1.92602947      -0.51026579
11
Frame=2 idx=002304 GeodesicLength=0.11071475739527109 rxn_smarts="[C:1]([N:2](/[C:3](=[N:4]/[H:11])[C:5]#[N:6])[H:10])([H:7])([H:8])[H:9]>>[C+:1]([N:2]([C:3]([N:4]([H:9])[H:11])=[C:5]=[N-:6])[H:10])([H:7])[H:8]"
C       -1.58944617      -0.23556753      -0.21318231
N       -0.35225516      -0.74487728       0.24205019
C        0.66710085       0.10634928       0.19995236
N        0.32017252       1.33483127      -0.17060888
C        2.00586359      -0.36952508       0.34242851
N        3.08624610      -0.74533985       0.45289350
H       -2.06334041       0.40800265       0.52950117
H       -2.24494934      -1.02840609      -0.55696032
H       -0.73220980       1.06614185      -0.70065458
H       -0.16637960      -1.72760183       0.35785947
H        1.06919742       1.93599262      -0.48327912
11
Frame=3 idx=002304 GeodesicLength=0.1660572556807816 rxn_smarts="[C:1]([N:2](/[C:3](=[N:4]/[H:11])[C:5]#[N:6])[H:10])([H:7])([H:8])[H:9]>>[C+:1]([N:2]([C:3]([N:4]([H:9])[H:11])=[C:5]=[N-:6])[H:10])([H:7])[H:8]"
C       -1.58795372      -0.24251463      -0.21702074
N       -0.35466401      -0.73817008       0.25686412
C        0.66636325       0.11492876       0.21578174
N        0.32370756       1.33953474      -0.17423364
C        2.00332012      -0.37347432       0.33534519
N        3.08267920      -0.75872028       0.42308964
H       -2.07338249       0.40711354       0.51237835
H       -2.23504647      -1.04297489      -0.55871264
H       -0.73886803       1.06705936      -0.71982481
H       -0.16662346      -1.71938867       0.38097901
H        1.08046804       1.94660647      -0.45464623
11
Frame=4 idx=002304 GeodesicLength=0.22138746536532913 rxn_smarts="[C:1]([N:2](/[C:3](=[N:4]/[H:11])[C:5]#[N:6])[H:10])([H:7])([H:8])[H:9]>>[C+:1]([N:2]([C:3]([N:4]([H:9])[H:11])=[C:5]=[N-:6])[H:10])([H:7])[H:8]"
C       -1.58610706      -0.24957028      -0.22091817
N       -0.35703972      -0.73118419       0.27169494
C        0.66583410       0.12357767       0.23110012
N        0.32770712       1.34405854      -0.17847698
C        2.00048596      -0.37698763       0.32991939
N        3.07809914      -0.77283680       0.39124064
H       -2.08297295       0.40621964       0.49468587
H       -2.22473589      -1.05771347      -0.56008080
H       -0.74519209       1.06734623      -0.73999000
H       -0.16698092      -1.71073034       0.40498970
H        1.09090230       1.95782062      -0.42416471
11
Frame=5 idx=002304 GeodesicLength=0.2766924103106098 rxn_smarts="[C:1]([N:2](/[C:3](=[N:4]/[H:11])[C:5]#[N:6])[H:10])([H:7])([H:8])[H:9]>>[C+:1]([N:2]([C:3]([N:4]([H:9])[H:11])=[C:5]=[N-:6])[H:10])([H:7])[H:8]"
C       -1.58414883      -0.25649784      -0.22428547
N       -0.35920797      -0.72419817       0.28562736
C        0.66569533       0.13199195       0.24486099
N        0.33228476       1.34831280      -0.18369074
C        1.99766140      -0.38050449       0.32413193
N        3.07264431      -0.78693101       0.36149877
H       -2.09156816       0.40519571       0.47789160
H       -2.21472637      -1.07205892      -0.56037513
H       -0.75169746       1.06737048      -0.76059075
H       -0.16720944      -1.70203104       0.42784979
H        1.10027243       1.96935053      -0.39291835
11
Frame=6 idx=002304 GeodesicLength=0.33199162158026085 rxn_smarts="[C:1]([N:2](/[C:3](=[N:4]/[H:11])[C:5]#[N:6])[H:10])([H:7])([H:8])[H:9]>>[C+:1]([N:2]([C:3]([N:4]([H:9])[H:11])=[C:5]=[N-:6])[H:10])([H:7])[H:8]"
C       -1.58200342      -0.26334111      -0.22734303
N       -0.36122284      -0.71713455       0.29899892
C        0.66583519       0.14033480       0.25776049
N        0.33747637       1.35234201      -0.18967479
C        1.99479974      -0.38371505       0.31949592
N        3.06633301      -0.80133545       0.33185949
H       -2.09941645       0.40412646       0.46147983
H       -2.20478587      -1.08613324      -0.55995319
H       -0.75817636       1.06700448      -0.78176361
H       -0.16732362      -1.69319519       0.45002962
H        1.10848426       1.98104684      -0.36088965
11
Frame=7 idx=002304 GeodesicLength=0.38725618581032517 rxn_smarts="[C:1]([N:2](/[C:3](=[N:4]/[H:11])[C:5]#[N:6])[H:10])([H:7])([H:8])[H:9]>>[C+:1]([N:2]([C:3]([N:4]([H:9])[H:11])=[C:5]=[N-:6])[H:10])([H:7])[H:8]"
C       -1.57988820      -0.26989831      -0.22969996
N       -0.36296689      -0.71025140       0.31113845
C        0.66632023       0.14840425       0.26927767
N        0.34333749       1.35608769      -0.19653541
C        1.99205125      -0.38681266       0.31518463
N        3.05951897      -0.81546101       0.30491378
H       -2.10621626       0.40295152       0.44654117
H       -2.19547106      -1.09947048      -0.55847276
H       -0.76503711       1.06656268      -0.80302023
H       -0.16711839      -1.68462058       0.46990531
H        1.11546998       1.99250830      -0.32923265
11
Frame=8 idx=002304 GeodesicLength=0.44246601626431037 rxn_smarts="[C:1]([N:2](/[C:3](=[N:4]/[H:11])[C:5]#[N:6])[H:10])([H:7])([H:8])[H:9]>>[C+:1]([N:2]([C:3]([N:4]([H:9])[H:11])=[C:5]=[N-:6])[H:10])([H:7])[H:8]"
C       -1.57802660      -0.27598250      -0.23107435
N       -0.36436056      -0.70381567       0.32150256
C        0.66716062       0.15602238       0.27911552
N        0.34982637       1.35956752      -0.20411067
C        1.98948056      -0.38996253       0.31058826
N        3.05274973      -0.82871800       0.28278463
H       -2.11183207       0.40158252       0.43402179
H       -2.18724463      -1.11165689      -0.55584897
H       -0.77270475       1.06645344      -0.82378487
H       -0.16643626      -1.67672674       0.48613361
H        1.12138760       2.00323648      -0.29932752
11
Frame=9 idx=002304 GeodesicLength=0.4976019098513556 rxn_smarts="[C:1]([N:2](/[C:3](=[N:4]/[H:11])[C:5]#[N:6])[H:10])([H:7])([H:8])[H:9]>>[C+:1]([N:2]([C:3]([N:4]([H:9])[H:11])=[C:5]=[N-:6])[H:10])([H:7])[H:8]"
C       -1.57629313      -0.28169161      -0.23182614
N       -0.36548961      -0.69766997       0.33062444
C        0.66825792       0.16334590       0.28795052
N        0.35685160       1.36285288      -0.21193143
C        1.98705576      -0.39304222       0.30644950
N        3.04599744      -0.84148718       0.26343842
H       -2.11665260       0.40006278       0.42310786
H       -2.17968614      -1.12295549      -0.55258799
H       -0.78094975       1.06654963      -0.84418631
H       -0.16540599      -1.66926700       0.49988505
H        1.12631448       2.01330229      -0.27092391
11
Frame=10 idx=002304 GeodesicLength=0.5527978104947366 rxn_smarts="[C:1]([N:2](/[C:3](=[N:4]/[H:11])[C:5]#[N:6])[H:10])([H:7])([H:8])[H:9]>>[C+:1]([N:2]([C:3]([N:4]([H:9])[H:11])=[C:5]=[N-:6])[H:10])([H:7])[H:8]"
C       -1.57462320      -0.28711536      -0.23216745
N       -0.36642478      -0.69173588       0.33885240
C        0.66958531       0.17046938       0.29610606
N        0.36438885       1.36607431      -0.21973850
C        1.98478538      -0.39600936       0.30278963
N        3.03921309      -0.85398013       0.24591651
H       -2.12091254       0.39841016       0.41334914
H       -2.17256159      -1.13360889      -0.54899410
H       -0.78962884       1.06682654      -0.86433770
H       -0.16416898      -1.66213409       0.51197274
H        1.13034729       2.02280331      -0.24374872
11
Frame=11 idx=002304 GeodesicLength=0.6078416025005728 rxn_smarts="[C:1]([N:2](/[C:3](=[N:4]/[H:11])[C:5]#[N:6])[H:10])([H:7])([H:8])[H:9]>>[C+:1]([N:2]([C:3]([N:4]([H:9])[H:11])=[C:5]=[N-:6])[H:10])([H:7])[H:8]"
C       -1.57319380      -0.29208916      -0.23185321
N       -0.36709209      -0.68625104       0.34569657
C        0.67107567       0.17722838       0.30339010
N        0.37220382       1.36923337      -0.22723004
C        1.98259190      -0.39902001       0.29921736
N        3.03287900      -0.86560433       0.23204259
H       -2.12449591       0.39649627       0.40555657
H       -2.16620563      -1.14322743      -0.54499480
H       -0.79919411       1.06764103      -0.88367624
H       -0.16253462      -1.65568199       0.52109732
H        1.13396578       2.03127491      -0.21924623
11
Frame=12 idx=002304 GeodesicLength=0.6629164967252817 rxn_smarts="[C:1]([N:2](/[C:3](=[N:4]/[H:11])[C:5]#[N:6])[H:10])([H:7])([H:8])[H:9]>>[C+:1]([N:2]([C:3]([N:4]([H:9])[H:11])=[C:5]=[N-:6])[H:10])([H:7])[H:8]"
C       -1.57199559      -0.29671442      -0.23103929
N       -0.36756399      -0.68114014       0.35143486
C        0.67273838       0.18369387       0.30994070
N        0.38033815       1.37237928      -0.23446922
C        1.98053270      -0.40203668       0.29564614
N        3.02701017      -0.87653954       0.22108235
H       -2.12759007       0.39438457       0.39935857
H       -2.16052403      -1.15205737      -0.54072885
H       -0.80956021       1.06888431      -0.90244628
H       -0.16065477      -1.64979186       0.52798035
H        1.13726926       2.03893798      -0.19675933
11
Frame=13 idx=002304 GeodesicLength=0.7179722908625275 rxn_smarts="[C:1]([N:2](/[C:3](=[N:4]/[H:11])[C:5]#[N:6])[H:10])([H:7])([H:8])[H:9]>>[C+:1]([N:2]([C:3]([N:4]([H:9])[H:11])=[C:5]=[N-:6])[H:10])([H:7])[H:8]"
C       -1.57094876      -0.30105685      -0.22988121
N       -0.36788400      -0.67631766       0.35633579
C        0.67452884       0.18992040       0.31600236
N        0.38870298       1.37554997      -0.24127566
C        1.97854643      -0.40507899       0.29215746
N        3.02150855      -0.88691452       0.21222094
H       -2.13033374       0.39210006       0.39434419
H       -2.15529356      -1.16026008      -0.53635097
H       -0.82062560       1.07045321      -0.92078855
H       -0.15860275      -1.64432446       0.53323044
H        1.14040161       2.04592892      -0.17599478
11
Frame=14 idx=002304 GeodesicLength=0.7730143128819537 rxn_smarts="[C:1]([N:2](/[C:3](=[N:4]/[H:11])[C:5]#[N:6])[H:10])([H:7])([H:8])[H:9]>>[C+:1]([N:2]([C:3]([N:4]([H:9])[H:11])=[C:5]=[N-:6])[H:10])([H:7])[H:8]"
C       -1.56999579      -0.30518032      -0.22849524
N       -0.36809149      -0.67170175       0.36062365
C        0.67642802       0.19596257       0.32173815
N        0.39725356       1.37879159      -0.24755277
C        1.97660578      -0.40814032       0.28874515
N        3.01628215      -0.89686464       0.20483752
H       -2.13284056       0.38966403       0.39018314
H       -2.15034533      -1.16798783      -0.53196950
H       -0.83230935       1.07224834      -0.93884817
H       -0.15644717      -1.63915160       0.53735856
H        1.14346018       2.05235993      -0.15662050
11
Frame=15 idx=002304 GeodesicLength=0.8280486647608332 rxn_smarts="[C:1]([N:2](/[C:3](=[N:4]/[H:11])[C:5]#[N:6])[H:10])([H:7])([H:8])[H:9]>>[C+:1]([N:2]([C:3]([N:4]([H:9])[H:11])=[C:5]=[N-:6])[H:10])([H:7])[H:8]"
C       -1.56909460      -0.30913270      -0.22696071
N       -0.36821299      -0.66723137       0.36445789
C        0.67842575       0.20186052       0.32725140
N        0.40596263       1.38213606      -0.25325741
C        1.97469457      -0.41121463       0.28539836
N        3.01125090      -0.90650214       0.19849181
H       -2.13518124       0.38710087       0.38663629
H       -2.14556781      -1.17535549      -0.52763032
H       -0.84455470       1.07417444      -0.95676620
H       -0.15423235      -1.63418089       0.54072105
H        1.14650984       2.05834532      -0.13834216
11
Frame=16 idx=002304 GeodesicLength=0.8830795732514825 rxn_smarts="[C:1]([N:2](/[C:3](=[N:4]/[H:11])[C:5]#[N:6])[H:10])([H:7])([H:8])[H:9]>>[C+:1]([N:2]([C:3]([N:4]([H:9])[H:11])=[C:5]=[N-:6])[H:10])([H:7])[H:8]"
C       -1.56820655      -0.31295340      -0.22534164
N       -0.36826862      -0.66285055       0.36797159
C        0.68051619       0.20765047       0.33262729
N        0.41481354       1.38561172      -0.25835946
C        1.97280267      -0.41428893       0.28212202
N        3.00632903      -0.91593379       0.19279355
H       -2.13740396       0.38444308       0.38349329
H       -2.14087032      -1.18246003      -0.52334673
H       -0.85730207       1.07612518      -0.97469089
H       -0.15199045      -1.62933061       0.54360842
H        1.14958055       2.06398686      -0.12087744
