13
Frame=0 idx=008024 GeodesicLength=0.0 rxn_smarts="[O:1]([C:2]([C:3]([C:4]#[C:5][H:12])([C:6]#[C:7][H:13])[H:11])([H:9])[H:10])[H:8]>>[O:1]([C:2]([C:3]1([H:11])[C-:4]=[C:5]([H:12])[C:7]([H:13])=[C+:6]1)([H:9])[H:10])[H:8]"
O        2.28903415      -1.13806075      -0.32845528
C        1.63245670      -0.04943219       0.25322816
C        0.35422611       0.23027314      -0.53718377
C       -0.56022839      -1.01153234      -0.50204740
C       -1.69574776      -0.53692895       0.00453493
C       -0.69230264       1.02282699       0.08340170
C       -1.86020811       1.27570004       0.38484907
H        1.60673232      -1.80864101      -0.47905146
H        1.36890812      -0.24163586       1.30179358
H        2.31145012       0.80456295       0.22031888
H        0.57945947       0.57643013      -1.54616186
H       -2.60785976      -0.92796373       0.42975526
H       -2.72592036       1.80440156       0.71501821
13
Frame=1 idx=008024 GeodesicLength=0.0827556739247029 rxn_smarts="[O:1]([C:2]([C:3]([C:4]#[C:5][H:12])([C:6]#[C:7][H:13])[H:11])([H:9])[H:10])[H:8]>>[O:1]([C:2]([C:3]1([H:11])[C-:4]=[C:5]([H:12])[C:7]([H:13])=[C+:6]1)([H:9])[H:10])[H:8]"
O        2.28923026      -1.13602443      -0.32400332
C        1.62798619      -0.04790767       0.25393565
C        0.35278454       0.23223055      -0.54129084
C       -0.56557141      -1.00185132      -0.50955999
C       -1.70798200      -0.55232930      -0.00549402
C       -0.68708792       1.03690957       0.07548868
C       -1.86017431       1.28162475       0.37202939
H        1.61264507      -1.81365647      -0.46595770
H        1.36102501      -0.23949752       1.30159405
H        2.30466650       0.80778897       0.22213031
H        0.58028673       0.57204515      -1.55191427
H       -2.60650980      -0.96283019       0.42956034
H       -2.70129887       1.82349792       0.74348173
13
Frame=2 idx=008024 GeodesicLength=0.16553476519515348 rxn_smarts="[O:1]([C:2]([C:3]([C:4]#[C:5][H:12])([C:6]#[C:7][H:13])[H:11])([H:9])[H:10])[H:8]>>[O:1]([C:2]([C:3]1([H:11])[C-:4]=[C:5]([H:12])[C:7]([H:13])=[C+:6]1)([H:9])[H:10])[H:8]"
O        2.28903506      -1.13402515      -0.32049209
C        1.62370010      -0.04648251       0.25442152
C        0.35106340       0.23457633      -0.54468006
C       -0.57134444      -0.99161112      -0.51616107
C       -1.72028233      -0.56814841      -0.01418392
C       -0.68141224       1.05155323       0.06901980
C       -1.85921897       1.28716064       0.36319519
H        1.61808086      -1.81846755      -0.45343235
H        1.35394003      -0.23769029       1.30127797
H        2.29822924       0.81077266       0.22354290
H        0.58026036       0.56831655      -1.55694810
H       -2.60512798      -0.99924090       0.42835110
H       -2.67692307       1.84328651       0.76608911
13
Frame=3 idx=008024 GeodesicLength=0.24831260024371626 rxn_smarts="[O:1]([C:2]([C:3]([C:4]#[C:5][H:12])([C:6]#[C:7][H:13])[H:11])([H:9])[H:10])[H:8]>>[O:1]([C:2]([C:3]1([H:11])[C-:4]=[C:5]([H:12])[C:7]([H:13])=[C+:6]1)([H:9])[H:10])[H:8]"
O        2.28842602      -1.13214919      -0.31722326
C        1.61944584      -0.04496973       0.25472738
C        0.34912898       0.23717995      -0.54778137
C       -0.57752646      -0.98090088      -0.52198355
C       -1.73271330      -0.58430115      -0.02213554
C       -0.67534316       1.06693429       0.06289859
C       -1.85745613       1.29256192       0.35688232
H        1.62304836      -1.82320463      -0.44067041
H        1.34720328      -0.23555578       1.30089839
H        2.29202087       0.81366964       0.22441269
H        0.57972930       0.56465013      -1.56178385
H       -2.60383692      -1.03705844       0.42541652
H       -2.65212668       1.86314387       0.78634209
13
Frame=4 idx=008024 GeodesicLength=0.33111961726315564 rxn_smarts="[O:1]([C:2]([C:3]([C:4]#[C:5][H:12])([C:6]#[C:7][H:13])[H:11])([H:9])[H:10])[H:8]>>[O:1]([C:2]([C:3]1([H:11])[C-:4]=[C:5]([H:12])[C:7]([H:13])=[C+:6]1)([H:9])[H:10])[H:8]"
O        2.28741212      -1.13043179      -0.31440963
C        1.61528989      -0.04346872       0.25485122
C        0.34699400       0.24009153      -0.55047489
C       -0.58413446      -0.96964955      -0.52700685
C       -1.74521588      -0.60083594      -0.02917312
C       -0.66879278       1.08305137       0.05740918
C       -1.85480058       1.29780635       0.35337152
H        1.62754276      -1.82786530      -0.42795681
H        1.34094423      -0.23333912       1.30044849
H        2.28612683       0.81637136       0.22482275
H        0.57864401       0.56121963      -1.56627768
H       -2.60240464      -1.07647831       0.42103768
H       -2.62760551       1.88352850       0.80335813
13
Frame=5 idx=008024 GeodesicLength=0.41391232400853495 rxn_smarts="[O:1]([C:2]([C:3]([C:4]#[C:5][H:12])([C:6]#[C:7][H:13])[H:11])([H:9])[H:10])[H:8]>>[O:1]([C:2]([C:3]1([H:11])[C-:4]=[C:5]([H:12])[C:7]([H:13])=[C+:6]1)([H:9])[H:10])[H:8]"
O        2.28595984      -1.12890477      -0.31158087
C        1.61112751      -0.04180820       0.25480004
C        0.34466580       0.24321766      -0.55302980
C       -0.59117599      -0.95793267      -0.53120950
C       -1.75784566      -0.61770806      -0.03560416
C       -0.66182068       1.10003223       0.05182130
C       -1.85128239       1.30304061       0.35181238
H        1.63155133      -1.83251383      -0.41466801
H        1.33490521      -0.23050427       1.29996372
H        2.28045635       0.81903380       0.22458242
H        0.57715383       0.55757234      -1.57077722
H       -2.60107420      -1.11736979       0.41447775
H       -2.60262094       1.90384496       0.81941196
13
Frame=6 idx=008024 GeodesicLength=0.49672729506344393 rxn_smarts="[O:1]([C:2]([C:3]([C:4]#[C:5][H:12])([C:6]#[C:7][H:13])[H:11])([H:9])[H:10])[H:8]>>[O:1]([C:2]([C:3]1([H:11])[C-:4]=[C:5]([H:12])[C:7]([H:13])=[C+:6]1)([H:9])[H:10])[H:8]"
O        2.28407569      -1.12757749      -0.30902808
C        1.60704338      -0.04009469       0.25456022
C        0.34213611       0.24661017      -0.55525989
C       -0.59867489      -0.94568700      -0.53449685
C       -1.77052704      -0.63500658      -0.04113976
C       -0.65433269       1.11783426       0.04655757
C       -1.84679227       1.30820355       0.35264776
H        1.63506970      -1.83712315      -0.40115761
H        1.32929010      -0.22734194       1.29942643
H        2.27510218       0.82154835       0.22375748
H        0.57513344       0.55391865      -1.57506465
H       -2.59966300      -1.15993397       0.40591447
H       -2.57786072       1.92464983       0.83328292
13
Frame=7 idx=008024 GeodesicLength=0.5795357915180133 rxn_smarts="[O:1]([C:2]([C:3]([C:4]#[C:5][H:12])([C:6]#[C:7][H:13])[H:11])([H:9])[H:10])[H:8]>>[O:1]([C:2]([C:3]1([H:11])[C-:4]=[C:5]([H:12])[C:7]([H:13])=[C+:6]1)([H:9])[H:10])[H:8]"
O        2.28173794      -1.12646407      -0.30652292
C        1.60299670      -0.03822170       0.25411978
C        0.33938698       0.25021308      -0.55727963
C       -0.60664934      -0.93296308      -0.53675930
C       -1.78328143      -0.65273137      -0.04585573
C       -0.64635418       1.13652812       0.04125974
C       -1.84128527       1.31335662       0.35553148
H        1.63809292      -1.84172156      -0.38706429
H        1.32402332      -0.22352633       1.29885815
H        2.27002470       0.82401613       0.22218203
H        0.57259233       0.54998371      -1.57930994
H       -2.59836287      -1.20411838       0.39475265
H       -2.55292181       1.94564883       0.84608795
13
Frame=8 idx=008024 GeodesicLength=0.6623801508862596 rxn_smarts="[O:1]([C:2]([C:3]([C:4]#[C:5][H:12])([C:6]#[C:7][H:13])[H:11])([H:9])[H:10])[H:8]>>[O:1]([C:2]([C:3]1([H:11])[C-:4]=[C:5]([H:12])[C:7]([H:13])=[C+:6]1)([H:9])[H:10])[H:8]"
O        2.27894313      -1.12556494      -0.30421115
C        1.59905614      -0.03621559       0.25345016
C        0.33640566       0.25403339      -0.55897650
C       -0.61512453      -0.91975240      -0.53782574
C       -1.79605459      -0.67095687      -0.04953089
C       -0.63780503       1.15608935       0.03613523
C       -1.83464986       1.31845405       0.36078909
H        1.64061824      -1.84629726      -0.37249006
H        1.31928003      -0.21912483       1.29824785
H        2.26529890       0.82641206       0.21979685
H        0.56941119       0.54580324      -1.58340454
H       -2.59722220      -1.25003434       0.38075119
H       -2.52815706       1.96715412       0.85726851
13
Frame=9 idx=008024 GeodesicLength=0.7451880940564607 rxn_smarts="[O:1]([C:2]([C:3]([C:4]#[C:5][H:12])([C:6]#[C:7][H:13])[H:11])([H:9])[H:10])[H:8]>>[O:1]([C:2]([C:3]1([H:11])[C-:4]=[C:5]([H:12])[C:7]([H:13])=[C+:6]1)([H:9])[H:10])[H:8]"
O        2.27554750      -1.12492520      -0.30168862
C        1.59496868      -0.03401344       0.25262934
C        0.33313789       0.25807702      -0.56060529
C       -0.62418809      -0.90597802      -0.53802499
C       -1.80891107      -0.68968418      -0.05249605
C       -0.62887524       1.17662146       0.03052646
C       -1.82693235       1.32376480       0.36735944
H        1.64251040      -1.85084998      -0.35708135
H        1.31454577      -0.21390734       1.29762390
H        2.26069559       0.82875242       0.21671612
H        0.56577295       0.54121216      -1.58757315
H       -2.59553748      -1.29757609       0.36416027
H       -2.50273456       1.98850640       0.86845392
13
Frame=10 idx=008024 GeodesicLength=0.8280332126074371 rxn_smarts="[O:1]([C:2]([C:3]([C:4]#[C:5][H:12])([C:6]#[C:7][H:13])[H:11])([H:9])[H:10])[H:8]>>[O:1]([C:2]([C:3]1([H:11])[C-:4]=[C:5]([H:12])[C:7]([H:13])=[C+:6]1)([H:9])[H:10])[H:8]"
O        2.27164238      -1.12450560      -0.29912422
C        1.59094976      -0.03154069       0.25154493
C        0.32956545       0.26224978      -0.56197863
C       -0.63381348      -0.89179643      -0.53673133
C       -1.82176149      -0.70901377      -0.05427045
C       -0.61940898       1.19805134       0.02473456
C       -1.81798653       1.32917231       0.37581480
H        1.64388925      -1.85537563      -0.34072413
H        1.31034330      -0.20767807       1.29697867
H        2.25639504       0.83114953       0.21253282
H        0.56136565       0.53599067      -1.59172286
H       -2.59418202      -1.34671047       0.34367400
H       -2.47699833       2.01000701       0.87927183
13
Frame=11 idx=008024 GeodesicLength=0.9108731843265663 rxn_smarts="[O:1]([C:2]([C:3]([C:4]#[C:5][H:12])([C:6]#[C:7][H:13])[H:11])([H:9])[H:10])[H:8]>>[O:1]([C:2]([C:3]1([H:11])[C-:4]=[C:5]([H:12])[C:7]([H:13])=[C+:6]1)([H:9])[H:10])[H:8]"
O        2.26721349      -1.12431934      -0.29676722
C        1.58705812      -0.02888117       0.25017976
C        0.32563139       0.26658483      -0.56290082
C       -0.64405054      -0.87715854      -0.53376085
C       -1.83451527      -0.72905961      -0.05443703
C       -0.60938146       1.22031285       0.01916463
C       -1.80767766       1.33468526       0.38641095
H        1.64475941      -1.85985112      -0.32367041
H        1.30688154      -0.20065141       1.29630583
H        2.25244567       0.83351132       0.20724779
H        0.55597776       0.53028859      -1.59563723
H       -2.59293970      -1.39742164       0.31912730
H       -2.45140275       2.03195999       0.88873732
13
Frame=12 idx=008024 GeodesicLength=0.9936948750677248 rxn_smarts="[O:1]([C:2]([C:3]([C:4]#[C:5][H:12])([C:6]#[C:7][H:13])[H:11])([H:9])[H:10])[H:8]>>[O:1]([C:2]([C:3]1([H:11])[C-:4]=[C:5]([H:12])[C:7]([H:13])=[C+:6]1)([H:9])[H:10])[H:8]"
O        2.26220592      -1.12439893      -0.29471114
C        1.58328662      -0.02608876       0.24853438
C        0.32128922       0.27110025      -0.56327931
C       -0.65495878      -0.86201542      -0.52902365
C       -1.84707823      -0.74993680      -0.05269669
C       -0.59879111       1.24336730       0.01397723
C       -1.79597260       1.34042616       0.39898682
H        1.64508363      -1.86427250      -0.30602526
H        1.30421590      -0.19293567       1.29560363
H        2.24884415       0.83576643       0.20087067
H        0.54949231       0.52416812      -1.59920254
H       -2.59145536      -1.44955409       0.29039719
H       -2.42616166       2.05437390       0.89656866
13
Frame=13 idx=008024 GeodesicLength=1.0765109904500498 rxn_smarts="[O:1]([C:2]([C:3]([C:4]#[C:5][H:12])([C:6]#[C:7][H:13])[H:11])([H:9])[H:10])[H:8]>>[O:1]([C:2]([C:3]1([H:11])[C-:4]=[C:5]([H:12])[C:7]([H:13])=[C+:6]1)([H:9])[H:10])[H:8]"
O        2.25659908      -1.12474800      -0.29282412
C        1.57962781      -0.02308088       0.24657433
C        0.31648189       0.27570997      -0.56312760
C       -0.66656475      -0.84645430      -0.52225424
C       -1.85934752      -0.77179742      -0.04873042
C       -0.58767301       1.26717432       0.00899875
C       -1.78293876       1.34656887       0.41303392
H        1.64489288      -1.86863563      -0.28748427
H        1.30241609      -0.18426143       1.29487825
H        2.24555620       0.83799482       0.19316573
H        0.54176845       0.51735336      -1.60247210
H       -2.58983815      -1.50273525       0.25662939
H       -2.40098022       2.07691155       0.90361238
13
Frame=14 idx=008024 GeodesicLength=1.1592937681576618 rxn_smarts="[O:1]([C:2]([C:3]([C:4]#[C:5][H:12])([C:6]#[C:7][H:13])[H:11])([H:9])[H:10])[H:8]>>[O:1]([C:2]([C:3]1([H:11])[C-:4]=[C:5]([H:12])[C:7]([H:13])=[C+:6]1)([H:9])[H:10])[H:8]"
O        2.25039244      -1.12539954      -0.29154682
C        1.57621281      -0.02001417       0.24426311
C        0.31115114       0.28044597      -0.56210439
C       -0.67890836      -0.83043300      -0.51311098
C       -1.87106601      -0.79490929      -0.04172604
C       -0.57593841       1.29159120       0.00497567
C       -1.76850410       1.35310904       0.42901227
H        1.64422868      -1.87294383      -0.26854218
H        1.30188352      -0.17502622       1.29411308
H        2.24268861       0.84004188       0.18412680
H        0.53247170       0.51010236      -1.60507954
H       -2.58782467      -1.55654474       0.21748489
H       -2.37678735       2.09998034       0.90813412
13
Frame=15 idx=008024 GeodesicLength=1.2420565668566983 rxn_smarts="[O:1]([C:2]([C:3]([C:4]#[C:5][H:12])([C:6]#[C:7][H:13])[H:11])([H:9])[H:10])[H:8]>>[O:1]([C:2]([C:3]1([H:11])[C-:4]=[C:5]([H:12])[C:7]([H:13])=[C+:6]1)([H:9])[H:10])[H:8]"
O        2.24355617      -1.12633258      -0.29034206
C        1.57289297      -0.01669131       0.24159509
C        0.30522667       0.28511711      -0.56046854
C       -0.69199614      -0.81414180      -0.50147490
C       -1.88209781      -0.81956753      -0.03160723
C       -0.56376488       1.31656145       0.00108670
C       -1.75305165       1.36035054       0.44541103
H        1.64314605      -1.87716255      -0.24847295
H        1.30238465      -0.16462297       1.29331788
H        2.24003877       0.84209920       0.17346455
H        0.52160241       0.50180096      -1.60732106
H       -2.58545374      -1.61003841       0.17202670
H       -2.35248348       2.12262787       0.91278479
13
Frame=16 idx=008024 GeodesicLength=1.3247291292216048 rxn_smarts="[O:1]([C:2]([C:3]([C:4]#[C:5][H:12])([C:6]#[C:7][H:13])[H:11])([H:9])[H:10])[H:8]>>[O:1]([C:2]([C:3]1([H:11])[C-:4]=[C:5]([H:12])[C:7]([H:13])=[C+:6]1)([H:9])[H:10])[H:8]"
O        2.23598195      -1.12774877      -0.29092949
C        1.56989434      -0.01402045       0.23869396
C        0.29874928       0.29023403      -0.55723459
C       -0.70590777      -0.79695846      -0.48765442
C       -1.89216724      -0.84596703      -0.01834597
C       -0.55076173       1.34183687       0.00007938
C       -1.73622751       1.36778422       0.46484159
H        1.64148819      -1.88143000      -0.23001738
H        1.30448037      -0.15550275       1.29245015
H        2.23791857       0.84323170       0.16237783
H        0.50887069       0.49448669      -1.60791448
H       -2.58031955      -1.66287054       0.12387110
H       -2.33199959       2.14692450       0.90978233
