13
Frame=0 idx=010410 GeodesicLength=0.0 rxn_smarts="[C:1]([c:2]1[c:3]([H:11])[n:4]([H:12])[c:5]([O:6][H:13])[n:7]1)([H:8])([H:9])[H:10]>>[C:1](=[C:2]1[C:3]([H:10])([H:11])[N:4]([H:12])[C:5]([O:6][H:13])=[N:7]1)([H:8])[H:9]"
C        2.01725304       0.56962918       0.00500048
C        0.64194845       0.34636261      -0.23641732
C        0.34304530      -1.00831534       0.05654767
N       -1.07159816      -0.94682772       0.29157008
C       -1.44140642       0.29188080      -0.08930682
O       -2.72488477       0.62824163      -0.02489969
N       -0.47869024       1.10406785      -0.45076889
H        2.29864726       0.54967033       1.05194817
H        2.59640018       1.28192731      -0.57854874
H        1.69333276      -0.91041215       0.46528376
H        0.62836900      -1.76398051      -0.67088918
H       -1.71541633      -1.69630307       0.46533229
H       -2.78700001       1.55405911      -0.28485177
13
Frame=1 idx=010410 GeodesicLength=0.03407498544446873 rxn_smarts="[C:1]([c:2]1[c:3]([H:11])[n:4]([H:12])[c:5]([O:6][H:13])[n:7]1)([H:8])([H:9])[H:10]>>[C:1](=[C:2]1[C:3]([H:10])([H:11])[N:4]([H:12])[C:5]([O:6][H:13])=[N:7]1)([H:8])[H:9]"
C        2.01802360       0.56867841       0.00509416
C        0.64502327       0.34207579      -0.24464522
C        0.34062490      -1.01217158       0.05399596
N       -1.07166403      -0.94460859       0.29718614
C       -1.44009125       0.29507315      -0.08332541
O       -2.72573921       0.62708035      -0.03512418
N       -0.47570753       1.10842230      -0.43291832
H        2.30626881       0.55832189       1.05026133
H        2.58562335       1.28942928      -0.57944701
H        1.70082073      -0.91645001       0.46749780
H        0.62038638      -1.77478650      -0.66821872
H       -1.71682795      -1.69591954       0.45778598
H       -2.78674106       1.55485506      -0.28814252
13
Frame=2 idx=010410 GeodesicLength=0.06814457522442721 rxn_smarts="[C:1]([c:2]1[c:3]([H:11])[n:4]([H:12])[c:5]([O:6][H:13])[n:7]1)([H:8])([H:9])[H:10]>>[C:1](=[C:2]1[C:3]([H:10])([H:11])[N:4]([H:12])[C:5]([O:6][H:13])=[N:7]1)([H:8])[H:9]"
C        2.01857142       0.56790235       0.00534608
C        0.64786925       0.33794935      -0.25252740
C        0.33814091      -1.01601773       0.05127174
N       -1.07176896      -0.94259159       0.30251758
C       -1.43883739       0.29812829      -0.07743246
O       -2.72638137       0.62598701      -0.04548397
N       -0.47266201       1.11248305      -0.41482618
H        2.31396504       0.56715047       1.04851583
H        2.57477370       1.29652744      -0.58042207
H        1.70835605      -0.92241346       0.46968240
H        0.61242061      -1.78534916      -0.66579394
H       -1.71818466      -1.69544884       0.45064553
H       -2.78626259       1.55569281      -0.29149317
13
Frame=3 idx=010410 GeodesicLength=0.10220176419638585 rxn_smarts="[C:1]([c:2]1[c:3]([H:11])[n:4]([H:12])[c:5]([O:6][H:13])[n:7]1)([H:8])([H:9])[H:10]>>[C:1](=[C:2]1[C:3]([H:10])([H:11])[N:4]([H:12])[C:5]([O:6][H:13])=[N:7]1)([H:8])[H:9]"
C        2.01883612       0.56734527       0.00583076
C        0.65050931       0.33387925      -0.26028228
C        0.33562130      -1.01991048       0.04839956
N       -1.07194716      -0.94085764       0.30726131
C       -1.43765853       0.30089465      -0.07218261
O       -2.72668671       0.62527730      -0.05510929
N       -0.46958232       1.11597457      -0.39736681
H        2.32140369       0.57646975       1.04685544
H        2.56389857       1.30318015      -0.58143687
H        1.71586616      -0.92817344       0.47216625
H        0.60471432      -1.79587792      -0.66335244
H       -1.71955086      -1.69499425       0.44353483
H       -2.78542389       1.55679280      -0.29431785
13
Frame=4 idx=010410 GeodesicLength=0.13625691853615787 rxn_smarts="[C:1]([c:2]1[c:3]([H:11])[n:4]([H:12])[c:5]([O:6][H:13])[n:7]1)([H:8])([H:9])[H:10]>>[C:1](=[C:2]1[C:3]([H:10])([H:11])[N:4]([H:12])[C:5]([O:6][H:13])=[N:7]1)([H:8])[H:9]"
C        2.01889817       0.56695100       0.00649613
C        0.65295246       0.32995743      -0.26769935
C        0.33304657      -1.02380211       0.04537830
N       -1.07216747      -0.93932393       0.31172611
C       -1.43651080       0.30359652      -0.06680378
O       -2.72677717       0.62474190      -0.06448758
N       -0.46648063       1.11908246      -0.38003482
H        2.32888996       0.58601937       1.04515597
H        2.55298322       1.30944963      -0.58251755
H        1.72342905      -0.93384964       0.47468683
H        0.59705015      -1.80620104      -0.66111222
H       -1.72091582      -1.69452335       0.43653833
H       -2.78439768       1.55790176      -0.29732639
13
Frame=5 idx=010410 GeodesicLength=0.1703158272433617 rxn_smarts="[C:1]([c:2]1[c:3]([H:11])[n:4]([H:12])[c:5]([O:6][H:13])[n:7]1)([H:8])([H:9])[H:10]>>[C:1](=[C:2]1[C:3]([H:10])([H:11])[N:4]([H:12])[C:5]([O:6][H:13])=[N:7]1)([H:8])[H:9]"
C        2.01877133       0.56670741       0.00730585
C        0.65521212       0.32616009      -0.27480213
C        0.33041380      -1.02768988       0.04229098
N       -1.07243976      -0.93796776       0.31596833
C       -1.43538646       0.30625985      -0.06122908
O       -2.72672112       0.62410226      -0.07468375
N       -0.46336594       1.12177977      -0.36298119
H        2.33642484       0.59589652       1.04337203
H        2.54203776       1.31529795      -0.58376177
H        1.73103878      -0.93940425       0.47734839
H        0.58943319      -1.81638035      -0.65892216
H       -1.72229968      -1.69403941       0.42961037
H       -2.78311886       1.55927781      -0.29951588
13
Frame=6 idx=010410 GeodesicLength=0.20438925908091027 rxn_smarts="[C:1]([c:2]1[c:3]([H:11])[n:4]([H:12])[c:5]([O:6][H:13])[n:7]1)([H:8])([H:9])[H:10]>>[C:1](=[C:2]1[C:3]([H:10])([H:11])[N:4]([H:12])[C:5]([O:6][H:13])=[N:7]1)([H:8])[H:9]"
C        2.01854497       0.56655087       0.00822942
C        0.65725419       0.32267070      -0.28125231
C        0.32767638      -1.03150216       0.03899938
N       -1.07270239      -0.93670975       0.32040922
C       -1.43425934       0.30915778      -0.05435166
O       -2.72648758       0.62344025      -0.08499172
N       -0.46025297       1.12439479      -0.34513487
H        2.34446510       0.60555660       1.04136473
H        2.53098880       1.32093131      -0.58502215
H        1.73882440      -0.94508914       0.47953476
H        0.58148777      -1.82606540      -0.65736619
H       -1.72365901      -1.69347816       0.42304636
H       -2.78188034       1.56014230      -0.30346498
13
Frame=7 idx=010410 GeodesicLength=0.23848601749852227 rxn_smarts="[C:1]([c:2]1[c:3]([H:11])[n:4]([H:12])[c:5]([O:6][H:13])[n:7]1)([H:8])([H:9])[H:10]>>[C:1](=[C:2]1[C:3]([H:10])([H:11])[N:4]([H:12])[C:5]([O:6][H:13])=[N:7]1)([H:8])[H:9]"
C        2.01826832       0.56644325       0.00922527
C        0.65901444       0.31965038      -0.28677461
C        0.32478050      -1.03517280       0.03540701
N       -1.07290727      -0.93550036       0.32541980
C       -1.43313549       0.31246485      -0.04530490
O       -2.72607423       0.62268094      -0.09520342
N       -0.45716403       1.12716395      -0.32556622
H        2.35337974       0.61458156       1.03899741
H        2.51973178       1.32653734      -0.58618939
H        1.74688493      -0.95109558       0.48072958
H        0.57289726      -1.83496852      -0.65690532
H       -1.72495427      -1.69279476       0.41717830
H       -2.78072169       1.56000973      -0.31101350
13
Frame=8 idx=010410 GeodesicLength=0.2725833158482928 rxn_smarts="[C:1]([c:2]1[c:3]([H:11])[n:4]([H:12])[c:5]([O:6][H:13])[n:7]1)([H:8])([H:9])[H:10]>>[C:1](=[C:2]1[C:3]([H:10])([H:11])[N:4]([H:12])[C:5]([O:6][H:13])=[N:7]1)([H:8])[H:9]"
C        2.01770455       0.56654579       0.01049210
C        0.66066985       0.31651346      -0.29247663
C        0.32187395      -1.03894909       0.03180418
N       -1.07322169      -0.93456209       0.32970032
C       -1.43208501       0.31538274      -0.03739296
O       -2.72534982       0.62214103      -0.10550548
N       -0.45409783       1.12913720      -0.30782093
H        2.36169247       0.62453924       1.03679511
H        2.50855296       1.33163323      -0.58745269
H        1.75486025      -0.95674745       0.48269116
H        0.56477306      -1.84418287      -0.65593530
H       -1.72634059      -1.69220301       0.41093295
H       -2.77903216       1.56075183      -0.31583183
13
Frame=9 idx=010410 GeodesicLength=0.30669209720254087 rxn_smarts="[C:1]([c:2]1[c:3]([H:11])[n:4]([H:12])[c:5]([O:6][H:13])[n:7]1)([H:8])([H:9])[H:10]>>[C:1](=[C:2]1[C:3]([H:10])([H:11])[N:4]([H:12])[C:5]([O:6][H:13])=[N:7]1)([H:8])[H:9]"
C        2.01695861       0.56678580       0.01197873
C        0.66217323       0.31348594      -0.29793944
C        0.31890243      -1.04273708       0.02804527
N       -1.07357501      -0.93380259       0.33374617
C       -1.43108505       0.31820343      -0.02940162
O       -2.72437409       0.62184450      -0.11520376
N       -0.45106600       1.13072963      -0.29049704
H        2.36996854       0.63479908       1.03457210
H        2.49736471       1.33642608      -0.58869226
H        1.76290054      -0.96232692       0.48471271
H        0.55668310      -1.85328446      -0.65512220
H       -1.72775505      -1.69163181       0.40467043
H       -2.77709597       1.56150840      -0.32086907
13
Frame=10 idx=010410 GeodesicLength=0.3408175740958248 rxn_smarts="[C:1]([c:2]1[c:3]([H:11])[n:4]([H:12])[c:5]([O:6][H:13])[n:7]1)([H:8])([H:9])[H:10]>>[C:1](=[C:2]1[C:3]([H:10])([H:11])[N:4]([H:12])[C:5]([O:6][H:13])=[N:7]1)([H:8])[H:9]"
C        2.01605928       0.56714167       0.01365694
C        0.66350864       0.31062399      -0.30305789
C        0.31584479      -1.04650673       0.02412244
N       -1.07395651      -0.93318899       0.33770487
C       -1.43014714       0.32097308      -0.02110463
O       -2.72318215       0.62166910      -0.12455790
N       -0.44807785       1.13205383      -0.27319634
H        2.37836809       0.64523279       1.03225022
H        2.48614220       1.34095530      -0.58991654
H        1.77104085      -0.96789044       0.48664518
H        0.54851497      -1.86218113      -0.65458443
H       -1.72918472      -1.69106056       0.39852410
H       -2.77493046       1.56217809      -0.32648601
13
Frame=11 idx=010410 GeodesicLength=0.37496888061781714 rxn_smarts="[C:1]([c:2]1[c:3]([H:11])[n:4]([H:12])[c:5]([O:6][H:13])[n:7]1)([H:8])([H:9])[H:10]>>[C:1](=[C:2]1[C:3]([H:10])([H:11])[N:4]([H:12])[C:5]([O:6][H:13])=[N:7]1)([H:8])[H:9]"
C        2.01503078       0.56759411       0.01549713
C        0.66464582       0.30799665      -0.30771280
C        0.31267387      -1.05022463       0.02001508
N       -1.07435586      -0.93270294       0.34172607
C       -1.42928290       0.32374501      -0.01219621
O       -2.72178567       0.62158082      -0.13356527
N       -0.44514080       1.13321928      -0.25544496
H        2.38705767       0.65569951       1.02974559
H        2.47484291       1.34527606      -0.59112281
H        1.77931745      -0.97350258       0.48830643
H        0.54014474      -1.87076028      -0.65447894
H       -1.73062475      -1.69047834       0.39258977
H       -2.77252327       1.56255731      -0.33335909
13
Frame=12 idx=010410 GeodesicLength=0.40915620079410403 rxn_smarts="[C:1]([c:2]1[c:3]([H:11])[n:4]([H:12])[c:5]([O:6][H:13])[n:7]1)([H:8])([H:9])[H:10]>>[C:1](=[C:2]1[C:3]([H:10])([H:11])[N:4]([H:12])[C:5]([O:6][H:13])=[N:7]1)([H:8])[H:9]"
C        2.01389195       0.56813018       0.01747240
C        0.66550832       0.30574403      -0.31168164
C        0.30933812      -1.05383273       0.01563499
N       -1.07474520      -0.93233505       0.34606433
C       -1.42851794       0.32660225      -0.00209226
O       -2.72021248       0.62161748      -0.14159126
N       -0.44227998       1.13438540      -0.23641529
H        2.39631713       0.66588746       1.02694718
H        2.46335503       1.34955477      -0.59221172
H        1.78780321      -0.97930045       0.48927379
H        0.53134128      -1.87878775      -0.65517906
H       -1.73205191      -1.68988000       0.38707861
H       -2.76974755       1.56221441      -0.34330007
13
Frame=13 idx=010410 GeodesicLength=0.4433909092116147 rxn_smarts="[C:1]([c:2]1[c:3]([H:11])[n:4]([H:12])[c:5]([O:6][H:13])[n:7]1)([H:8])([H:9])[H:10]>>[C:1](=[C:2]1[C:3]([H:10])([H:11])[N:4]([H:12])[C:5]([O:6][H:13])=[N:7]1)([H:8])[H:9]"
C        2.01263295       0.56875495       0.01957550
C        0.66605166       0.30391625      -0.31490513
C        0.30580414      -1.05730349       0.01095499
N       -1.07512263      -0.93209005       0.35080838
C       -1.42787242       0.32954572       0.00937711
O       -2.71847664       0.62180783      -0.14841088
N       -0.43950771       1.13557157      -0.21583044
H        2.40620901       0.67572899       1.02381052
H        2.45161644       1.35386452      -0.59313972
H        1.79651510      -0.98531727       0.48939433
H        0.52201699      -1.88618853      -0.65679969
H       -1.73347312      -1.68926773       0.38205563
H       -2.76639377       1.56097724      -0.35689059
13
Frame=14 idx=010410 GeodesicLength=0.4776680111257663 rxn_smarts="[C:1]([c:2]1[c:3]([H:11])[n:4]([H:12])[c:5]([O:6][H:13])[n:7]1)([H:8])([H:9])[H:10]>>[C:1](=[C:2]1[C:3]([H:10])([H:11])[N:4]([H:12])[C:5]([O:6][H:13])=[N:7]1)([H:8])[H:9]"
C        2.01121662       0.56949343       0.02185569
C        0.66632444       0.30240090      -0.31760290
C        0.30209479      -1.06067446       0.00602277
N       -1.07552072      -0.93199101       0.35571944
C       -1.42734350       0.33245318       0.02162697
O       -2.71659484       0.62222790      -0.15407701
N       -0.43681864       1.13660993      -0.19439742
H        2.41644349       0.68552265       1.02043539
H        2.43971030       1.35809464      -0.59394246
H        1.80538299      -0.99142530       0.48900039
H        0.51236830      -1.89316343      -0.65904231
H       -1.73492793      -1.68866051       0.37730776
H       -2.76233529       1.55911206      -0.37290630
13
Frame=15 idx=010410 GeodesicLength=0.5119771205067974 rxn_smarts="[C:1]([c:2]1[c:3]([H:11])[n:4]([H:12])[c:5]([O:6][H:13])[n:7]1)([H:8])([H:9])[H:10]>>[C:1](=[C:2]1[C:3]([H:10])([H:11])[N:4]([H:12])[C:5]([O:6][H:13])=[N:7]1)([H:8])[H:9]"
C        2.00961979       0.57036068       0.02436508
C        0.66640240       0.30106513      -0.32001403
C        0.29824841      -1.06399346       0.00089381
N       -1.07596929      -0.93205084       0.36053847
C       -1.42691323       0.33522043       0.03404840
O       -2.71459325       0.62293088      -0.15875064
N       -0.43420048       1.13735007      -0.17290132
H        2.42671920       0.69558536       1.01693280
H        2.42775749       1.36209548      -0.59468302
H        1.81433622      -0.99749120       0.48848323
H        0.50261668      -1.89994007      -0.66157352
H       -1.73645040      -1.68807117       0.37258770
H       -2.75757354       1.55693872      -0.38992694
13
Frame=16 idx=010410 GeodesicLength=0.5463066540528357 rxn_smarts="[C:1]([c:2]1[c:3]([H:11])[n:4]([H:12])[c:5]([O:6][H:13])[n:7]1)([H:8])([H:9])[H:10]>>[C:1](=[C:2]1[C:3]([H:10])([H:11])[N:4]([H:12])[C:5]([O:6][H:13])=[N:7]1)([H:8])[H:9]"
C        2.00783906       0.57135914       0.02714702
C        0.66634844       0.29982708      -0.32228831
C        0.29429418      -1.06728871      -0.00441129
N       -1.07647787      -0.93226374       0.36511619
C       -1.42655942       0.33780353       0.04629093
O       -2.71250863       0.62394263      -0.16251430
N       -0.43164428       1.13772622      -0.15183865
H        2.43685457       0.70609222       1.01338181
H        2.41586174       1.36576122      -0.59539522
H        1.82333876      -1.00344482       0.48807713
H        0.49289167      -1.90665278      -0.66421126
H       -1.73805222      -1.68749590       0.36776248
H       -2.75218599       1.55463391      -0.40711653
