20
Frame=0 idx=009133 GeodesicLength=0.0 rxn_smarts="[C:1]([C@@:2]1([H:11])[N:3]([C:4]([H:12])([H:13])[H:14])[C:5]1([C:6]([H:15])([H:16])[H:17])[C:7]([H:18])([H:19])[H:20])([H:8])([H:9])[H:10]>>[C:1]([C@@:2]1([H:11])[N:3]([C:4]([H:12])([H:13])[H:14])[C:5]1=[C:6]([H:16])[H:17])([H:8])([H:9])[H:10].[C:7]([H:15])([H:18])([H:19])[H:20]"
C       -1.19105438       1.73649789       0.61243208
C       -0.69036042       0.32923558       0.75641746
N       -0.74070811      -0.55285825      -0.41176789
C       -1.26511217      -1.90206837      -0.31674049
C        0.50378726      -0.27746855       0.15155580
C        1.57391577      -1.09348116       0.60350571
C        1.30763853       1.14600684      -1.15530961
H       -2.25748922       1.77491366       0.84230777
H       -0.67205984       2.40133774       1.30581106
H       -1.04766223       2.10174136      -0.40184017
H       -0.91661554      -0.14188223       1.71496993
H       -0.90195051      -2.48675844      -1.16271526
H       -0.97003356      -2.40531115       0.61033965
H       -2.35262033      -1.85526513      -0.37583154
H        1.71310013       0.03249573      -0.34117288
H        1.97938954      -0.91960433       1.58950476
H        1.73170076      -2.04858511       0.12091482
H        0.59168510       1.08772518      -1.96872756
H        2.32295809       0.97430890      -1.54161315
H        1.28149113       2.09901982      -0.63204051
20
Frame=1 idx=009133 GeodesicLength=0.10015660309853429 rxn_smarts="[C:1]([C@@:2]1([H:11])[N:3]([C:4]([H:12])([H:13])[H:14])[C:5]1([C:6]([H:15])([H:16])[H:17])[C:7]([H:18])([H:19])[H:20])([H:8])([H:9])[H:10]>>[C:1]([C@@:2]1([H:11])[N:3]([C:4]([H:12])([H:13])[H:14])[C:5]1=[C:6]([H:16])[H:17])([H:8])([H:9])[H:10].[C:7]([H:15])([H:18])([H:19])[H:20]"
C       -1.19486549       1.73354242       0.61945251
C       -0.69246239       0.32637034       0.75957607
N       -0.74172439      -0.55315013      -0.41040970
C       -1.26597446      -1.90220384      -0.31576648
C        0.50406344      -0.27326436       0.15116041
C        1.57217417      -1.08910355       0.60820819
C        1.31660168       1.14615453      -1.16668427
H       -2.26290014       1.76986254       0.84232143
H       -0.68094217       2.39613867       1.31875777
H       -1.04660571       2.10397861      -0.39231198
H       -0.92243759      -0.14759788       1.71583940
H       -0.89818896      -2.48875355      -1.15847120
H       -0.97729088      -2.40377707       0.61441032
H       -2.35319639      -1.85612188      -0.38187779
H        1.75344616       0.05512098      -0.32441766
H        1.94466609      -0.94203058       1.61163965
H        1.74067711      -2.03705904       0.11422307
H        0.58218830       1.09108256      -1.96422241
H        2.31614534       0.96530824      -1.58725675
H        1.30662629       2.10550298      -0.65417059
20
Frame=2 idx=009133 GeodesicLength=0.20029152846506948 rxn_smarts="[C:1]([C@@:2]1([H:11])[N:3]([C:4]([H:12])([H:13])[H:14])[C:5]1([C:6]([H:15])([H:16])[H:17])[C:7]([H:18])([H:19])[H:20])([H:8])([H:9])[H:10]>>[C:1]([C@@:2]1([H:11])[N:3]([C:4]([H:12])([H:13])[H:14])[C:5]1=[C:6]([H:16])[H:17])([H:8])([H:9])[H:10].[C:7]([H:15])([H:18])([H:19])[H:20]"
C       -1.19903692       1.73065925       0.62649177
C       -0.69503111       0.32355470       0.76282495
N       -0.74322164      -0.55340443      -0.40895788
C       -1.26688240      -1.90247856      -0.31451424
C        0.50380853      -0.26890808       0.15085860
C        1.57084751      -1.08376040       0.61211653
C        1.32614035       1.14584896      -1.17777282
H       -2.26874103       1.76495841       0.84175209
H       -0.69055309       2.39083208       1.33207432
H       -1.04515800       2.10643066      -0.38255437
H       -0.92846169      -0.15322536       1.71685123
H       -0.89456236      -2.49076608      -1.15403378
H       -0.98416956      -2.40232218       0.61861050
H       -2.35381560      -1.85747075      -0.38732901
H        1.79418894       0.07859096      -0.30741970
H        1.90985316      -0.96503850       1.63127816
H        1.74974682      -2.02466319       0.10730533
H        0.57373794       1.09465865      -1.95919926
H        2.30880692       0.95485043      -1.63137937
H        1.33250322       2.11165341      -0.67700305
20
Frame=3 idx=009133 GeodesicLength=0.30036440766279265 rxn_smarts="[C:1]([C@@:2]1([H:11])[N:3]([C:4]([H:12])([H:13])[H:14])[C:5]1([C:6]([H:15])([H:16])[H:17])[C:7]([H:18])([H:19])[H:20])([H:8])([H:9])[H:10]>>[C:1]([C@@:2]1([H:11])[N:3]([C:4]([H:12])([H:13])[H:14])[C:5]1=[C:6]([H:16])[H:17])([H:8])([H:9])[H:10].[C:7]([H:15])([H:18])([H:19])[H:20]"
C       -1.20359380       1.72783838       0.63356025
C       -0.69811429       0.32076866       0.76615766
N       -0.74524166      -0.55363020      -0.40742917
C       -1.26786907      -1.90290398      -0.31300174
C        0.50296814      -0.26442475       0.15065036
C        1.56990158      -1.07740275       0.61533159
C        1.33628128       1.14510507      -1.18849996
H       -2.27502727       1.76020909       0.84058567
H       -0.70094036       2.38538059       1.34579048
H       -1.04332365       2.10910759      -0.37252746
H       -0.93473322      -0.15878868       1.71800084
H       -0.89108822      -2.49280778      -1.14941655
H       -0.99071659      -2.40095705       0.62293335
H       -2.35450993      -1.85932836      -0.39222029
H        1.83533849       0.10252761      -0.29066462
H        1.87526160      -0.98825038       1.64831337
H        1.75878808      -2.01146514       0.10039094
H        0.56635422       1.09854934      -1.95359588
H        2.30104712       0.94309261      -1.67399611
H        1.35921757       2.11738013      -0.70036274
20
Frame=4 idx=009133 GeodesicLength=0.40041954080033326 rxn_smarts="[C:1]([C@@:2]1([H:11])[N:3]([C:4]([H:12])([H:13])[H:14])[C:5]1([C:6]([H:15])([H:16])[H:17])[C:7]([H:18])([H:19])[H:20])([H:8])([H:9])[H:10]>>[C:1]([C@@:2]1([H:11])[N:3]([C:4]([H:12])([H:13])[H:14])[C:5]1=[C:6]([H:16])[H:17])([H:8])([H:9])[H:10].[C:7]([H:15])([H:18])([H:19])[H:20]"
C       -1.20855469       1.72507217       0.64066331
C       -0.70175343       0.31799480       0.76956628
N       -0.74781316      -0.55383666      -0.40583914
C       -1.26895716      -1.90349007      -0.31124979
C        0.50149816      -0.25983862       0.15054156
C        1.56929477      -1.06999418       0.61797239
C        1.34704932       1.14393364      -1.19880806
H       -2.28176622       1.75562687       0.83881057
H       -0.71213960       2.37975292       1.35992075
H       -1.04111022       2.11201683      -0.36219917
H       -0.94130167      -0.16430893       1.71927998
H       -0.88777184      -2.49488835      -1.14463473
H       -0.99697698      -2.39969163       0.62737122
H       -2.35530039      -1.86170858      -0.39659627
H        1.87702955       0.12659744      -0.27455830
H        1.84112182      -1.01137190       1.66273557
H        1.76769455      -1.99752687       0.09366573
H        0.56002212       1.10284424      -1.94733965
H        2.29286280       0.93022816      -1.71520935
H        1.38687227       2.12258872      -0.72409289
20
Frame=5 idx=009133 GeodesicLength=0.5008834683036063 rxn_smarts="[C:1]([C@@:2]1([H:11])[N:3]([C:4]([H:12])([H:13])[H:14])[C:5]1([C:6]([H:15])([H:16])[H:17])[C:7]([H:18])([H:19])[H:20])([H:8])([H:9])[H:10]>>[C:1]([C@@:2]1([H:11])[N:3]([C:4]([H:12])([H:13])[H:14])[C:5]1=[C:6]([H:16])[H:17])([H:8])([H:9])[H:10].[C:7]([H:15])([H:18])([H:19])[H:20]"
C       -1.21393314       1.72236170       0.64779946
C       -0.70597592       0.31523245       0.77303842
N       -0.75095454      -0.55402422      -0.40420394
C       -1.27016387      -1.90424148      -0.30928391
C        0.49936632      -0.25516268       0.15053555
C        1.56897663      -1.06152057       0.62016823
C        1.35844583       1.14232146      -1.20869985
H       -2.28895143       1.75123604       0.83642384
H       -0.72418077       2.37393532       1.37446256
H       -1.03854240       2.11515387      -0.35154113
H       -0.94821259      -0.16979031       1.72067315
H       -0.88460724      -2.49701130      -1.13970667
H       -1.00299664      -2.39853617       0.63191298
H       -2.35621104      -1.86461683      -0.40051106
H        1.91969566       0.15054115      -0.25934684
H        1.80755430      -1.03427325       1.67465222
H        1.77640922      -1.98286361       0.08722116
H        0.55470393       1.10762145      -1.94034760
H        2.28405542       0.91645182      -1.75510352
H        1.41552225       2.12718517      -0.74814307
20
Frame=6 idx=009133 GeodesicLength=0.6015174209324392 rxn_smarts="[C:1]([C@@:2]1([H:11])[N:3]([C:4]([H:12])([H:13])[H:14])[C:5]1([C:6]([H:15])([H:16])[H:17])[C:7]([H:18])([H:19])[H:20])([H:8])([H:9])[H:10]>>[C:1]([C@@:2]1([H:11])[N:3]([C:4]([H:12])([H:13])[H:14])[C:5]1=[C:6]([H:16])[H:17])([H:8])([H:9])[H:10].[C:7]([H:15])([H:18])([H:19])[H:20]"
C       -1.21975435       1.71969145       0.65498025
C       -0.71083784       0.31245028       0.77656882
N       -0.75470304      -0.55420889      -0.40253940
C       -1.27151764      -1.90517024      -0.30713218
C        0.49652080      -0.25042747       0.15063764
C        1.56889490      -1.05194412       0.62199915
C        1.37049802       1.14025867      -1.21811194
H       -2.29659367       1.74704592       0.83342002
H       -0.73709520       2.36788447       1.38942911
H       -1.03563242       2.11852319      -0.34051562
H       -0.95552105      -0.17527075       1.72217435
H       -0.88161073      -2.49918421      -1.13465942
H       -1.00882322      -2.39750470       0.63653776
H       -2.35726206      -1.86806981      -0.40400968
H        1.96343377       0.17404538      -0.24540631
H        1.77482791      -1.05654492       1.68408159
H        1.78481587      -1.96754962       0.08123577
H        0.55038857       1.11296829      -1.93253322
H        2.27467939       0.90195344      -1.79381625
H        1.44529200       2.13105364      -0.77234045
20
Frame=7 idx=009133 GeodesicLength=0.7023806519916247 rxn_smarts="[C:1]([C@@:2]1([H:11])[N:3]([C:4]([H:12])([H:13])[H:14])[C:5]1([C:6]([H:15])([H:16])[H:17])[C:7]([H:18])([H:19])[H:20])([H:8])([H:9])[H:10]>>[C:1]([C@@:2]1([H:11])[N:3]([C:4]([H:12])([H:13])[H:14])[C:5]1=[C:6]([H:16])[H:17])([H:8])([H:9])[H:10].[C:7]([H:15])([H:18])([H:19])[H:20]"
C       -1.22604670       1.71705747       0.66221400
C       -0.71638677       0.30963986       0.78015113
N       -0.75908742      -0.55439315      -0.40085902
C       -1.27303285      -1.90628435      -0.30482169
C        0.49291796      -0.24564164       0.15085495
C        1.56900907      -1.04121876       0.62354186
C        1.38322339       1.13771484      -1.22702333
H       -2.30470443       1.74307720       0.82979613
H       -0.75092636       2.36158007       1.40482240
H       -1.03240524       2.12211789      -0.32908099
H       -0.96327775      -0.18076647       1.72377498
H       -0.87877876      -2.50140559      -1.12951992
H       -1.01448622      -2.39661191       0.64122494
H       -2.35847056      -1.87208422      -0.40713768
H        2.00856202       0.19683898      -0.23299470
H        1.74308140      -1.07796832       1.69113792
H        1.79285235      -1.95159412       0.07579557
H        0.54707468       1.11897391      -1.92378724
H        2.26461280       0.88689342      -1.83147093
H        1.47626940       2.13407489      -0.79661838
20
Frame=8 idx=009133 GeodesicLength=0.8033851836159737 rxn_smarts="[C:1]([C@@:2]1([H:11])[N:3]([C:4]([H:12])([H:13])[H:14])[C:5]1([C:6]([H:15])([H:16])[H:17])[C:7]([H:18])([H:19])[H:20])([H:8])([H:9])[H:10]>>[C:1]([C@@:2]1([H:11])[N:3]([C:4]([H:12])([H:13])[H:14])[C:5]1=[C:6]([H:16])[H:17])([H:8])([H:9])[H:10].[C:7]([H:15])([H:18])([H:19])[H:20]"
C       -1.23284028       1.71445243       0.66950392
C       -0.72267344       0.30678573       0.78377615
N       -0.76413879      -0.55458406      -0.39917895
C       -1.27472796      -1.90759414      -0.30238069
C        0.48851348      -0.24081930       0.15119158
C        1.56927655      -1.02929743       0.62485576
C        1.39665071       1.13465474      -1.23540336
H       -2.31329093       1.73934847       0.82554293
H       -0.76572205       2.35499369       1.42064333
H       -1.02888259       2.12593273      -0.31719766
H       -0.97153415      -0.18630015       1.72546419
H       -0.87611439      -2.50367706      -1.12431710
H       -1.02001676      -2.39587490       0.64595149
H       -2.35985417      -1.87667922      -0.40993748
H        2.05533504       0.21862280      -0.22241223
H        1.71249351      -1.09824986       1.69593652
H        1.80045208      -1.93501471       0.07100146
H        0.54476496       1.12573677      -1.91398966
H        2.25375132       0.87144679      -1.86817607
H        1.50855784       2.13611666      -0.82087413
20
Frame=9 idx=009133 GeodesicLength=0.9037639398848074 rxn_smarts="[C:1]([C@@:2]1([H:11])[N:3]([C:4]([H:12])([H:13])[H:14])[C:5]1([C:6]([H:15])([H:16])[H:17])[C:7]([H:18])([H:19])[H:20])([H:8])([H:9])[H:10]>>[C:1]([C@@:2]1([H:11])[N:3]([C:4]([H:12])([H:13])[H:14])[C:5]1=[C:6]([H:16])[H:17])([H:8])([H:9])[H:10].[C:7]([H:15])([H:18])([H:19])[H:20]"
C       -1.24022899       1.71185634       0.67686722
C       -0.72981974       0.30385333       0.78743128
N       -0.76992788      -0.55479994      -0.39752550
C       -1.27658102      -1.90913558      -0.29984150
C        0.48320509      -0.23597382       0.15166257
C        1.56971449      -1.01586827       0.62585049
C        1.41090739       1.13099944      -1.24313351
H       -2.32241367       1.73586718       0.82058105
H       -0.78166056       2.34804526       1.43694731
H       -1.02506264       2.12999274      -0.30473693
H       -0.98037420      -0.19191924       1.72723125
H       -0.87357496      -2.50600107      -1.11909462
H       -1.02535080      -2.39532105       0.65067700
H       -2.36138217      -1.88195289      -0.41243419
H        2.10369400       0.23848729      -0.21466078
H        1.68318657      -1.11660616       1.69848681
H        1.80749667      -1.91776311       0.06726801
H        0.54343471       1.13365872      -1.90260547
H        2.24214373       0.85566402      -1.90429015
H        1.54259397       2.13691678      -0.84468034
20
Frame=10 idx=009133 GeodesicLength=1.003971608675283 rxn_smarts="[C:1]([C@@:2]1([H:11])[N:3]([C:4]([H:12])([H:13])[H:14])[C:5]1([C:6]([H:15])([H:16])[H:17])[C:7]([H:18])([H:19])[H:20])([H:8])([H:9])[H:10]>>[C:1]([C@@:2]1([H:11])[N:3]([C:4]([H:12])([H:13])[H:14])[C:5]1=[C:6]([H:16])[H:17])([H:8])([H:9])[H:10].[C:7]([H:15])([H:18])([H:19])[H:20]"
C       -1.24819417       1.70926619       0.68429409
C       -0.73779816       0.30084446       0.79110398
N       -0.77643061      -0.55503408      -0.39591260
C       -1.27862273      -1.91088967      -0.29724012
C        0.47702143      -0.23110626       0.15224985
C        1.57022850      -1.00110172       0.62671779
C        1.42592159       1.12678018      -1.25027871
H       -2.33204525       1.73263716       0.81497578
H       -0.79867717       2.34075294       1.45367446
H       -1.02101662       2.13426218      -0.29173806
H       -0.98980478      -0.19762842       1.72905560
H       -0.87117976      -2.50836964      -1.11387794
H       -1.03058327      -2.39494964       0.65538170
H       -2.36308791      -1.88785150      -0.41469859
H        2.15415098       0.25654807      -0.20950504
H        1.65534018      -1.13313019       1.69909250
H        1.81396915      -1.89993097       0.06445437
H        0.54314687       1.14262507      -1.88983458
H        2.22945356       0.83981531      -1.93970834
H        1.57820816       2.13646053      -0.86820613
20
Frame=11 idx=009133 GeodesicLength=1.1039245497326964 rxn_smarts="[C:1]([C@@:2]1([H:11])[N:3]([C:4]([H:12])([H:13])[H:14])[C:5]1([C:6]([H:15])([H:16])[H:17])[C:7]([H:18])([H:19])[H:20])([H:8])([H:9])[H:10]>>[C:1]([C@@:2]1([H:11])[N:3]([C:4]([H:12])([H:13])[H:14])[C:5]1=[C:6]([H:16])[H:17])([H:8])([H:9])[H:10].[C:7]([H:15])([H:18])([H:19])[H:20]"
C       -1.25678273       1.70666353       0.69179039
C       -0.74666215       0.29773742       0.79477857
N       -0.78366909      -0.55529433      -0.39436498
C       -1.28085174      -1.91286788      -0.29461967
C        0.46992419      -0.22622506       0.15295415
C        1.57077928      -0.98490667       0.62750242
C        1.44173570       1.12197343      -1.25680680
H       -2.34221366       1.72965715       0.80870449
H       -0.81685330       2.33307115       1.47083301
H       -1.01677235       2.13873806      -0.27814512
H       -0.99987731      -0.20346244       1.73091618
H       -0.86890924      -2.51077690      -1.10871326
H       -1.03572194      -2.39477927       0.66002448
H       -2.36496502      -1.89440044      -0.41678991
H        2.20694726       0.27229152      -0.20744208
H        1.62911912      -1.14736458       1.69798941
H        1.81979197      -1.88155112       0.06272798
H        0.54393624       1.15281395      -1.87547796
H        2.21545310       0.82409403      -1.97457890
H        1.61559166       2.13458845      -0.89128239
20
Frame=12 idx=009133 GeodesicLength=1.2037267146513435 rxn_smarts="[C:1]([C@@:2]1([H:11])[N:3]([C:4]([H:12])([H:13])[H:14])[C:5]1([C:6]([H:15])([H:16])[H:17])[C:7]([H:18])([H:19])[H:20])([H:8])([H:9])[H:10]>>[C:1]([C@@:2]1([H:11])[N:3]([C:4]([H:12])([H:13])[H:14])[C:5]1=[C:6]([H:16])[H:17])([H:8])([H:9])[H:10].[C:7]([H:15])([H:18])([H:19])[H:20]"
C       -1.26604075       1.70402909       0.69936279
C       -0.75644354       0.29451714       0.79843914
N       -0.79165003      -0.55558170      -0.39290802
C       -1.28326478      -1.91506927      -0.29203264
C        0.46189606      -0.22132761       0.15376607
C        1.57131286      -0.96722344       0.62824810
C        1.45834231       1.11656528      -1.26273283
H       -2.35293511       1.72691460       0.80177216
H       -0.83626539       2.32496196       1.48841956
H       -1.01239644       2.14340451      -0.26389875
H       -1.01062750      -0.20945419       1.73278758
H       -0.86673891      -2.51320592      -1.10365477
H       -1.04078368      -2.39482122       0.66455570
H       -2.36700619      -1.90160484      -0.41878096
H        2.26241478       0.28522515      -0.20889796
H        1.60465957      -1.15890470       1.69549412
H        1.82490846      -1.86265004       0.06222479
H        0.54583005       1.16438727      -1.85935345
H        2.19992466       0.80867102      -2.00899794
H        1.65486357       2.13116690      -0.91381268
20
Frame=13 idx=009133 GeodesicLength=1.3034470204911155 rxn_smarts="[C:1]([C@@:2]1([H:11])[N:3]([C:4]([H:12])([H:13])[H:14])[C:5]1([C:6]([H:15])([H:16])[H:17])[C:7]([H:18])([H:19])[H:20])([H:8])([H:9])[H:10]>>[C:1]([C@@:2]1([H:11])[N:3]([C:4]([H:12])([H:13])[H:14])[C:5]1=[C:6]([H:16])[H:17])([H:8])([H:9])[H:10].[C:7]([H:15])([H:18])([H:19])[H:20]"
C       -1.27602220       1.70134254       0.70702054
C       -0.76717633       0.29117106       0.80207226
N       -0.80036939      -0.55589277      -0.39156476
C       -1.28584224      -1.91749249      -0.28953280
C        0.45292464      -0.21640167       0.15468911
C        1.57178959      -0.94797511       0.62899058
C        1.47574526       1.11054793      -1.26806390
H       -2.36423720       1.72438877       0.79417165
H       -0.85700100       2.31639436       1.50643216
H       -1.00794722       2.14824981      -0.24894397
H       -1.02209510      -0.21563520       1.73464498
H       -0.86462252      -2.51563641      -1.09875777
H       -1.04576910      -2.39508953       0.66892371
H       -2.36919048      -1.90947035      -0.42074767
H        2.32081351       0.29477984      -0.21434009
H        1.58207833      -1.16734134       1.69192509
H        1.82927632      -1.84323159       0.06309559
H        0.54888883       1.17752259      -1.84126250
H        2.18259619       0.79369959      -2.04307963
H        1.69616012       2.12606998      -0.93567261
20
Frame=14 idx=009133 GeodesicLength=1.4030676981898842 rxn_smarts="[C:1]([C@@:2]1([H:11])[N:3]([C:4]([H:12])([H:13])[H:14])[C:5]1([C:6]([H:15])([H:16])[H:17])[C:7]([H:18])([H:19])[H:20])([H:8])([H:9])[H:10]>>[C:1]([C@@:2]1([H:11])[N:3]([C:4]([H:12])([H:13])[H:14])[C:5]1=[C:6]([H:16])[H:17])([H:8])([H:9])[H:10].[C:7]([H:15])([H:18])([H:19])[H:20]"
C       -1.28679041       1.69858018       0.71476704
C       -0.77889227       0.28768542       0.80566485
N       -0.80982078      -0.55622491      -0.39035739
C       -1.28855692      -1.92013545      -0.28716641
C        0.44300029      -0.21142974       0.15572300
C        1.57218685      -0.92706146       0.62974840
C        1.49396218       1.10390886      -1.27281017
H       -2.37615524       1.72205232       0.78588577
H       -0.87917300       2.30732742       1.52486095
H       -1.00349874       2.15325735      -0.23321995
H       -1.03430468      -0.22203794       1.73646697
H       -0.86251890      -2.51804486      -1.09407366
H       -1.05065857      -2.39559136       0.67308154
H       -2.37148201      -1.91801105      -0.42275071
H        2.38225611       0.30027821      -0.22437944
H        1.56151687      -1.17219672       1.68762194
H        1.83281324      -1.82335289       0.06550292
H        0.55320464       1.19240855      -1.82097519
H        2.16327576       0.77944930      -2.07683805
H        1.73963557       2.11913879      -0.95675242
20
Frame=15 idx=009133 GeodesicLength=1.502726175996113 rxn_smarts="[C:1]([C@@:2]1([H:11])[N:3]([C:4]([H:12])([H:13])[H:14])[C:5]1([C:6]([H:15])([H:16])[H:17])[C:7]([H:18])([H:19])[H:20])([H:8])([H:9])[H:10]>>[C:1]([C@@:2]1([H:11])[N:3]([C:4]([H:12])([H:13])[H:14])[C:5]1=[C:6]([H:16])[H:17])([H:8])([H:9])[H:10].[C:7]([H:15])([H:18])([H:19])[H:20]"
C       -1.29841031       1.69571565       0.72260621
C       -0.79161257       0.28404859       0.80920676
N       -0.81997956      -0.55657053      -0.38930523
C       -1.29136937      -1.92298901      -0.28498677
C        0.43212801      -0.20638725       0.15687776
C        1.57247738      -0.90439239       0.63053060
C        1.51299075       1.09664552      -1.27698898
H       -2.38872185       1.71986477       0.77691762
H       -0.90288390       2.29773049       1.54368797
H       -0.99913918       2.15840326      -0.21667445
H       -1.04727949      -0.22869599       1.73823024
H       -0.86036512      -2.52039896      -1.08965882
H       -1.05543155      -2.39633331       0.67697565
H       -2.37383431      -1.92722463      -0.42486598
H        2.44684411       0.30100583      -0.23959393
H        1.54307561      -1.17302230       1.68296254
H        1.83546728      -1.80303672       0.06961000
H        0.55888962       1.20922550      -1.79826464
H        2.14175061       0.76616723      -2.11029513
H        1.78540385       2.11024422      -0.97697141
20
Frame=16 idx=009133 GeodesicLength=1.6026415067682096 rxn_smarts="[C:1]([C@@:2]1([H:11])[N:3]([C:4]([H:12])([H:13])[H:14])[C:5]1([C:6]([H:15])([H:16])[H:17])[C:7]([H:18])([H:19])[H:20])([H:8])([H:9])[H:10]>>[C:1]([C@@:2]1([H:11])[N:3]([C:4]([H:12])([H:13])[H:14])[C:5]1=[C:6]([H:16])[H:17])([H:8])([H:9])[H:10].[C:7]([H:15])([H:18])([H:19])[H:20]"
C       -1.31095960       1.69272445       0.73053892
C       -0.80535924       0.28025699       0.81269405
N       -0.83080860      -0.55691607      -0.38842327
C       -1.29422046      -1.92604285      -0.28304975
C        0.42032157      -0.20123335       0.15817709
C        1.57264892      -0.87985499       0.63134632
C        1.53283138       1.08875368      -1.28063869
H       -2.40198458       1.71778225       0.76724902
H       -0.92826919       2.28757599       1.56289436
H       -0.99496479       2.16366304      -0.19924818
H       -1.06104440      -0.23563597       1.73991619
H       -0.85807195      -2.52266082      -1.08557147
H       -1.06004719      -2.39732059       0.68054854
H       -2.37618081      -1.93711520      -0.42717798
H        2.51457021       0.29614098      -0.26066075
H        1.52684986      -1.16936973       1.67836978
H        1.83719915      -1.78230577       0.07559012
H        0.56611688       1.22817660      -1.77285245
H        2.11775432       0.75415483      -2.14343614
H        1.83361854       2.09922653      -0.99626571
