15
Frame=0 idx=006714 GeodesicLength=0.0 rxn_smarts="[O:1]([C:2]([C@@:3]1([H:11])[O:4][C@@:5]2([H:12])[C:6]([H:13])([H:14])[C@@:7]12[H:15])([H:9])[H:10])[H:8]>>[O:1]([C:2]([C@@:3]1([H:11])[O+:4]=[C-:5][C@:7]1([C:6]([H:12])([H:13])[H:14])[H:15])([H:9])[H:10])[H:8]"
O        2.53231068       0.72688166       0.64899574
C        1.57577714       0.16890704      -0.22269379
C        0.44348321      -0.46349147       0.54794837
O       -0.32865828       0.49446162       1.31905184
C       -1.54274285      -0.10351259       0.96392261
C       -1.50980091       0.14427557      -0.88980071
C       -0.83744177      -0.93243954      -0.12259939
H        2.08623585       1.37352300       1.20191334
H        1.19875405       0.92146952      -0.92426045
H        2.08541303      -0.60460434      -0.80241289
H        0.84586323      -1.21483803       1.23187832
H       -2.20490398       0.64561887       0.14929852
H       -0.93819040       0.98569866      -1.25927103
H       -2.35304376      -0.17450595      -1.49207883
H       -1.05305522      -1.96744396      -0.34989160
15
Frame=1 idx=006714 GeodesicLength=0.05132583932283837 rxn_smarts="[O:1]([C:2]([C@@:3]1([H:11])[O:4][C@@:5]2([H:12])[C:6]([H:13])([H:14])[C@@:7]12[H:15])([H:9])[H:10])[H:8]>>[O:1]([C:2]([C@@:3]1([H:11])[O+:4]=[C-:5][C@:7]1([C:6]([H:12])([H:13])[H:14])[H:15])([H:9])[H:10])[H:8]"
O        2.53641778       0.72190523       0.65332655
C        1.57517851       0.17472439      -0.22024722
C        0.44604864      -0.46591475       0.54775258
O       -0.32311512       0.48757839       1.32792704
C       -1.53794915      -0.09677905       0.96119282
C       -1.51450125       0.14167580      -0.89373755
C       -0.83697764      -0.93013118      -0.12198714
H        2.09399395       1.36430653       1.21407787
H        1.19601555       0.93657919      -0.91048319
H        2.08189419      -0.59207297      -0.81133577
H        0.85140661      -1.22163179       1.22525267
H       -2.21009805       0.66394281       0.14456673
H       -0.94041678       0.96880349      -1.29073073
H       -2.36030620      -0.18627526      -1.48776864
H       -1.05759103      -1.96671083      -0.33780602
15
Frame=2 idx=006714 GeodesicLength=0.10261234134066125 rxn_smarts="[O:1]([C:2]([C@@:3]1([H:11])[O:4][C@@:5]2([H:12])[C:6]([H:13])([H:14])[C@@:7]12[H:15])([H:9])[H:10])[H:8]>>[O:1]([C:2]([C@@:3]1([H:11])[O+:4]=[C-:5][C@:7]1([C:6]([H:12])([H:13])[H:14])[H:15])([H:9])[H:10])[H:8]"
O        2.54035207       0.71706488       0.65758788
C        1.57440731       0.18073373      -0.21770971
C        0.44864483      -0.46846271       0.54755418
O       -0.31748311       0.48012978       1.33720708
C       -1.53301170      -0.08980587       0.95836296
C       -1.51903771       0.13912831      -0.89770960
C       -0.83652785      -0.92781579      -0.12133731
H        2.10158916       1.35498079       1.22626600
H        1.19286340       0.95179123      -0.89626630
H        2.07818097      -0.57900494      -0.82028182
H        0.85709459      -1.22867242       1.21830668
H       -2.21470862       0.68299252       0.13946070
H       -0.94249889       0.95052448      -1.32277393
H       -2.36760603      -0.19778583      -1.48304856
H       -1.06225842      -1.96579815      -0.32561825
15
Frame=3 idx=006714 GeodesicLength=0.15388842757164453 rxn_smarts="[O:1]([C:2]([C@@:3]1([H:11])[O:4][C@@:5]2([H:12])[C:6]([H:13])([H:14])[C@@:7]12[H:15])([H:9])[H:10])[H:8]>>[O:1]([C:2]([C@@:3]1([H:11])[O+:4]=[C-:5][C@:7]1([C:6]([H:12])([H:13])[H:14])[H:15])([H:9])[H:10])[H:8]"
O        2.54416135       0.71235492       0.66178372
C        1.57347007       0.18697204      -0.21507051
C        0.45128257      -0.47113453       0.54733621
O       -0.31177600       0.47209524       1.34689353
C       -1.52793875      -0.08253844       0.95539942
C       -1.52341995       0.13661082      -0.90173622
C       -0.83610680      -0.92550167      -0.12064160
H        2.10907348       1.34548183       1.23856092
H        1.18926966       0.96717120      -0.88152578
H        2.07427016      -0.56532762      -0.82930066
H        0.86296185      -1.23596257       1.21098441
H       -2.21868910       0.70284811       0.13390274
H       -0.94447883       0.93069343      -1.35542193
H       -2.37498922      -0.20904822      -1.47788601
H       -1.06709049      -1.96471453      -0.31327825
15
Frame=4 idx=006714 GeodesicLength=0.2052117619582763 rxn_smarts="[O:1]([C:2]([C@@:3]1([H:11])[O:4][C@@:5]2([H:12])[C:6]([H:13])([H:14])[C@@:7]12[H:15])([H:9])[H:10])[H:8]>>[O:1]([C:2]([C@@:3]1([H:11])[O+:4]=[C-:5][C@:7]1([C:6]([H:12])([H:13])[H:14])[H:15])([H:9])[H:10])[H:8]"
O        2.54786740       0.70784943       0.66591133
C        1.57238909       0.19345102      -0.21234819
C        0.45394872      -0.47395233       0.54710357
O       -0.30601249       0.46344132       1.35705166
C       -1.52275195      -0.07497816       0.95235228
C       -1.52762462       0.13413220      -0.90583770
C       -0.83575271      -0.92322734      -0.11990839
H        2.11645641       1.33590098       1.25096498
H        1.18527065       0.98270964      -0.86630337
H        2.07019422      -0.55104266      -0.83841949
H        0.86897659      -1.24354032       1.20328139
H       -2.22200519       0.72354059       0.12790063
H       -0.94633039       0.90928043      -1.38862260
H       -2.38245570      -0.22004036      -1.47230796
H       -1.07217006      -1.96352444      -0.30081813
15
Frame=5 idx=006714 GeodesicLength=0.2564633584532918 rxn_smarts="[O:1]([C:2]([C@@:3]1([H:11])[O:4][C@@:5]2([H:12])[C:6]([H:13])([H:14])[C@@:7]12[H:15])([H:9])[H:10])[H:8]>>[O:1]([C:2]([C@@:3]1([H:11])[O+:4]=[C-:5][C@:7]1([C:6]([H:12])([H:13])[H:14])[H:15])([H:9])[H:10])[H:8]"
O        2.55135182       0.70351314       0.66995773
C        1.57108862       0.20013976      -0.20950512
C        0.45667041      -0.47691095       0.54684115
O       -0.30015818       0.45408330       1.36759302
C       -1.51733480      -0.06711250       0.94913755
C       -1.53161093       0.13172629      -0.91000162
C       -0.83540165      -0.92093261      -0.11912709
H        2.12361254       1.32617093       1.26337904
H        1.18073885       0.99830215      -0.85057251
H        2.06588687      -0.53613593      -0.84750419
H        0.87521172      -1.25136536       1.19515482
H       -2.22456041       0.74504778       0.12134554
H       -0.94815482       0.88622184      -1.42222147
H       -2.38994112      -0.23065655      -1.46627556
H       -1.07739894      -1.96209129      -0.28820128
15
Frame=6 idx=006714 GeodesicLength=0.30775747425555755 rxn_smarts="[O:1]([C:2]([C@@:3]1([H:11])[O:4][C@@:5]2([H:12])[C:6]([H:13])([H:14])[C@@:7]12[H:15])([H:9])[H:10])[H:8]>>[O:1]([C:2]([C@@:3]1([H:11])[O+:4]=[C-:5][C@:7]1([C:6]([H:12])([H:13])[H:14])[H:15])([H:9])[H:10])[H:8]"
O        2.55468621       0.69940095       0.67393201
C        1.56960275       0.20709408      -0.20656129
C        0.45943408      -0.48003016       0.54654084
O       -0.29424806       0.44399931       1.37858710
C       -1.51173524      -0.05890137       0.94579694
C       -1.53537265       0.12936415      -0.91426788
C       -0.83510920      -0.91867662      -0.11829647
H        2.13061806       1.31631847       1.27590878
H        1.17571478       1.01404612      -0.83430320
H        2.06136977      -0.52053863      -0.85666888
H        0.88164091      -1.25948702       1.18656583
H       -2.22628955       0.76747433       0.11421594
H       -0.94991617       0.86138445      -1.45626019
H       -2.39749855      -0.24092756      -1.45978485
H       -1.08289713      -1.96052050      -0.27540471
15
Frame=7 idx=006714 GeodesicLength=0.35905208602367056 rxn_smarts="[O:1]([C:2]([C@@:3]1([H:11])[O:4][C@@:5]2([H:12])[C:6]([H:13])([H:14])[C@@:7]12[H:15])([H:9])[H:10])[H:8]>>[O:1]([C:2]([C@@:3]1([H:11])[O+:4]=[C-:5][C@:7]1([C:6]([H:12])([H:13])[H:14])[H:15])([H:9])[H:10])[H:8]"
O        2.55781836       0.69554972       0.67783018
C        1.56791973       0.21427881      -0.20350929
C        0.46224605      -0.48332074       0.54619779
O       -0.28828467       0.43314138       1.39000576
C       -1.50590030      -0.05035642       0.94232506
C       -1.53887706       0.12707855      -0.91862968
C       -0.83486127      -0.91645101      -0.11742675
H        2.13739702       1.30641312       1.28846883
H        1.17018645       1.02983374      -0.81754921
H        2.05665254      -0.50430389      -0.86582523
H        0.88827156      -1.26789488       1.17750699
H       -2.22715714       0.79077815       0.10648128
H       -0.95168645       0.83479915      -1.49055613
H       -2.40508032      -0.25076632      -1.45284809
H       -1.08864450      -1.95877938      -0.26247150
15
Frame=8 idx=006714 GeodesicLength=0.41038791956152615 rxn_smarts="[O:1]([C:2]([C@@:3]1([H:11])[O:4][C@@:5]2([H:12])[C:6]([H:13])([H:14])[C@@:7]12[H:15])([H:9])[H:10])[H:8]>>[O:1]([C:2]([C@@:3]1([H:11])[O+:4]=[C-:5][C@:7]1([C:6]([H:12])([H:13])[H:14])[H:15])([H:9])[H:10])[H:8]"
O        2.56074788       0.69196352       0.68165527
C        1.56602089       0.22172878      -0.20034245
C        0.46511377      -0.48678750       0.54579498
O       -0.28227102       0.42145761       1.40183746
C       -1.49979757      -0.04143304       0.93869999
C       -1.54210992       0.12485054      -0.92311861
C       -0.83466279      -0.91426585      -0.11650676
H        2.14395773       1.29639074       1.30111828
H        1.16411071       1.04570941      -0.80025298
H        2.05170053      -0.48734717      -0.87500534
H        0.89512882      -1.27659219       1.16792933
H       -2.22705911       0.81502227       0.09805121
H       -0.95349918       0.80633106      -1.52508605
H       -2.41270758      -0.26015881      -1.44543654
H       -1.09467319      -1.95686936      -0.24933779
15
Frame=9 idx=006714 GeodesicLength=0.461777196092656 rxn_smarts="[O:1]([C:2]([C@@:3]1([H:11])[O:4][C@@:5]2([H:12])[C:6]([H:13])([H:14])[C@@:7]12[H:15])([H:9])[H:10])[H:8]>>[O:1]([C:2]([C@@:3]1([H:11])[O+:4]=[C-:5][C@:7]1([C:6]([H:12])([H:13])[H:14])[H:15])([H:9])[H:10])[H:8]"
O        2.56346602       0.68864861       0.68540967
C        1.56389071       0.22946960      -0.19705459
C        0.46804431      -0.49043618       0.54531308
O       -0.27621765       0.40889845       1.41406053
C       -1.49338548      -0.03208940       0.93488929
C       -1.54504752       0.12265413      -0.92776621
C       -0.83451501      -0.91213273      -0.11552978
H        2.15029574       1.28620544       1.31389248
H        1.15745188       1.06169467      -0.78236936
H        2.04648860      -0.46960376      -0.88422155
H        0.90223413      -1.28557968       1.15778227
H       -2.22588263       0.84025122       0.08882202
H       -0.95542454       0.77589180      -1.55975581
H       -2.42038430      -0.26908535      -1.43753057
H       -1.10101427      -1.95478683      -0.23594146
15
Frame=10 idx=006714 GeodesicLength=0.513302644587204 rxn_smarts="[O:1]([C:2]([C@@:3]1([H:11])[O:4][C@@:5]2([H:12])[C:6]([H:13])([H:14])[C@@:7]12[H:15])([H:9])[H:10])[H:8]>>[O:1]([C:2]([C@@:3]1([H:11])[O+:4]=[C-:5][C@:7]1([C:6]([H:12])([H:13])[H:14])[H:15])([H:9])[H:10])[H:8]"
O        2.56599571       0.68569550       0.68909175
C        1.56157165       0.23750014      -0.19367688
C        0.47102334      -0.49429894       0.54474705
O       -0.27016596       0.39545277       1.42671890
C       -1.48666427      -0.02231978       0.93094319
C       -1.54766642       0.12048308      -0.93260246
C       -0.83445285      -0.91010978      -0.11451012
H        2.15640636       1.27596960       1.32680668
H        1.15028824       1.07778344      -0.76396910
H        2.04108584      -0.45111390      -0.89350992
H        0.90953743      -1.29491142       1.14706291
H       -2.22359279       0.86647057       0.07878252
H       -0.95751440       0.74355005      -1.59441328
H       -2.42809327      -0.27752682      -1.42918124
H       -1.10775861      -1.95262451      -0.22228999
15
Frame=11 idx=006714 GeodesicLength=0.5647770317064325 rxn_smarts="[O:1]([C:2]([C@@:3]1([H:11])[O:4][C@@:5]2([H:12])[C:6]([H:13])([H:14])[C@@:7]12[H:15])([H:9])[H:10])[H:8]>>[O:1]([C:2]([C@@:3]1([H:11])[O+:4]=[C-:5][C@:7]1([C:6]([H:12])([H:13])[H:14])[H:15])([H:9])[H:10])[H:8]"
O        2.56816750       0.68298771       0.69274513
C        1.55894268       0.24575595      -0.19010224
C        0.47412309      -0.49832357       0.54405121
O       -0.26402926       0.38099770       1.43953910
C       -1.47943395      -0.01212181       0.92669414
C       -1.54997008       0.11837671      -0.93757955
C       -0.83436111      -0.90805276      -0.11344966
H        2.16212657       1.26551550       1.33970725
H        1.14240517       1.09374339      -0.74496744
H        2.03536173      -0.43184674      -0.90256535
H        0.91720943      -1.30440349       1.13569234
H       -2.22008495       0.89357160       0.06777156
H       -0.95994851       0.70920171      -1.62888393
H       -2.43582462      -0.28532563      -1.42026502
H       -1.11468370      -1.95007627      -0.20838755
15
Frame=12 idx=006714 GeodesicLength=0.616364107418827 rxn_smarts="[O:1]([C:2]([C@@:3]1([H:11])[O:4][C@@:5]2([H:12])[C:6]([H:13])([H:14])[C@@:7]12[H:15])([H:9])[H:10])[H:8]>>[O:1]([C:2]([C@@:3]1([H:11])[O+:4]=[C-:5][C@:7]1([C:6]([H:12])([H:13])[H:14])[H:15])([H:9])[H:10])[H:8]"
O        2.57012446       0.68066880       0.69635993
C        1.55613879       0.25427258      -0.18641704
C        0.47728784      -0.50256063       0.54323032
O       -0.25792919       0.36560247       1.45264935
C       -1.47180161      -0.00149301       0.92227734
C       -1.55194362       0.11629100      -0.94275368
C       -0.83434555      -0.90610288      -0.11236790
H        2.16756412       1.25504907       1.35269175
H        1.13404723       1.10969484      -0.72546549
H        2.02948172      -0.41186016      -0.91157920
H        0.92508576      -1.31418286       1.12369426
H       -2.21538792       0.92157975       0.05583888
H       -0.96273817       0.67300156      -1.66302948
H       -2.44357988      -0.29255620      -1.41087863
H       -1.12200398      -1.94740433      -0.19425040
15
Frame=13 idx=006714 GeodesicLength=0.6680769934948697 rxn_smarts="[O:1]([C:2]([C@@:3]1([H:11])[O:4][C@@:5]2([H:12])[C:6]([H:13])([H:14])[C@@:7]12[H:15])([H:9])[H:10])[H:8]>>[O:1]([C:2]([C@@:3]1([H:11])[O+:4]=[C-:5][C@:7]1([C:6]([H:12])([H:13])[H:14])[H:15])([H:9])[H:10])[H:8]"
O        2.57180781       0.67871296       0.69995882
C        1.55313046       0.26301869      -0.18259928
C        0.48054728      -0.50700331       0.54226533
O       -0.25185796       0.34924181       1.46593889
C       -1.46366468       0.00957490       0.91764495
C       -1.55358542       0.11422254      -0.94813385
C       -0.83436027      -0.90423531      -0.11127094
H        2.17265187       1.24452642       1.36573102
H        1.12516407       1.12555938      -0.70546913
H        2.02342004      -0.39117054      -0.92046545
H        0.93322038      -1.32419928       1.11106159
H       -2.20945381       0.95043316       0.04288449
H       -0.96603083       0.63501406      -1.69667862
H       -2.45133987      -0.29915878      -1.40101421
H       -1.12964905      -1.94453669      -0.17985360
15
Frame=14 idx=006714 GeodesicLength=0.719918954104731 rxn_smarts="[O:1]([C:2]([C@@:3]1([H:11])[O:4][C@@:5]2([H:12])[C:6]([H:13])([H:14])[C@@:7]12[H:15])([H:9])[H:10])[H:8]>>[O:1]([C:2]([C@@:3]1([H:11])[O+:4]=[C-:5][C@:7]1([C:6]([H:12])([H:13])[H:14])[H:15])([H:9])[H:10])[H:8]"
O        2.57321512       0.67712487       0.70356429
C        1.54993487       0.27197437      -0.17864181
C        0.48391113      -0.51164493       0.54113442
O       -0.24583917       0.33192249       1.47931354
C       -1.45496986       0.02107440       0.91277831
C       -1.55490432       0.11215616      -0.95372306
C       -0.83439569      -0.90244990      -0.11017419
H        2.17737355       1.23395031       1.37881645
H        1.11578941       1.14128841      -0.68499063
H        2.01720301      -0.36980362      -0.92917507
H        0.94161004      -1.33441335       1.09778518
H       -2.20227094       0.98005890       0.02885038
H       -0.96995003       0.59532347      -1.72967165
H       -2.45910084      -0.30510930      -1.39066619
H       -1.13760629      -1.94145229      -0.16519995
15
Frame=15 idx=006714 GeodesicLength=0.7719002510166113 rxn_smarts="[O:1]([C:2]([C@@:3]1([H:11])[O:4][C@@:5]2([H:12])[C:6]([H:13])([H:14])[C@@:7]12[H:15])([H:9])[H:10])[H:8]>>[O:1]([C:2]([C@@:3]1([H:11])[O+:4]=[C-:5][C@:7]1([C:6]([H:12])([H:13])[H:14])[H:15])([H:9])[H:10])[H:8]"
O        2.57434051       0.67589897       0.70720255
C        1.54657206       0.28110835      -0.17454252
C        0.48739005      -0.51647432       0.53982054
O       -0.23989569       0.31368003       1.49266823
C       -1.44566748       0.03298203       0.90767168
C       -1.55591383       0.11008123      -0.95951893
C       -0.83443504      -0.90074605      -0.10909773
H        2.18171168       1.22333404       1.39193136
H        1.10597021       1.15682206      -0.66406368
H        2.01085726      -0.34781193      -0.93765833
H        0.95024587      -1.34477637       1.08388153
H       -2.19386753       1.01035618       0.01369976
H       -0.97461116       0.55406855      -1.76184251
H       -2.46685174      -0.31038788      -1.37984099
H       -1.14584519      -1.93813491      -0.15031097
15
Frame=16 idx=006714 GeodesicLength=0.82401537736665 rxn_smarts="[O:1]([C:2]([C@@:3]1([H:11])[O:4][C@@:5]2([H:12])[C:6]([H:13])([H:14])[C@@:7]12[H:15])([H:9])[H:10])[H:8]>>[O:1]([C:2]([C@@:3]1([H:11])[O+:4]=[C-:5][C@:7]1([C:6]([H:12])([H:13])[H:14])[H:15])([H:9])[H:10])[H:8]"
O        2.57518995       0.67504075       0.71090746
C        1.54309630       0.29035302      -0.17030427
C        0.49099181      -0.52147922       0.53831342
O       -0.23406349       0.29459238       1.50587908
C       -1.43572420       0.04522960       0.90233665
C       -1.55664307       0.10801896      -0.96549710
C       -0.83445666      -0.89911378      -0.10807939
H        2.18563362       1.21275840       1.40501705
H        1.09580984       1.17205032      -0.64278933
H        2.00447938      -0.32533730      -0.94581855
H        0.95909600      -1.35523629       1.06940504
H       -2.18437284       1.04116286      -0.00254042
H       -0.98016291       0.51149135      -1.79299804
H       -2.47456981      -0.31496315      -1.36855861
H       -1.15430393      -1.93456788      -0.13527300
