16
Frame=0 idx=009725 GeodesicLength=0.0 rxn_smarts="[C:1]([C@@:2]1([O:3][H:11])[C:4]([H:12])([H:13])[N:5]2[C:6]([H:14])([H:15])[C@@:7]12[H:16])([H:8])([H:9])[H:10]>>[C:1](/[C:2]([O:3][H:11])=[C:7](/[C:6]([N:5]=[C:4]([H:12])[H:13])([H:14])[H:15])[H:16])([H:8])([H:9])[H:10]"
C        1.64105484      -1.06208537       0.18139927
C        0.63152226       0.05840794       0.15165841
O        1.36110790       1.24987350       0.10079165
C       -0.46648393       0.42968253      -1.31307411
N       -1.24120847       1.20475102      -0.52481535
C       -1.82990713       0.26519344       0.39889965
C       -0.52786735      -0.09820493       0.99889529
H        1.15245472      -2.03323102       0.25613551
H        2.33356960      -0.92952786       1.01524487
H        2.22965149      -1.04119884      -0.73725670
H        0.70871133       1.96259478       0.12897475
H       -0.85965248      -0.54122753      -1.64505352
H        0.17474827       0.93127713      -2.03250414
H       -2.36220213      -0.57754187      -0.08141012
H       -2.50313998       0.73904973       1.11853307
H       -0.44235888      -0.55781266       1.98358144
16
Frame=1 idx=009725 GeodesicLength=0.06938085424587101 rxn_smarts="[C:1]([C@@:2]1([O:3][H:11])[C:4]([H:12])([H:13])[N:5]2[C:6]([H:14])([H:15])[C@@:7]12[H:16])([H:8])([H:9])[H:10]>>[C:1](/[C:2]([O:3][H:11])=[C:7](/[C:6]([N:5]=[C:4]([H:12])[H:13])([H:14])[H:15])[H:16])([H:8])([H:9])[H:10]"
C        1.64247395      -1.06853479       0.18789810
C        0.63841065       0.05623031       0.15088960
O        1.37101956       1.24543144       0.10645858
C       -0.47700988       0.43810199      -1.32647329
N       -1.24191205       1.20170018      -0.51574367
C       -1.83053809       0.25410288       0.40017708
C       -0.52182854      -0.08553050       0.99802686
H        1.14818204      -2.03656117       0.26530377
H        2.33272968      -0.93789412       1.02394438
H        2.23587937      -1.05287725      -0.72775500
H        0.71987939       1.95973166       0.13195378
H       -0.87364779      -0.52655879      -1.67128090
H        0.15176340       0.95304710      -2.04771545
H       -2.34831925      -0.59591064      -0.08070947
H       -2.50966776       0.72530330       1.11553614
H       -0.43741467      -0.52978161       1.98948949
16
Frame=2 idx=009725 GeodesicLength=0.13873617142284342 rxn_smarts="[C:1]([C@@:2]1([O:3][H:11])[C:4]([H:12])([H:13])[N:5]2[C:6]([H:14])([H:15])[C@@:7]12[H:16])([H:8])([H:9])[H:10]>>[C:1](/[C:2]([O:3][H:11])=[C:7](/[C:6]([N:5]=[C:4]([H:12])[H:13])([H:14])[H:15])[H:16])([H:8])([H:9])[H:10]"
C        1.64396111      -1.07501112       0.19470886
C        0.64543058       0.05399611       0.15029909
O        1.38102888       1.24091086       0.11219692
C       -0.48780641       0.44664700      -1.33998122
N       -1.24253400       1.19837761      -0.50695521
C       -1.83078880       0.24289799       0.40144969
C       -0.51574683      -0.07295660       0.99699748
H        1.14396994      -2.03987237       0.27468471
H        2.33179915      -0.94624641       1.03306440
H        2.24226269      -1.06464417      -0.71782158
H        0.73113711       1.95678429       0.13452311
H       -0.88845828      -0.51128584      -1.69772641
H        0.12801023       0.97512832      -2.06287743
H       -2.33393007      -0.61420730      -0.07997746
H       -2.51576244       0.71144733       1.11249946
H       -0.43257285      -0.50196572       1.99491559
16
Frame=3 idx=009725 GeodesicLength=0.2080719657336048 rxn_smarts="[C:1]([C@@:2]1([O:3][H:11])[C:4]([H:12])([H:13])[N:5]2[C:6]([H:14])([H:15])[C@@:7]12[H:16])([H:8])([H:9])[H:10]>>[C:1](/[C:2]([O:3][H:11])=[C:7](/[C:6]([N:5]=[C:4]([H:12])[H:13])([H:14])[H:15])[H:16])([H:8])([H:9])[H:10]"
C        1.64552976      -1.08151448       0.20184120
C        0.65259432       0.05169987       0.14989353
O        1.39114278       1.23631018       0.11801848
C       -0.49888243       0.45531294      -1.35360499
N       -1.24305898       1.19478981      -0.49845953
C       -1.83065261       0.23158012       0.40270554
C       -0.50961886      -0.06049516       0.99579837
H        1.13983494      -2.04316710       0.28428448
H        2.33078483      -0.95458053       1.04261670
H        2.24881714      -1.07649804      -0.70744061
H        0.74249400       1.95374738       0.13667537
H       -0.90414212      -0.49537924      -1.72437516
H        0.10345275       0.99750721      -2.07798593
H       -2.31903525      -0.63241048      -0.07923958
H       -2.52142119       0.69747860       1.10941008
H       -0.42783906      -0.47438108       1.99986205
16
Frame=4 idx=009725 GeodesicLength=0.2773951388912516 rxn_smarts="[C:1]([C@@:2]1([O:3][H:11])[C:4]([H:12])([H:13])[N:5]2[C:6]([H:14])([H:15])[C@@:7]12[H:16])([H:8])([H:9])[H:10]>>[C:1](/[C:2]([O:3][H:11])=[C:7](/[C:6]([N:5]=[C:4]([H:12])[H:13])([H:14])[H:15])[H:16])([H:8])([H:9])[H:10]"
C        1.64719349      -1.08804589       0.20930511
C        0.65991519       0.04933593       0.14967944
O        1.40136943       1.23162769       0.12393657
C       -0.51024796       0.46409586      -1.36735234
N       -1.24347042       1.19094251      -0.49026657
C       -1.83012301       0.22015093       0.40393150
C       -0.50344044      -0.04815737       0.99442101
H        1.13579331      -2.04644810       0.29410882
H        2.32969336      -0.96289388       1.05261371
H        2.25555930      -1.08843804      -0.69659524
H        0.75396034       1.95061501       0.13840350
H       -0.92075994      -0.47880682      -1.75120896
H        0.07805236       1.02017058      -2.09303773
H       -2.30363392      -0.65050026      -0.07852247
H       -2.52664262       0.68339237       1.10625201
H       -0.42321847      -0.44704054       2.00433162
16
Frame=5 idx=009725 GeodesicLength=0.34670635810911155 rxn_smarts="[C:1]([C@@:2]1([O:3][H:11])[C:4]([H:12])([H:13])[N:5]2[C:6]([H:14])([H:15])[C@@:7]12[H:16])([H:8])([H:9])[H:10]>>[C:1](/[C:2]([O:3][H:11])=[C:7](/[C:6]([N:5]=[C:4]([H:12])[H:13])([H:14])[H:15])[H:16])([H:8])([H:9])[H:10]"
C        1.64896670      -1.09460509       0.21711055
C        0.66740610       0.04689828       0.14966347
O        1.41171483       1.22686202       0.12996668
C       -0.52191254       0.47298981      -1.38123158
N       -1.24375095       1.18684037      -0.48238782
C       -1.82919282       0.20861223       0.40511457
C       -0.49720826      -0.03595526       0.99285643
H        1.13186284      -2.04971713       0.30416239
H        2.32853157      -0.97118167       1.06306833
H        2.26250721      -1.10046026      -0.68526774
H        0.76554639       1.94738004       0.13969885
H       -0.93837200      -0.46153744      -1.77820574
H        0.05176989       1.04309974      -2.10802452
H       -2.28773228      -0.66845159      -0.07785632
H       -2.53141946       0.66918889       1.10301003
H       -0.41871721      -0.41996294       2.00832243
16
Frame=6 idx=009725 GeodesicLength=0.41601461922606375 rxn_smarts="[C:1]([C@@:2]1([O:3][H:11])[C:4]([H:12])([H:13])[N:5]2[C:6]([H:14])([H:15])[C@@:7]12[H:16])([H:8])([H:9])[H:10]>>[C:1](/[C:2]([O:3][H:11])=[C:7](/[C:6]([N:5]=[C:4]([H:12])[H:13])([H:14])[H:15])[H:16])([H:8])([H:9])[H:10]"
C        1.65086494      -1.10119570       0.22526955
C        0.67508340       0.04437988       0.14985355
O        1.42218941       1.22201115       0.13612494
C       -0.53388839       0.48198936      -1.39525226
N       -1.24388075       1.18248673      -0.47483584
C       -1.82785509       0.19696644       0.40623862
C       -0.49091648      -0.02390002       0.99109438
H        1.12806031      -2.05297980       0.31445043
H        2.32730665      -0.97944437       1.07399609
H        2.26968144      -1.11256462      -0.67343846
H        0.77726476       1.94403416       0.14055127
H       -0.95704612      -0.44353974      -1.80533577
H        0.02455606       1.06629349      -2.12294015
H       -2.27132869      -0.68624939      -0.07727729
H       -2.53575106       0.65486748       1.09966375
H       -0.41434040      -0.39315505       2.01183720
16
Frame=7 idx=009725 GeodesicLength=0.48532249016473705 rxn_smarts="[C:1]([C@@:2]1([O:3][H:11])[C:4]([H:12])([H:13])[N:5]2[C:6]([H:14])([H:15])[C@@:7]12[H:16])([H:8])([H:9])[H:10]>>[C:1](/[C:2]([O:3][H:11])=[C:7](/[C:6]([N:5]=[C:4]([H:12])[H:13])([H:14])[H:15])[H:16])([H:8])([H:9])[H:10]"
C        1.65290377      -1.10781949       0.23379375
C        0.68296280       0.04177388       0.15025732
O        1.43280211       1.21707369       0.14242854
C       -0.54618685       0.49108601      -1.40942537
N       -1.24383909       1.17788350      -0.46762609
C       -1.82610295       0.18521543       0.40728557
C       -0.48455962      -0.01200212       0.98912431
H        1.12440316      -2.05623978       0.32497685
H        2.32602515      -0.98768084       1.08541222
H        2.27710206      -1.12474991      -0.66108813
H        0.78912825       1.94056836       0.14094959
H       -0.97684960      -0.42478089      -1.83256770
H       -0.00363434       1.08974643      -2.13777196
H       -2.25442585      -0.70387575      -0.07681706
H       -2.53963415       0.64043012       1.09619180
H       -0.41009485      -0.36662865       2.01487635
16
Frame=8 idx=009725 GeodesicLength=0.5546262798494863 rxn_smarts="[C:1]([C@@:2]1([O:3][H:11])[C:4]([H:12])([H:13])[N:5]2[C:6]([H:14])([H:15])[C@@:7]12[H:16])([H:8])([H:9])[H:10]>>[C:1](/[C:2]([O:3][H:11])=[C:7](/[C:6]([N:5]=[C:4]([H:12])[H:13])([H:14])[H:15])[H:16])([H:8])([H:9])[H:10]"
C        1.65509944      -1.11447713       0.24269392
C        0.69105907       0.03907366       0.15088209
O        1.44355806       1.21204979       0.14889986
C       -0.55882025       0.50027423      -1.42376243
N       -1.24360554       1.17303305      -0.46077401
C       -1.82392932       0.17336480       0.40824011
C       -0.47813427      -0.00027531       0.98693363
H        1.12091041      -2.05950161       0.33574075
H        2.32469277      -0.99588942       1.09733354
H        2.28479198      -1.13700844      -0.64819621
H        0.80115031       1.93697141       0.14088167
H       -0.99784165      -0.40524250      -1.85986139
H       -0.03285028       1.11344743      -2.15250394
H       -2.23703500      -0.72130853      -0.07651625
H       -2.54305698       0.62589014       1.09257712
H       -0.40598876      -0.34040157       2.01743155
16
Frame=9 idx=009725 GeodesicLength=0.6239468895279003 rxn_smarts="[C:1]([C@@:2]1([O:3][H:11])[C:4]([H:12])([H:13])[N:5]2[C:6]([H:14])([H:15])[C@@:7]12[H:16])([H:8])([H:9])[H:10]>>[C:1](/[C:2]([O:3][H:11])=[C:7](/[C:6]([N:5]=[C:4]([H:12])[H:13])([H:14])[H:15])[H:16])([H:8])([H:9])[H:10]"
C        1.65747677      -1.12117769       0.25199552
C        0.69939174       0.03626515       0.15174208
O        1.45446122       1.20693626       0.15555861
C       -0.57182997       0.50953260      -1.43828135
N       -1.24315678       1.16794238      -0.45428262
C       -1.82133341       0.16141875       0.40907876
C       -0.47163050       0.01125479       0.98449978
H        1.11761704      -2.06277937       0.34675114
H        2.32331613      -1.00407250       1.10979310
H        2.29278367      -1.14934244      -0.63472588
H        0.81336340       1.93321045       0.14027909
H       -1.02009137      -0.38488089      -1.88711815
H       -0.06315835       1.13745479      -2.16712470
H       -2.21916667      -0.73855021      -0.07646412
H       -2.54601778       0.61126527       1.08880682
H       -0.40202515      -0.31447735       2.01949194
16
Frame=10 idx=009725 GeodesicLength=0.6932634881681269 rxn_smarts="[C:1]([C@@:2]1([O:3][H:11])[C:4]([H:12])([H:13])[N:5]2[C:6]([H:14])([H:15])[C@@:7]12[H:16])([H:8])([H:9])[H:10]>>[C:1](/[C:2]([O:3][H:11])=[C:7](/[C:6]([N:5]=[C:4]([H:12])[H:13])([H:14])[H:15])[H:16])([H:8])([H:9])[H:10]"
C        1.66004288      -1.12792064       0.26170096
C        0.70797498       0.03334577       0.15283269
O        1.46552625       1.20173163       0.16241854
C       -0.58521038       0.51887627      -1.45299296
N       -1.24247289       1.16260924      -0.44818092
C       -1.81830503       0.14937777       0.40978226
C       -0.46504389       0.02259277       0.98181926
H        1.11452303      -2.06607234       0.35800927
H        2.32189489      -1.01222740       1.12279600
H        2.30109453      -1.16175057      -0.62066347
H        0.82577088       1.92928923       0.13917060
H       -1.04366123      -0.36366400      -1.91434056
H       -0.09459329       1.16171044      -2.18160675
H       -2.20081376      -0.75557355      -0.07664827
H       -2.54851873       0.59654222       1.08484120
H       -0.39820824      -0.28886683       2.02106216
16
Frame=11 idx=009725 GeodesicLength=0.762572865972204 rxn_smarts="[C:1]([C@@:2]1([O:3][H:11])[C:4]([H:12])([H:13])[N:5]2[C:6]([H:14])([H:15])[C@@:7]12[H:16])([H:8])([H:9])[H:10]>>[C:1](/[C:2]([O:3][H:11])=[C:7](/[C:6]([N:5]=[C:4]([H:12])[H:13])([H:14])[H:15])[H:16])([H:8])([H:9])[H:10]"
C        1.66281277      -1.13470708       0.27182150
C        0.71682387       0.03030711       0.15415691
O        1.47675961       1.19643407       0.16949892
C       -0.59898457       0.52830562      -1.46791446
N       -1.24153317       1.15703751      -0.44248617
C       -1.81483966       0.13724591       0.41032734
C       -0.45836851       0.03372682       0.97887464
H        1.11164672      -2.06938525       0.36951402
H        2.32042804      -1.02035268       1.13636058
H        2.30975211      -1.17422744      -0.60598314
H        0.83838921       1.92519311       0.13754060
H       -1.06860295      -0.34155906      -1.94147392
H       -0.12719680       1.18619716      -2.19592611
H       -2.18198991      -0.77236120      -0.07709947
H       -2.55055285       0.58172904       1.08065672
H       -0.39454390      -0.26358366       2.02213205
16
Frame=12 idx=009725 GeodesicLength=0.8318697700606859 rxn_smarts="[C:1]([C@@:2]1([O:3][H:11])[C:4]([H:12])([H:13])[N:5]2[C:6]([H:14])([H:15])[C@@:7]12[H:16])([H:8])([H:9])[H:10]>>[C:1](/[C:2]([O:3][H:11])=[C:7](/[C:6]([N:5]=[C:4]([H:12])[H:13])([H:14])[H:15])[H:16])([H:8])([H:9])[H:10]"
C        1.66580067      -1.14154083       0.28237040
C        0.72595290       0.02713990       0.15571471
O        1.48816650       1.19104022       0.17681789
C       -0.61317795       0.53782306      -1.48306376
N       -1.24031841       1.15123099      -0.43721433
C       -1.81093384       0.12502779       0.41069169
C       -0.45159703       0.04464565       0.97564880
H        1.10900505      -2.07272542       0.38126763
H        2.31891296      -1.02844687       1.15050635
H        2.31878342      -1.18677127      -0.59065546
H        0.85123992       1.92090255       0.13536323
H       -1.09496693      -0.31853470      -1.96845799
H       -0.16101237       1.21091465      -2.21005354
H       -2.16270237      -0.78890485      -0.07785564
H       -2.55211902       0.56683281       1.07622733
H       -0.39103350      -0.23863369       2.02269269
16
Frame=13 idx=009725 GeodesicLength=0.9011454941073153 rxn_smarts="[C:1]([C@@:2]1([O:3][H:11])[C:4]([H:12])([H:13])[N:5]2[C:6]([H:14])([H:15])[C@@:7]12[H:16])([H:8])([H:9])[H:10]>>[C:1](/[C:2]([O:3][H:11])=[C:7](/[C:6]([N:5]=[C:4]([H:12])[H:13])([H:14])[H:15])[H:16])([H:8])([H:9])[H:10]"
C        1.66901922      -1.14842170       0.29335688
C        0.73537623       0.02383688       0.15750907
O        1.49975157       1.18555081       0.18439456
C       -0.62782007       0.54743564      -1.49845847
N       -1.23880725       1.14519537      -0.43238273
C       -1.80658371       0.11272899       0.41085080
C       -0.44472360       0.05533859       0.97212408
H        1.10661346      -2.07609713       0.39326498
H        2.31734628      -1.03650765       1.16524915
H        2.32821239      -1.19937404      -0.57465607
H        0.86434149       1.91639968       0.13262087
H       -1.12279037      -0.29457278      -1.99522354
H       -0.19607525       1.23583906      -2.22395328
H       -2.14296760      -0.80518231      -0.07895228
H       -2.55321021       0.55186196       1.07152559
H       -0.38768259      -0.21403139       2.02273038
16
Frame=14 idx=009725 GeodesicLength=0.9703985861139397 rxn_smarts="[C:1]([C@@:2]1([O:3][H:11])[C:4]([H:12])([H:13])[N:5]2[C:6]([H:14])([H:15])[C@@:7]12[H:16])([H:8])([H:9])[H:10]>>[C:1](/[C:2]([O:3][H:11])=[C:7](/[C:6]([N:5]=[C:4]([H:12])[H:13])([H:14])[H:15])[H:16])([H:8])([H:9])[H:10]"
C        1.67248274      -1.15535575       0.30479716
C        0.74511064       0.02038875       0.15954135
O        1.51152063       1.17996409       0.19224573
C       -0.64294566       0.55715055      -1.51411860
N       -1.23697837       1.13893164      -0.42801350
C       -1.80178530       0.10035251       0.41077698
C       -0.43773951       0.06579615       0.96828094
H        1.10448813      -2.07950945       0.40550935
H        2.31572311      -1.04453576       1.18061206
H        2.33806659      -1.21203671      -0.55795168
H        0.87772138       1.91166042       0.12927842
H       -1.15212437      -0.26964134      -2.02168926
H       -0.23243259       1.26098072      -2.23758666
H       -2.12278599      -0.82119299      -0.08043553
H       -2.55382806       0.53682484       1.06651956
H       -0.38449337      -0.18977767       2.02223367
16
Frame=15 idx=009725 GeodesicLength=1.03962195719698 rxn_smarts="[C:1]([C@@:2]1([O:3][H:11])[C:4]([H:12])([H:13])[N:5]2[C:6]([H:14])([H:15])[C@@:7]12[H:16])([H:8])([H:9])[H:10]>>[C:1](/[C:2]([O:3][H:11])=[C:7](/[C:6]([N:5]=[C:4]([H:12])[H:13])([H:14])[H:15])[H:16])([H:8])([H:9])[H:10]"
C        1.67620368      -1.16234722       0.31670521
C        0.75517093       0.01678535       0.16181257
O        1.52347691       1.17427872       0.20038624
C       -0.65859060       0.56697454      -1.53006476
N       -1.23480924       1.13243983      -0.42413211
C       -1.79653483       0.08790246       0.41044127
C       -0.43063687       0.07600834       0.96409832
H        1.10264429      -2.08297091       0.41800239
H        2.31403798      -1.05252943       1.19661525
H        2.34837031      -1.22475754      -0.54051169
H        0.89140470       1.90665891       0.12530615
H       -1.18299970      -0.24372827      -2.04777089
H       -0.27013225       1.28635321      -2.25090399
H       -2.10216743      -0.83692669      -0.08234698
H       -2.55396906       0.52173520       1.06117568
H       -0.38146881      -0.16587650       2.02118733
16
Frame=16 idx=009725 GeodesicLength=1.1088066455485528 rxn_smarts="[C:1]([C@@:2]1([O:3][H:11])[C:4]([H:12])([H:13])[N:5]2[C:6]([H:14])([H:15])[C@@:7]12[H:16])([H:8])([H:9])[H:10]>>[C:1](/[C:2]([O:3][H:11])=[C:7](/[C:6]([N:5]=[C:4]([H:12])[H:13])([H:14])[H:15])[H:16])([H:8])([H:9])[H:10]"
C        1.68019485      -1.16939925       0.32909510
C        0.76557260       0.01301796       0.16432425
O        1.53562273       1.16849523       0.20883249
C       -0.67479768       0.57692023      -1.54631692
N       -1.23227673       1.12572146      -0.42076612
C       -1.79082888       0.07538477       0.40981257
C       -0.42340738       0.08596663       0.95955345
H        1.10109752      -2.08648896       0.43074308
H        2.31228345      -1.06048610       1.21327972
H        2.35914829      -1.23753320      -0.52230339
H        0.90542155       1.90136701       0.12066849
H       -1.21544937      -0.21682544      -2.07336864
H       -0.30921686       1.31196202      -2.26384751
H       -2.08111964      -0.85237466      -0.08473722
H       -2.55363095       0.50660910       1.05545862
H       -0.37861348      -0.14233681       2.01957202
