19
Frame=0 idx=008287 GeodesicLength=0.0 rxn_smarts="[C:1]([C:2]([C:3]([H:12])([H:13])[H:14])([C@@:4]1([H:15])[C:5]([H:16])([H:17])[C@:6]1([O:7][H:19])[H:18])[H:11])([H:8])([H:9])[H:10]>>[C:1]([C:2](=[C:3]([H:12])[H:14])[C@@:4]1([H:15])[C:5]([H:16])([H:17])[C@:6]1([O:7][H:19])[H:18])([H:9])([H:10])[H:11].[H:8][H:13]"
C        1.48247660       0.95290550       0.32899365
C        0.64269857      -0.20520057       0.03555646
C        1.27269344      -1.39009930      -0.38204241
C       -0.70647723       0.11637841      -0.53401829
C       -1.89332884      -0.76173258      -0.24368255
C       -1.82774192       0.60219737       0.34424536
O       -1.64941867       0.65744147       1.72918327
H        2.26974650       0.59633680      -1.32125454
H        1.00851852       1.90773895       0.53057265
H        2.44460434       0.78220059       0.79813853
H        0.63101962      -0.09093203       1.20649615
H        2.23468731      -1.66528698       0.03396418
H        2.16458687      -0.20083210      -1.53435174
H        0.67781031      -2.19812951      -0.78963299
H       -0.64849718       0.55684858      -1.52448928
H       -2.61029145      -0.96086579      -1.02835248
H       -1.73124096      -1.57586133       0.45173067
H       -2.48748953       1.36573551      -0.05741295
H       -1.27435637       1.51115692       1.95635626
19
Frame=1 idx=008287 GeodesicLength=0.11120758988145202 rxn_smarts="[C:1]([C:2]([C:3]([H:12])([H:13])[H:14])([C@@:4]1([H:15])[C:5]([H:16])([H:17])[C@:6]1([O:7][H:19])[H:18])[H:11])([H:8])([H:9])[H:10]>>[C:1]([C:2](=[C:3]([H:12])[H:14])[C@@:4]1([H:15])[C:5]([H:16])([H:17])[C@:6]1([O:7][H:19])[H:18])([H:9])([H:10])[H:11].[H:8][H:13]"
C        1.49287639       0.95681665       0.32108451
C        0.64046932      -0.20065282       0.04881548
C        1.26906697      -1.38724582      -0.37119031
C       -0.70427269       0.12335976      -0.52785809
C       -1.89176745      -0.76112770      -0.25824102
C       -1.83553570       0.59750661       0.34322557
O       -1.68171189       0.63836870       1.73101695
H        2.25145109       0.60394949      -1.34055091
H        1.04440639       1.92134110       0.53367936
H        2.46694834       0.78293503       0.76521676
H        0.64717854      -0.05062992       1.22830470
H        2.22487475      -1.66756826       0.05641410
H        2.14271940      -0.22058359      -1.54361545
H        0.66993974      -2.20212418      -0.75884296
H       -0.64288879       0.57074375      -1.51515602
H       -2.59905111      -0.95545396      -1.05289094
H       -1.73488746      -1.58248966       0.42981764
H       -2.49326375       1.36269050      -0.05851794
H       -1.26655209       1.47016432       1.96928856
19
Frame=2 idx=008287 GeodesicLength=0.22203371274696332 rxn_smarts="[C:1]([C:2]([C:3]([H:12])([H:13])[H:14])([C@@:4]1([H:15])[C:5]([H:16])([H:17])[C@:6]1([O:7][H:19])[H:18])[H:11])([H:8])([H:9])[H:10]>>[C:1]([C:2](=[C:3]([H:12])[H:14])[C@@:4]1([H:15])[C:5]([H:16])([H:17])[C@:6]1([O:7][H:19])[H:18])([H:9])([H:10])[H:11].[H:8][H:13]"
C        1.50319948       0.96059821       0.31315885
C        0.63828941      -0.19592573       0.06225204
C        1.26537355      -1.38433987      -0.36017724
C       -0.70207247       0.13021528      -0.52165077
C       -1.89000994      -0.76036313      -0.27264162
C       -1.84312506       0.59284624       0.34216151
O       -1.71315910       0.61958215       1.73216662
H        2.23284131       0.61227438      -1.35939380
H        1.08127466       1.93458732       0.53598662
H        2.48834244       0.78287585       0.73222550
H        0.66349753      -0.00941715       1.24921594
H        2.21481152      -1.66958381       0.07914294
H        2.12035187      -0.24081001      -1.55248455
H        0.66217444      -2.20559698      -0.72800200
H       -0.63735006       0.58444096      -1.50574087
H       -2.58760250      -0.94975097      -1.07704187
H       -1.73825405      -1.58881778       0.40801801
H       -2.49883459       1.35969116      -0.05962008
H       -1.25974844       1.42749388       1.98242476
19
Frame=3 idx=008287 GeodesicLength=0.33252635472649494 rxn_smarts="[C:1]([C:2]([C:3]([H:12])([H:13])[H:14])([C@@:4]1([H:15])[C:5]([H:16])([H:17])[C@:6]1([O:7][H:19])[H:18])[H:11])([H:8])([H:9])[H:10]>>[C:1]([C:2](=[C:3]([H:12])[H:14])[C@@:4]1([H:15])[C:5]([H:16])([H:17])[C@:6]1([O:7][H:19])[H:18])([H:9])([H:10])[H:11].[H:8][H:13]"
C        1.51345422       0.96424688       0.30524025
C        0.63616048      -0.19099904       0.07585263
C        1.26160326      -1.38138103      -0.34897286
C       -0.69987972       0.13696249      -0.51538890
C       -1.88805389      -0.75944503      -0.28688829
C       -1.85052169       0.58820560       0.34107166
O       -1.74380514       0.60104135       1.73269606
H        2.21393025       0.62142879      -1.37776371
H        1.11916464       1.94746235       0.53739161
H        2.50879831       0.78200224       0.69921595
H        0.67996055       0.03270891       1.26919304
H        2.20449092      -1.67132639       0.10216802
H        2.09748114      -0.26157351      -1.56093422
H        0.65449627      -2.20854079      -0.69713085
H       -0.63188963       0.59796986      -1.49623324
H       -2.57594401      -0.94376410      -1.10081385
H       -1.74133031      -1.59486455       0.38631522
H       -2.50422717       1.35672191      -0.06068848
H       -1.25388847       1.38314405       1.99566998
19
Frame=4 idx=008287 GeodesicLength=0.4427261772729309 rxn_smarts="[C:1]([C:2]([C:3]([H:12])([H:13])[H:14])([C@@:4]1([H:15])[C:5]([H:16])([H:17])[C@:6]1([O:7][H:19])[H:18])[H:11])([H:8])([H:9])[H:10]>>[C:1]([C:2](=[C:3]([H:12])[H:14])[C@@:4]1([H:15])[C:5]([H:16])([H:17])[C@:6]1([O:7][H:19])[H:18])([H:9])([H:10])[H:11].[H:8][H:13]"
C        1.52365055       0.96776547       0.29734366
C        0.63408418      -0.18584833       0.08960191
C        1.25774608      -1.37836875      -0.33753448
C       -0.69769697       0.14362057      -0.50906929
C       -1.88589802      -0.75837360      -0.30099126
C       -1.85773457       0.58357705       0.33997149
O       -1.77369571       0.58270247       1.73266102
H        2.19472153       0.63154122      -1.39565200
H        1.15811065       1.95994655       0.53779636
H        2.52833072       0.78030130       0.66622352
H        0.69654810       0.07576734       1.28819623
H        2.19390641      -1.67278394       0.12552204
H        2.07410402      -0.28295373      -1.56893587
H        0.64688373      -2.21095524      -0.66622359
H       -0.62651385       0.61136137      -1.48662646
H       -2.56407693      -0.93748917      -1.12422103
H       -1.74410935      -1.60064340       0.36468520
H       -2.50945909       1.35377540      -0.06169289
H       -1.24890149       1.33705740       2.00894543
19
Frame=5 idx=008287 GeodesicLength=0.5526695948616501 rxn_smarts="[C:1]([C:2]([C:3]([H:12])([H:13])[H:14])([C@@:4]1([H:15])[C:5]([H:16])([H:17])[C@:6]1([O:7][H:19])[H:18])[H:11])([H:8])([H:9])[H:10]>>[C:1]([C:2](=[C:3]([H:12])[H:14])[C@@:4]1([H:15])[C:5]([H:16])([H:17])[C@:6]1([O:7][H:19])[H:18])([H:9])([H:10])[H:11].[H:8][H:13]"
C        1.53379784       0.97116005       0.28948029
C        0.63206189      -0.18044661       0.10348208
C        1.25379230      -1.37530227      -0.32581102
C       -0.69552673       0.15020900      -0.50269348
C       -1.88354229      -0.75714388      -0.31496387
C       -1.86476985       0.57895658       0.33887269
O       -1.80287277       0.56452785       1.73210826
H        2.17521320       0.64275748      -1.41305124
H        1.19813810       1.97201277       0.53711020
H        2.54695484       0.77776511       0.63327276
H        0.71323505       0.11978815       1.30618126
H        2.18305319      -1.67393868       0.14924779
H        2.05021156      -0.30504421      -1.57645988
H        0.63931230      -2.21284580      -0.63524877
H       -0.62122803       0.62464587      -1.47691837
H       -2.55200554      -0.93091399      -1.14727938
H       -1.74658693      -1.60616118       0.34310181
H       -2.51454124       1.35085160      -0.06260652
H       -1.24469690       1.28912216       2.02217538
19
Frame=6 idx=008287 GeodesicLength=0.6623911565015725 rxn_smarts="[C:1]([C:2]([C:3]([H:12])([H:13])[H:14])([C@@:4]1([H:15])[C:5]([H:16])([H:17])[C@:6]1([O:7][H:19])[H:18])[H:11])([H:8])([H:9])[H:10]>>[C:1]([C:2](=[C:3]([H:12])[H:14])[C@@:4]1([H:15])[C:5]([H:16])([H:17])[C@:6]1([O:7][H:19])[H:18])([H:9])([H:10])[H:11].[H:8][H:13]"
C        1.54390682       0.97444115       0.28165512
C        0.63009554      -0.17476357       0.11747177
C        1.24973224      -1.37218139      -0.31374178
C       -0.69337037       0.15674792      -0.49626937
C       -1.88098785      -0.75574506      -0.32882382
C       -1.87162923       0.57434469       0.33778355
O       -1.83137092       0.54648415       1.73107626
H        2.15539370       0.65524412      -1.42996059
H        1.23926577       1.98362653       0.53525447
H        2.56468714       0.77439011       0.60037235
H        0.72999015       0.16481642       1.32309724
H        2.17192738      -1.67476695       0.17340079
H        2.02579226      -0.32795842      -1.58347280
H        0.63175380      -2.21422347      -0.60414403
H       -0.61603502       0.63785308      -1.46711334
H       -2.53973847      -0.92401684      -1.17000715
H       -1.74876221      -1.61141803       0.32153502
H       -2.51947614       1.34795913      -0.06340386
H       -1.24117459       1.23916643       2.03529014
19
Frame=7 idx=008287 GeodesicLength=0.7719256684514569 rxn_smarts="[C:1]([C:2]([C:3]([H:12])([H:13])[H:14])([C@@:4]1([H:15])[C:5]([H:16])([H:17])[C@:6]1([O:7][H:19])[H:18])[H:11])([H:8])([H:9])[H:10]>>[C:1]([C:2](=[C:3]([H:12])[H:14])[C@@:4]1([H:15])[C:5]([H:16])([H:17])[C@:6]1([O:7][H:19])[H:18])([H:9])([H:10])[H:11].[H:8][H:13]"
C        1.55398758       0.97762015       0.27387308
C        0.62818743      -0.16876812       0.13154436
C        1.24555674      -1.36900720      -0.30126185
C       -0.69122844       0.16325591      -0.48981206
C       -1.87823710      -0.75416234      -0.34258826
C       -1.87830949       0.56974713       0.33670813
O       -1.85920952       0.52855502       1.72959530
H        2.13524231       0.66920060      -1.44637756
H        1.28150320       1.99474186       0.53216855
H        2.58154253       0.77017312       0.56752078
H        0.74677327       0.21090338       1.33888545
H        2.16052676      -1.67524015       0.19804335
H        2.00083096      -0.35182674      -1.58993785
H        0.62417680      -2.21510284      -0.57282249
H       -0.61093627       0.65100864      -1.45722376
H       -2.52728954      -0.91677199      -1.19241883
H       -1.75063657      -1.61640653       0.29995941
H       -2.52425870       1.34511376      -0.06406417
H       -1.23822196       1.18696634       2.04820841
19
Frame=8 idx=008287 GeodesicLength=0.8813028857275427 rxn_smarts="[C:1]([C:2]([C:3]([H:12])([H:13])[H:14])([C@@:4]1([H:15])[C:5]([H:16])([H:17])[C@:6]1([O:7][H:19])[H:18])[H:11])([H:8])([H:9])[H:10]>>[C:1]([C:2](=[C:3]([H:12])[H:14])[C@@:4]1([H:15])[C:5]([H:16])([H:17])[C@:6]1([O:7][H:19])[H:18])([H:9])([H:10])[H:11].[H:8][H:13]"
C        1.56405055       0.98070778       0.26614535
C        0.62634099      -0.16243121       0.14566566
C        1.24125846      -1.36578534      -0.28830964
C       -0.68910045       0.16974773      -0.48334529
C       -1.87529529      -0.75238103      -0.35626910
C       -1.88480343       0.56517645       0.33564673
O       -1.88638732       0.51075464       1.72769202
H        2.11472556       0.68487112      -1.46229051
H        1.32485017       2.00529975       0.52781723
H        2.59753556       0.76511056       0.53471023
H        0.76353260       0.25809844       1.35348001
H        2.14885126      -1.67532940       0.22323746
H        1.97531880      -0.37679399      -1.59581734
H        0.61654698      -2.21550434      -0.54118473
H       -0.60593014       0.66413037      -1.44727342
H       -2.51468007      -0.90915866      -1.21451996
H       -1.75221582      -1.62111410       0.27836365
H       -2.52887790       1.34233846      -0.06457367
H       -1.23572049       1.13226278       2.06082530
19
Frame=9 idx=008287 GeodesicLength=0.9905766557116296 rxn_smarts="[C:1]([C:2]([C:3]([H:12])([H:13])[H:14])([C@@:4]1([H:15])[C:5]([H:16])([H:17])[C@:6]1([O:7][H:19])[H:18])[H:11])([H:8])([H:9])[H:10]>>[C:1]([C:2](=[C:3]([H:12])[H:14])[C@@:4]1([H:15])[C:5]([H:16])([H:17])[C@:6]1([O:7][H:19])[H:18])([H:9])([H:10])[H:11].[H:8][H:13]"
C        1.57410732       0.98371638       0.25846291
C        0.62456055      -0.15571911       0.15979624
C        1.23682550      -1.36251590      -0.27479294
C       -0.68698257       0.17624027      -0.47690325
C       -1.87216364      -0.75037014      -0.36989145
C       -1.89108782       0.56064652       0.33459221
O       -1.91286489       0.49307961       1.72537298
H        2.09381431       0.70254131      -1.47771995
H        1.36930694       2.01522708       0.52220069
H        2.61267532       0.75919039       0.50188795
H        0.78021044       0.30648083       1.36679766
H        2.13690415      -1.67498450       0.24907252
H        1.94919583      -0.40305212      -1.60104661
H        0.60882490      -2.21543515      -0.50905032
H       -0.60101816       0.67723600      -1.43729141
H       -2.50193894      -0.90112585      -1.23632124
H       -1.75349962      -1.62551038       0.25671456
H       -2.53330647       1.33966092      -0.06491333
H       -1.23356316       1.07469383       2.07303278
19
Frame=10 idx=008287 GeodesicLength=1.0997336640438824 rxn_smarts="[C:1]([C:2]([C:3]([H:12])([H:13])[H:14])([C@@:4]1([H:15])[C:5]([H:16])([H:17])[C@:6]1([O:7][H:19])[H:18])[H:11])([H:8])([H:9])[H:10]>>[C:1]([C:2](=[C:3]([H:12])[H:14])[C@@:4]1([H:15])[C:5]([H:16])([H:17])[C@:6]1([O:7][H:19])[H:18])([H:9])([H:10])[H:11].[H:8][H:13]"
C        1.58416005       0.98663709       0.25088634
C        0.62284924      -0.14862644       0.17387665
C        1.23225704      -1.35922003      -0.26069714
C       -0.68487534       0.18272363      -0.47053467
C       -1.86885542      -0.74813545      -0.38342230
C       -1.89714712       0.55618957       0.33352703
O       -1.93855936       0.47568487       1.72266290
H        2.07245038       0.72261073      -1.49258353
H        1.41484505       2.02441650       0.51538099
H        2.62696043       0.75238961       0.46906999
H        0.79671603       0.35603896       1.37876505
H        2.12468900      -1.67419339       0.27556958
H        1.92247893      -0.43073647      -1.60559324
H        0.60097664      -2.21492197      -0.47637677
H       -0.59619796       0.69029422      -1.42734286
H       -2.48911160      -0.89271694      -1.25776837
H       -1.75449617      -1.62957223       0.23509580
H       -2.53752939       1.33710655      -0.06511776
H       -1.23161043       1.01403117       2.08460232
19
Frame=11 idx=008287 GeodesicLength=1.2087786810017958 rxn_smarts="[C:1]([C:2]([C:3]([H:12])([H:13])[H:14])([C@@:4]1([H:15])[C:5]([H:16])([H:17])[C@:6]1([O:7][H:19])[H:18])[H:11])([H:8])([H:9])[H:10]>>[C:1]([C:2](=[C:3]([H:12])[H:14])[C@@:4]1([H:15])[C:5]([H:16])([H:17])[C@:6]1([O:7][H:19])[H:18])([H:9])([H:10])[H:11].[H:8][H:13]"
C        1.59421047       0.98945602       0.24346791
C        0.62121254      -0.14115395       0.18783693
C        1.22755089      -1.35592001      -0.24599049
C       -0.68277553       0.18918309      -0.46430109
C       -1.86538157      -0.74567663      -0.39683406
C       -1.90295021       0.55183720       0.33242450
O       -1.96332225       0.45873026       1.71957649
H        2.05056233       0.74556185      -1.50681579
H        1.46143390       2.03273542       0.50749390
H        2.64038591       0.74467448       0.43622188
H        0.81295389       0.40676236       1.38929802
H        2.11221659      -1.67293284       0.30276147
H        1.89514427      -0.46002716      -1.60940148
H        0.59296529      -2.21398364      -0.44305911
H       -0.59147048       0.70326448      -1.41750175
H       -2.47625386      -0.88396362      -1.27880467
H       -1.75520901      -1.63326552       0.21358553
H       -2.54151933       1.33469898      -0.06522265
H       -1.22975383       0.95001924       2.09526446
19
Frame=12 idx=008287 GeodesicLength=1.317723676350616 rxn_smarts="[C:1]([C:2]([C:3]([H:12])([H:13])[H:14])([C@@:4]1([H:15])[C:5]([H:16])([H:17])[C@:6]1([O:7][H:19])[H:18])[H:11])([H:8])([H:9])[H:10]>>[C:1]([C:2](=[C:3]([H:12])[H:14])[C@@:4]1([H:15])[C:5]([H:16])([H:17])[C@:6]1([O:7][H:19])[H:18])([H:9])([H:10])[H:11].[H:8][H:13]"
C        1.60426645       0.99215009       0.23628784
C        0.61966033      -0.13332519       0.20159074
C        1.22271152      -1.35265859      -0.23066455
C       -0.68067946       0.19558582      -0.45828280
C       -1.86176558      -0.74301523      -0.41008213
C       -1.90846310       0.54762540       0.33124547
O       -1.98693477       0.44243964       1.71614034
H        2.02804978       0.77201460      -1.52030671
H        1.50904379       2.04002604       0.49877008
H        2.65295120       0.73600820       0.40328670
H        0.82882288       0.45858761       1.39832146
H        2.09951284      -1.67119902       0.33065299
H        1.86717556      -0.49111630      -1.61242414
H        0.58475481      -2.21265818      -0.40900584
H       -0.58683597       0.71607877      -1.40787178
H       -2.46344800      -0.87494102      -1.29935270
H       -1.75565444      -1.63656843       0.19230805
H       -2.54525123       1.33246090      -0.06529040
H       -1.22791662       0.88250488       2.10467739
19
Frame=13 idx=008287 GeodesicLength=1.426529284727706 rxn_smarts="[C:1]([C:2]([C:3]([H:12])([H:13])[H:14])([C@@:4]1([H:15])[C:5]([H:16])([H:17])[C@:6]1([O:7][H:19])[H:18])[H:11])([H:8])([H:9])[H:10]>>[C:1]([C:2](=[C:3]([H:12])[H:14])[C@@:4]1([H:15])[C:5]([H:16])([H:17])[C@:6]1([O:7][H:19])[H:18])([H:9])([H:10])[H:11].[H:8][H:13]"
C        1.61429204       0.99464873       0.22946192
C        0.61819341      -0.12520025       0.21502555
C        1.21774602      -1.34948465      -0.21476349
C       -0.67856601       0.20186588      -0.45256577
C       -1.85799594      -0.74018687      -0.42308086
C       -1.91362546       0.54358874       0.32994794
O       -2.00907829       0.42713385       1.71239437
H        2.00479360       0.80273709      -1.53285364
H        1.55757661       2.04604446       0.48956008
H        2.66459552       0.72632805       0.37016731
H        0.84418302       0.51135042       1.40576431
H        2.08659821      -1.66898908       0.35917126
H        1.83853183      -0.52421466      -1.61463426
H        0.57633035      -2.21096656      -0.37418715
H       -0.58227042       0.72860275      -1.39856000
H       -2.45072639      -0.86577388      -1.31927803
H       -1.75581366      -1.63943372       0.17145246
H       -2.54867130       1.33038426      -0.06539358
H       -1.22609315       0.81156545       2.11237157
19
Frame=14 idx=008287 GeodesicLength=1.535230438117878 rxn_smarts="[C:1]([C:2]([C:3]([H:12])([H:13])[H:14])([C@@:4]1([H:15])[C:5]([H:16])([H:17])[C@:6]1([O:7][H:19])[H:18])[H:11])([H:8])([H:9])[H:10]>>[C:1]([C:2](=[C:3]([H:12])[H:14])[C@@:4]1([H:15])[C:5]([H:16])([H:17])[C@:6]1([O:7][H:19])[H:18])([H:9])([H:10])[H:11].[H:8][H:13]"
C        1.62431302       0.99690122       0.22312056
C        0.61683217      -0.11686558       0.22802035
C        1.21266992      -1.34649141      -0.19832167
C       -0.67642454       0.20794273      -0.44727061
C       -1.85411807      -0.73727142      -0.43576114
C       -1.91839637       0.53975656       0.32845379
O       -2.02938660       0.41313828       1.70838949
H        1.98057178       0.83872881      -1.54422160
H        1.60703209       2.05056572       0.48034919
H        2.67532431       0.71559422       0.33667874
H        0.85896639       0.56482629       1.41159936
H        2.07353799      -1.66634371       0.38825579
H        1.80919834      -0.55956943      -1.61600506
H        0.56765656      -2.20898990      -0.33852199
H       -0.57776429       0.74069773      -1.38973571
H       -2.43821459      -0.85664196      -1.33847783
H       -1.75573266      -1.64187918       0.15122924
H       -2.55175777       1.32846838      -0.06566646
H       -1.22430769       0.73743266       2.11788556
19
Frame=15 idx=008287 GeodesicLength=1.6438142656503218 rxn_smarts="[C:1]([C:2]([C:3]([H:12])([H:13])[H:14])([C@@:4]1([H:15])[C:5]([H:16])([H:17])[C@:6]1([O:7][H:19])[H:18])[H:11])([H:8])([H:9])[H:10]>>[C:1]([C:2](=[C:3]([H:12])[H:14])[C@@:4]1([H:15])[C:5]([H:16])([H:17])[C@:6]1([O:7][H:19])[H:18])([H:9])([H:10])[H:11].[H:8][H:13]"
C        1.63430002       0.99879918       0.21741284
C        0.61558671      -0.10845073       0.24042840
C        1.20750243      -1.34378699      -0.18141893
C       -0.67421826       0.21369880      -0.44251641
C       -1.85012022      -0.73436326      -0.44802713
C       -1.92270565       0.53615240       0.32667674
O       -2.04742328       0.40085453       1.70417815
H        1.95508444       0.88119552      -1.55402070
H        1.65733841       2.05326131       0.47176118
H        2.68505594       0.70374641       0.30250841
H        0.87310493       0.61866135       1.41582166
H        2.06039943      -1.66330408       0.41776140
H        1.77910564      -0.59749828      -1.61653526
H        0.55873165      -2.20679657      -0.30197051
H       -0.57327203       0.75214763      -1.38155845
H       -2.42594517      -0.84777470      -1.35681220
H       -1.75540416      -1.64389723       0.13188697
H       -2.55445373       1.32667538      -0.06625505
H       -1.22266710       0.66067933       2.12067890
19
Frame=16 idx=008287 GeodesicLength=1.7523606228566693 rxn_smarts="[C:1]([C:2]([C:3]([H:12])([H:13])[H:14])([C@@:4]1([H:15])[C:5]([H:16])([H:17])[C@:6]1([O:7][H:19])[H:18])[H:11])([H:8])([H:9])[H:10]>>[C:1]([C:2](=[C:3]([H:12])[H:14])[C@@:4]1([H:15])[C:5]([H:16])([H:17])[C@:6]1([O:7][H:19])[H:18])([H:9])([H:10])[H:11].[H:8][H:13]"
C        1.64428148       1.00025180       0.21246899
C        0.61448789      -0.10010690       0.25210287
C        1.20226419      -1.34153548      -0.16409686
C       -0.67191122       0.21900599      -0.43844798
C       -1.84602474      -0.73159910      -0.45982752
C       -1.92649875       0.53279020       0.32448905
O       -2.06275801       0.39064448       1.69980415
H        1.92788798       0.93164224      -1.56173141
H        1.70854865       2.05381092       0.46454115
H        2.69374156       0.69076458       0.26713646
H        0.88665867       0.67244536       1.41848704
H        2.04730171      -1.65995008       0.44757162
H        1.74813250      -0.63843014      -1.61623350
H        0.54953506      -2.20452541      -0.26438934
H       -0.56874970       0.76273574      -1.37423686
H       -2.41399704      -0.83944709      -1.37421431
H       -1.75486939      -1.64555170       0.11364875
H       -2.55672335       1.32497563      -0.06736903
H       -1.22130748       0.58207894       2.12029673
