11
Frame=0 idx=007328 GeodesicLength=0.0 rxn_smarts="[N:1]([c:2]1[c:3]([H:10])[o:4][c:5](=[O:6])[n:7]1[H:11])([H:8])[H:9]>>[N:1](=[C:2]1/[C:3]([H:9])([H:10])[O:4][C:5](=[O:6])[N:7]1[H:11])\[H:8]"
N       -1.80242828      -0.41687820       0.06122387
C       -0.53500020      -0.19058324      -0.13398162
C       -0.24589394       1.15035163       0.26751995
O        1.17350068       1.12123930       0.53976833
C        1.67635392      -0.04979223       0.13758559
O        2.80821929      -0.40612377       0.22061867
N        0.60880454      -0.85131681      -0.37601934
H       -2.32519336      -1.15046577      -0.39999240
H       -1.65413388       0.75322321       0.67167682
H       -0.44261435       1.88422541      -0.51455347
H        0.73838559      -1.84387954      -0.47384637
11
Frame=1 idx=007328 GeodesicLength=0.038105030794705064 rxn_smarts="[N:1]([c:2]1[c:3]([H:10])[o:4][c:5](=[O:6])[n:7]1[H:11])([H:8])[H:9]>>[N:1](=[C:2]1/[C:3]([H:9])([H:10])[O:4][C:5](=[O:6])[N:7]1[H:11])\[H:8]"
N       -1.80194855      -0.41992870       0.06029240
C       -0.53818744      -0.18268548      -0.15781114
C       -0.24381234       1.15157422       0.26194010
O        1.17137943       1.11731136       0.54168204
C        1.67495241      -0.05312784       0.13483424
O        2.80741118      -0.40805852       0.21940397
N        0.60779102      -0.85284713      -0.37336198
H       -2.31118518      -1.16631908      -0.39551885
H       -1.65566112       0.75928416       0.67618160
H       -0.44129001       1.90162849      -0.50368715
H        0.73055060      -1.84683149      -0.46395524
11
Frame=2 idx=007328 GeodesicLength=0.07620343905433327 rxn_smarts="[N:1]([c:2]1[c:3]([H:10])[o:4][c:5](=[O:6])[n:7]1[H:11])([H:8])[H:9]>>[N:1](=[C:2]1/[C:3]([H:9])([H:10])[O:4][C:5](=[O:6])[N:7]1[H:11])\[H:8]"
N       -1.80121486      -0.42315840       0.05949208
C       -0.54120679      -0.17531809      -0.18008865
C       -0.24181410       1.15267263       0.25620392
O        1.16919779       1.11355625       0.54325258
C        1.67353866      -0.05638759       0.13206362
O        2.80667281      -0.40974305       0.21767704
N        0.60652807      -0.85440775      -0.37012520
H       -2.29705367      -1.18086077      -0.39244690
H       -1.65711792       0.76525808       0.68109957
H       -0.44023183       1.91802797      -0.49312491
H        0.72270182      -1.84963928      -0.45400314
11
Frame=3 idx=007328 GeodesicLength=0.11428054268921267 rxn_smarts="[N:1]([c:2]1[c:3]([H:10])[o:4][c:5](=[O:6])[n:7]1[H:11])([H:8])[H:9]>>[N:1](=[C:2]1/[C:3]([H:9])([H:10])[O:4][C:5](=[O:6])[N:7]1[H:11])\[H:8]"
N       -1.80026826      -0.42654387       0.05889635
C       -0.54406866      -0.16850103      -0.20088389
C       -0.23989187       1.15367145       0.25027279
O        1.16698026       1.11001393       0.54439479
C        1.67212065      -0.05959092       0.12932340
O        2.80595724      -0.41129853       0.21579991
N        0.60509499      -0.85593766      -0.36650122
H       -2.28291216      -1.19421369      -0.39053779
H       -1.65847590       0.77117827       0.68645694
H       -0.43946594       1.93346813      -0.48294256
H        0.71492964      -1.85224609      -0.44427872
11
Frame=4 idx=007328 GeodesicLength=0.15234594258338813 rxn_smarts="[N:1]([c:2]1[c:3]([H:10])[o:4][c:5](=[O:6])[n:7]1[H:11])([H:8])[H:9]>>[N:1](=[C:2]1/[C:3]([H:9])([H:10])[O:4][C:5](=[O:6])[N:7]1[H:11])\[H:8]"
N       -1.79920000      -0.42999077       0.05836753
C       -0.54679926      -0.16217119      -0.22043170
C       -0.23802630       1.15460474       0.24413889
O        1.16470894       1.10664619       0.54525251
C        1.67066433      -0.06279715       0.12678617
O        2.80527194      -0.41272106       0.21375965
N        0.60352222      -0.85740637      -0.36259906
H       -2.26877617      -1.20670561      -0.38941528
H       -1.65972903       0.77710396       0.69215781
H       -0.43886785       1.94808272      -0.47312478
H        0.70723118      -1.85464547      -0.43489174
11
Frame=5 idx=007328 GeodesicLength=0.1903417392962129 rxn_smarts="[N:1]([c:2]1[c:3]([H:10])[o:4][c:5](=[O:6])[n:7]1[H:11])([H:8])[H:9]>>[N:1](=[C:2]1/[C:3]([H:9])([H:10])[O:4][C:5](=[O:6])[N:7]1[H:11])\[H:8]"
N       -1.79795023      -0.43360940       0.05819035
C       -0.54940026      -0.15636871      -0.23869179
C       -0.23622194       1.15547142       0.23774526
O        1.16243380       1.10354065       0.54556910
C        1.66919610      -0.06598389       0.12439553
O        2.80452672      -0.41415547       0.21208944
N        0.60188593      -0.85877351      -0.35859677
H       -2.25478454      -1.21819085      -0.38909149
H       -1.66080378       0.78302899       0.69832235
H       -0.43859590       1.96183927      -0.46377845
H        0.69971409      -1.85679849      -0.42615353
11
Frame=6 idx=007328 GeodesicLength=0.22834505411295702 rxn_smarts="[N:1]([c:2]1[c:3]([H:10])[o:4][c:5](=[O:6])[n:7]1[H:11])([H:8])[H:9]>>[N:1](=[C:2]1/[C:3]([H:9])([H:10])[O:4][C:5](=[O:6])[N:7]1[H:11])\[H:8]"
N       -1.79659935      -0.43732537       0.05822198
C       -0.55189673      -0.15102138      -0.25592065
C       -0.23447281       1.15630264       0.23110291
O        1.16011338       1.10063724       0.54553547
C        1.66769341      -0.06919442       0.12225267
O        2.80377196      -0.41556065       0.21065128
N        0.60020104      -0.86005335      -0.35452243
H       -2.24093919      -1.22894639      -0.38928344
H       -1.66172924       0.78901457       0.70484262
H       -0.43851358       1.97488918      -0.45483835
H        0.69237112      -1.85874208      -0.41804205
11
Frame=7 idx=007328 GeodesicLength=0.2663955294892008 rxn_smarts="[N:1]([c:2]1[c:3]([H:10])[o:4][c:5](=[O:6])[n:7]1[H:11])([H:8])[H:9]>>[N:1](=[C:2]1/[C:3]([H:9])([H:10])[O:4][C:5](=[O:6])[N:7]1[H:11])\[H:8]"
N       -1.79516070      -0.44111701       0.05840144
C       -0.55431372      -0.14608131      -0.27229250
C       -0.23276864       1.15711936       0.22420845
O        1.15776877       1.09793338       0.54514755
C        1.66617355      -0.07241627       0.12027582
O        2.80296425      -0.41698376       0.20956095
N        0.59849033      -0.86125080      -0.35044752
H       -2.22723560      -1.23910272      -0.38987252
H       -1.66248285       0.79504170       0.71175561
H       -0.43862545       1.98736274      -0.44623754
H        0.68519007      -1.86050531      -0.41049973
11
Frame=8 idx=007328 GeodesicLength=0.30437506215248195 rxn_smarts="[N:1]([c:2]1[c:3]([H:10])[o:4][c:5](=[O:6])[n:7]1[H:11])([H:8])[H:9]>>[N:1](=[C:2]1/[C:3]([H:9])([H:10])[O:4][C:5](=[O:6])[N:7]1[H:11])\[H:8]"
N       -1.79368507      -0.44488561       0.05852664
C       -0.55666010      -0.14148807      -0.28798349
C       -0.23110426       1.15790430       0.21709457
O        1.15535008       1.09535218       0.54460300
C        1.66460232      -0.07563281       0.11850022
O        2.80214728      -0.41837275       0.20853236
N        0.59673393      -0.86235995      -0.34632676
H       -2.21362220      -1.24881469      -0.39073453
H       -1.66305014       0.80108643       0.71897146
H       -0.43882770       1.99931998      -0.43788560
H        0.67811584      -1.86210901      -0.40329788
11
Frame=9 idx=007328 GeodesicLength=0.3423038095311896 rxn_smarts="[N:1]([c:2]1[c:3]([H:10])[o:4][c:5](=[O:6])[n:7]1[H:11])([H:8])[H:9]>>[N:1](=[C:2]1/[C:3]([H:9])([H:10])[O:4][C:5](=[O:6])[N:7]1[H:11])\[H:8]"
N       -1.79213519      -0.44872561       0.05879646
C       -0.55893869      -0.13727117      -0.30292519
C       -0.22948410       1.15863826       0.20973891
O        1.15287565       1.09288759       0.54381308
C        1.66297806      -0.07893518       0.11707177
O        2.80130910      -0.41960928       0.20761820
N        0.59497045      -0.86342983      -0.34216938
H       -2.20019725      -1.25791679      -0.39196617
H       -1.66341849       0.80723123       0.72647511
H       -0.43918262       2.01070927      -0.42984630
H        0.67122309      -1.86357850      -0.39660648
11
Frame=10 idx=007328 GeodesicLength=0.3802514612474992 rxn_smarts="[N:1]([c:2]1[c:3]([H:10])[o:4][c:5](=[O:6])[n:7]1[H:11])([H:8])[H:9]>>[N:1](=[C:2]1/[C:3]([H:9])([H:10])[O:4][C:5](=[O:6])[N:7]1[H:11])\[H:8]"
N       -1.79057139      -0.45258908       0.05908399
C       -0.56115772      -0.13339796      -0.31728148
C       -0.22790475       1.15935778       0.20216776
O        1.15031468       1.09053484       0.54294536
C        1.66129597      -0.08229800       0.11601256
O        2.80051584      -0.42071876       0.20663921
N        0.59320194      -0.86445972      -0.33795831
H       -2.18696469      -1.26659997      -0.39345718
H       -1.66363585       0.81347138       0.73423403
H       -0.43957858       2.02164991      -0.42208389
H        0.66448455      -1.86495042      -0.39030205
11
Frame=11 idx=007328 GeodesicLength=0.4181874820431928 rxn_smarts="[N:1]([c:2]1[c:3]([H:10])[o:4][c:5](=[O:6])[n:7]1[H:11])([H:8])[H:9]>>[N:1](=[C:2]1/[C:3]([H:9])([H:10])[O:4][C:5](=[O:6])[N:7]1[H:11])\[H:8]"
N       -1.78898670      -0.45646087       0.05935669
C       -0.56332501      -0.12982560      -0.33114381
C       -0.22636000       1.16005393       0.19437451
O        1.14767230       1.08827273       0.54196831
C        1.65955853      -0.08570674       0.11524148
O        2.79972208      -0.42172516       0.20569756
N        0.59142517      -0.86544901      -0.33373149
H       -2.17388308      -1.27491623      -0.39513713
H       -1.66365800       0.81980156       0.74224956
H       -0.44004637       2.03218320      -0.41452698
H        0.65788108      -1.86622781      -0.38434871
11
Frame=12 idx=007328 GeodesicLength=0.4561252649676856 rxn_smarts="[N:1]([c:2]1[c:3]([H:10])[o:4][c:5](=[O:6])[n:7]1[H:11])([H:8])[H:9]>>[N:1](=[C:2]1/[C:3]([H:9])([H:10])[O:4][C:5](=[O:6])[N:7]1[H:11])\[H:8]"
N       -1.78737187      -0.46034674       0.05962817
C       -0.56545072      -0.12652537      -0.34459363
C       -0.22484934       1.16073818       0.18633857
O        1.14496261       1.08612119       0.54080497
C        1.65778085      -0.08912710       0.11463509
O        2.79887895      -0.42272074       0.20503073
N        0.58964647      -0.86638278      -0.32956112
H       -2.16093722      -1.28291951      -0.39692977
H       -1.66343660       0.82620183       0.75057701
H       -0.44063201       2.04235946      -0.40714194
H        0.65140889      -1.86739843      -0.37878808
11
Frame=13 idx=007328 GeodesicLength=0.49406471455891054 rxn_smarts="[N:1]([c:2]1[c:3]([H:10])[o:4][c:5](=[O:6])[n:7]1[H:11])([H:8])[H:9]>>[N:1](=[C:2]1/[C:3]([H:9])([H:10])[O:4][C:5](=[O:6])[N:7]1[H:11])\[H:8]"
N       -1.78574864      -0.46422878       0.05982415
C       -0.56753265      -0.12347914      -0.35769297
C       -0.22336992       1.16140172       0.17808330
O        1.14217603       1.08404992       0.53951287
C        1.65596390      -0.09254969       0.11416253
O        2.79801256      -0.42365805       0.20448561
N        0.58786103      -0.86728362      -0.32540629
H       -2.14812286      -1.29062826      -0.39888472
H       -1.66296587       0.83266376       0.75919735
H       -0.44131734       2.05221168      -0.39985632
H        0.64504377      -1.86849954      -0.37342553
11
Frame=14 idx=007328 GeodesicLength=0.5320445679124013 rxn_smarts="[N:1]([c:2]1[c:3]([H:10])[o:4][c:5](=[O:6])[n:7]1[H:11])([H:8])[H:9]>>[N:1](=[C:2]1/[C:3]([H:9])([H:10])[O:4][C:5](=[O:6])[N:7]1[H:11])\[H:8]"
N       -1.78414033      -0.46810594       0.05990541
C       -0.56957477      -0.12066993      -0.37050364
C       -0.22191508       1.16204979       0.16960895
O        1.13931415       1.08205057       0.53812466
C        1.65411157      -0.09597240       0.11381060
O        2.79713117      -0.42451981       0.20402553
N        0.58606524      -0.86816009      -0.32126868
H       -2.13543824      -1.29810856      -0.40098452
H       -1.66223773       0.83919756       0.76810411
H       -0.44207773       2.06178684      -0.39262722
H        0.63876175      -1.86954803      -0.36819519
11
Frame=15 idx=007328 GeodesicLength=0.5699842284380267 rxn_smarts="[N:1]([c:2]1[c:3]([H:10])[o:4][c:5](=[O:6])[n:7]1[H:11])([H:8])[H:9]>>[N:1](=[C:2]1/[C:3]([H:9])([H:10])[O:4][C:5](=[O:6])[N:7]1[H:11])\[H:8]"
N       -1.78253041      -0.47192756       0.05982120
C       -0.57157918      -0.11806779      -0.38308425
C       -0.22049060       1.16267977       0.16091267
O        1.13635286       1.08009437       0.53665493
C        1.65221084      -0.09939199       0.11356811
O        2.79620357      -0.42532926       0.20365613
N        0.58425221      -0.86900436      -0.31716262
H       -2.12280225      -1.30538104      -0.40315006
H       -1.66123178       0.84578539       0.77728477
H       -0.44293183       2.07108182      -0.38542534
H        0.63254656      -1.87053935      -0.36307554
11
Frame=16 idx=007328 GeodesicLength=0.6079156744699635 rxn_smarts="[N:1]([c:2]1[c:3]([H:10])[o:4][c:5](=[O:6])[n:7]1[H:11])([H:8])[H:9]>>[N:1](=[C:2]1/[C:3]([H:9])([H:10])[O:4][C:5](=[O:6])[N:7]1[H:11])\[H:8]"
N       -1.78088709      -0.47578400       0.05977811
C       -0.57355839      -0.11569791      -0.39538630
C       -0.21910483       1.16328789       0.15196589
O        1.13329529       1.07821085       0.53503216
C        1.65026404      -0.10280910       0.11343568
O        2.79520596      -0.42614007       0.20361660
N        0.58245170      -0.86980195      -0.31312445
H       -2.11030995      -1.31240130      -0.40535566
H       -1.65994056       0.85250688       0.78671380
H       -0.44390313       2.08006436      -0.37832348
H        0.62648696      -1.87143564      -0.35835235
