10
Frame=0 idx=005705 GeodesicLength=0.0 rxn_smarts="[C:1]([O:2][C:3](=[O:4])[C:5](=[O:6])[H:10])([H:7])([H:8])[H:9]>>[C:1]([O:2][C:3](=[O:4])[O+:6]=[C-:5][H:10])([H:7])([H:8])[H:9]"
C       -1.53740682       0.22746806       0.55631260
O       -0.15277055      -0.09234009       0.69858415
C        0.44997954      -0.41385975      -0.45299929
O       -0.04965715      -0.76698167      -1.47861376
C        2.01429963       0.33084625      -0.43135414
O        1.83877035      -0.87559471      -0.06326966
H       -1.90280968       0.39119137       1.56661146
H       -1.65715665       1.13406017      -0.03869678
H       -2.07300331      -0.59388901       0.08239828
H        3.06975463       0.65909938      -0.43897288
10
Frame=1 idx=005705 GeodesicLength=0.04539609252156717 rxn_smarts="[C:1]([O:2][C:3](=[O:4])[C:5](=[O:6])[H:10])([H:7])([H:8])[H:9]>>[C:1]([O:2][C:3](=[O:4])[O+:6]=[C-:5][H:10])([H:7])([H:8])[H:9]"
C       -1.54620614       0.22309121       0.55574506
O       -0.15999978      -0.08963261       0.70128378
C        0.45083518      -0.40299950      -0.44658373
O       -0.04378719      -0.73925113      -1.48034969
C        2.02464129       0.33374190      -0.40767253
O        1.84868987      -0.87064546      -0.03854471
H       -1.91499447       0.38375840       1.56525053
H       -1.66825485       1.12919031      -0.03950219
H       -2.07623603      -0.60089882       0.07997205
H        3.08531214       0.63364570      -0.48959856
10
Frame=2 idx=005705 GeodesicLength=0.09000477982674718 rxn_smarts="[C:1]([O:2][C:3](=[O:4])[C:5](=[O:6])[H:10])([H:7])([H:8])[H:9]>>[C:1]([O:2][C:3](=[O:4])[O+:6]=[C-:5][H:10])([H:7])([H:8])[H:9]"
C       -1.55396475       0.21899053       0.55499575
O       -0.16663640      -0.08757923       0.70380133
C        0.45204932      -0.39270452      -0.44038173
O       -0.03760357      -0.71208902      -1.48184742
C        2.03507053       0.33589226      -0.38476669
O        1.85887033      -0.86602887      -0.01387364
H       -1.92609698       0.37660426       1.56370126
H       -1.67762762       1.12469084      -0.04021595
H       -2.07881543      -0.60704505       0.07709046
H        3.09475457       0.60926879      -0.53850337
10
Frame=3 idx=005705 GeodesicLength=0.13508341060598883 rxn_smarts="[C:1]([O:2][C:3](=[O:4])[C:5](=[O:6])[H:10])([H:7])([H:8])[H:9]>>[C:1]([O:2][C:3](=[O:4])[O+:6]=[C-:5][H:10])([H:7])([H:8])[H:9]"
C       -1.56105415       0.21514659       0.55417457
O       -0.17255833      -0.08570591       0.70589339
C        0.45347794      -0.38283432      -0.43470404
O       -0.03171444      -0.68561097      -1.48323021
C        2.04601395       0.33730726      -0.36356914
O        1.86955625      -0.86186034       0.01032629
H       -1.93620049       0.36987376       1.56214975
H       -1.68622006       1.12050356      -0.04105703
H       -2.08118442      -0.61281773       0.07437850
H        3.09988374       0.58599810      -0.58436208
10
Frame=4 idx=005705 GeodesicLength=0.18002891006541902 rxn_smarts="[C:1]([O:2][C:3](=[O:4])[C:5](=[O:6])[H:10])([H:7])([H:8])[H:9]>>[C:1]([O:2][C:3](=[O:4])[O+:6]=[C-:5][H:10])([H:7])([H:8])[H:9]"
C       -1.56745360       0.21144772       0.55331515
O       -0.17774607      -0.08331190       0.70741034
C        0.45494923      -0.37295777      -0.42972542
O       -0.02626604      -0.65945971      -1.48468240
C        2.05723759       0.33792339      -0.34438394
O        1.88025216      -0.85793706       0.03399680
H       -1.94512208       0.36355261       1.56068303
H       -1.69457980       1.11617342      -0.04225157
H       -2.08292611      -0.61866965       0.07222330
H        3.10165472       0.56323895      -0.62658528
10
Frame=5 idx=005705 GeodesicLength=0.22511198399572493 rxn_smarts="[C:1]([O:2][C:3](=[O:4])[C:5](=[O:6])[H:10])([H:7])([H:8])[H:9]>>[C:1]([O:2][C:3](=[O:4])[O+:6]=[C-:5][H:10])([H:7])([H:8])[H:9]"
C       -1.57334321       0.20790223       0.55243366
O       -0.18237430      -0.08073122       0.70847931
C        0.45646305      -0.36329378      -0.42530836
O       -0.02119885      -0.63377238      -1.48614269
C        2.06867355       0.33795580      -0.32696534
O        1.89117402      -0.85417255       0.05722883
H       -1.95319696       0.35758346       1.55928128
H       -1.70261399       1.11188474      -0.04360304
H       -2.08435129      -0.62445201       0.07040240
H        3.10076798       0.54109572      -0.66580603
10
Frame=6 idx=005705 GeodesicLength=0.2702665003948135 rxn_smarts="[C:1]([O:2][C:3](=[O:4])[C:5](=[O:6])[H:10])([H:7])([H:8])[H:9]>>[C:1]([O:2][C:3](=[O:4])[O+:6]=[C-:5][H:10])([H:7])([H:8])[H:9]"
C       -1.57877701       0.20448346       0.55154908
O       -0.18651546      -0.07802369       0.70911403
C        0.45792601      -0.35387156      -0.42147036
O       -0.01661739      -0.60858991      -1.48764870
C        2.08015263       0.33750583      -0.31138853
O        1.90228324      -0.85042884       0.08000709
H       -1.96044577       0.35195669       1.55798018
H       -1.71035730       1.10759749      -0.04511776
H       -2.08553530      -0.63016352       0.06894439
H        3.09788634       0.51953406      -0.70196942
10
Frame=7 idx=005705 GeodesicLength=0.3154771183741465 rxn_smarts="[C:1]([O:2][C:3](=[O:4])[C:5](=[O:6])[H:10])([H:7])([H:8])[H:9]>>[C:1]([O:2][C:3](=[O:4])[O+:6]=[C-:5][H:10])([H:7])([H:8])[H:9]"
C       -1.58388423       0.20108994       0.55067867
O       -0.19020326      -0.07473932       0.70929783
C        0.45931859      -0.34429497      -0.41820289
O       -0.01249347      -0.58344146      -1.48925101
C        2.09177668       0.33661615      -0.29747214
O        1.91341748      -0.84658148       0.10249094
H       -1.96700194       0.34650500       1.55679669
H       -1.71829750       1.10309308      -0.04684233
H       -2.08632168      -0.63612320       0.06796278
H        3.09368933       0.49787625      -0.73545853
10
Frame=8 idx=005705 GeodesicLength=0.3607325372027117 rxn_smarts="[C:1]([O:2][C:3](=[O:4])[C:5](=[O:6])[H:10])([H:7])([H:8])[H:9]>>[C:1]([O:2][C:3](=[O:4])[O+:6]=[C-:5][H:10])([H:7])([H:8])[H:9]"
C       -1.58872071       0.19771255       0.54981875
O       -0.19353245      -0.07103163       0.70911411
C        0.46065066      -0.33462734      -0.41541356
O       -0.00874243      -0.55830804      -1.49091723
C        2.10348734       0.33538603      -0.28500483
O        1.92462723      -0.84255280       0.12481284
H       -1.97301792       0.34115166       1.55570991
H       -1.72634927       1.09844761      -0.04869046
H       -2.08678820      -0.64225497       0.06731248
H        3.08838574       0.47607692      -0.76674200
10
Frame=9 idx=005705 GeodesicLength=0.40609698041198417 rxn_smarts="[C:1]([O:2][C:3](=[O:4])[C:5](=[O:6])[H:10])([H:7])([H:8])[H:9]>>[C:1]([O:2][C:3](=[O:4])[O+:6]=[C-:5][H:10])([H:7])([H:8])[H:9]"
C       -1.59340193       0.19426673       0.54899279
O       -0.19651552      -0.06647874       0.70854369
C        0.46191732      -0.32451694      -0.41311349
O       -0.00534977      -0.53274954      -1.49270212
C        2.11543670       0.33379479      -0.27390294
O        1.93579678      -0.83828017       0.14708389
H       -1.97861192       0.33576055       1.55475273
H       -1.73495902       1.09347258      -0.05071538
H       -2.08679803      -0.64884660       0.06712041
H        3.08248538       0.45357733      -0.79605959
10
Frame=10 idx=005705 GeodesicLength=0.4515517701891074 rxn_smarts="[C:1]([O:2][C:3](=[O:4])[C:5](=[O:6])[H:10])([H:7])([H:8])[H:9]>>[C:1]([O:2][C:3](=[O:4])[O+:6]=[C-:5][H:10])([H:7])([H:8])[H:9]"
C       -1.59793161       0.19073798       0.54819323
O       -0.19919044      -0.06114193       0.70764122
C        0.46312377      -0.31397539      -0.41125112
O       -0.00227133      -0.50669527      -1.49460987
C        2.12756561       0.33187251      -0.26402452
O        1.94693979      -0.83369222       0.16941659
H       -1.98383343       0.33027680       1.55391499
H       -1.74408447       1.08818050      -0.05288092
H       -2.08633598      -0.65585695       0.06728557
H        3.07601808       0.43029397      -0.82368516
10
Frame=11 idx=005705 GeodesicLength=0.49713280883813366 rxn_smarts="[C:1]([O:2][C:3](=[O:4])[C:5](=[O:6])[H:10])([H:7])([H:8])[H:9]>>[C:1]([O:2][C:3](=[O:4])[O+:6]=[C-:5][H:10])([H:7])([H:8])[H:9]"
C       -1.60244279       0.18701149       0.54745804
O       -0.20154383      -0.05429498       0.70632243
C        0.46426279      -0.30243501      -0.40988850
O        0.00049330      -0.47952246      -1.49669467
C        2.14013405       0.32950006      -0.25540217
O        1.95782915      -0.82874743       0.19187123
H       -1.98879229       0.32451388       1.55324324
H       -1.75438425       1.08226233      -0.05526271
H       -2.08513543      -0.66373484       0.06805078
H        3.06957929       0.40544696      -0.84969767
10
Frame=12 idx=005705 GeodesicLength=0.5427080254269426 rxn_smarts="[C:1]([O:2][C:3](=[O:4])[C:5](=[O:6])[H:10])([H:7])([H:8])[H:9]>>[C:1]([O:2][C:3](=[O:4])[O+:6]=[C-:5][H:10])([H:7])([H:8])[H:9]"
C       -1.60679540       0.18315306       0.54672424
O       -0.20367352      -0.04669306       0.70473014
C        0.46534890      -0.29040094      -0.40885753
O        0.00303806      -0.45161588      -1.49881430
C        2.15283627       0.32684311      -0.24775793
O        1.96864978      -0.82337667       0.21454890
H       -1.99346999       0.31854331       1.55260763
H       -1.76511358       1.07599926      -0.05774579
H       -2.08338099      -0.67202981       0.06906564
H        3.06256047       0.37957762      -0.87450101
10
Frame=13 idx=005705 GeodesicLength=0.588330167069927 rxn_smarts="[C:1]([O:2][C:3](=[O:4])[C:5](=[O:6])[H:10])([H:7])([H:8])[H:9]>>[C:1]([O:2][C:3](=[O:4])[O+:6]=[C-:5][H:10])([H:7])([H:8])[H:9]"
C       -1.61110010       0.17904963       0.54604725
O       -0.20552204      -0.03748441       0.70272193
C        0.46632392      -0.27724009      -0.40831868
O        0.00523171      -0.42237365      -1.50110842
C        2.16588525       0.32371285      -0.24130705
O        1.97912439      -0.81751129       0.23740843
H       -1.99784739       0.31220201       1.55211668
H       -1.77703880       1.06900747      -0.06041283
H       -2.08074832      -0.68123719       0.07063389
H        3.05569139       0.35187467      -0.89778121
10
Frame=14 idx=005705 GeodesicLength=0.6340698969392388 rxn_smarts="[C:1]([O:2][C:3](=[O:4])[C:5](=[O:6])[H:10])([H:7])([H:8])[H:9]>>[C:1]([O:2][C:3](=[O:4])[O+:6]=[C-:5][H:10])([H:7])([H:8])[H:9]"
C       -1.61532918       0.17476612       0.54540457
O       -0.20719667      -0.02730786       0.70044575
C        0.46722973      -0.26337102      -0.40816028
O        0.00717703      -0.39214971      -1.50351778
C        2.17911314       0.32024170      -0.23589444
O        1.98952885      -0.81107460       0.26055092
H       -2.00202433       0.30554081       1.55174685
H       -1.78965071       1.06155388      -0.06315713
H       -2.07747099      -0.69096509       0.07246484
H        3.04862313       0.32276577      -0.91988331
10
Frame=15 idx=005705 GeodesicLength=0.6798400854060698 rxn_smarts="[C:1]([O:2][C:3](=[O:4])[C:5](=[O:6])[H:10])([H:7])([H:8])[H:9]>>[C:1]([O:2][C:3](=[O:4])[O+:6]=[C-:5][H:10])([H:7])([H:8])[H:9]"
C       -1.61943090       0.17029799       0.54477708
O       -0.20872465      -0.01628270       0.69790129
C        0.46803809      -0.24884776      -0.40836377
O        0.00885293      -0.36096809      -1.50599771
C        2.19240986       0.31646194      -0.23150247
O        1.99985935      -0.80394078       0.28400248
H       -2.00594280       0.29852778       1.55145558
H       -1.80279592       1.05365575      -0.06592599
H       -2.07353950      -0.70113136       0.07447353
H        3.04127355       0.29222722      -0.94082003
10
Frame=16 idx=005705 GeodesicLength=0.7256225470545714 rxn_smarts="[C:1]([O:2][C:3](=[O:4])[C:5](=[O:6])[H:10])([H:7])([H:8])[H:9]>>[C:1]([O:2][C:3](=[O:4])[O+:6]=[C-:5][H:10])([H:7])([H:8])[H:9]"
C       -1.62336799       0.16567859       0.54414595
O       -0.21015862      -0.00480151       0.69514209
C        0.46873632      -0.23391989      -0.40889029
O        0.01025376      -0.32906662      -1.50850682
C        2.20563850       0.31246962      -0.22810373
O        2.01025268      -0.79595939       0.30780219
H       -2.00959262       0.29117338       1.55121850
H       -1.81614143       1.04546463      -0.06862882
H       -2.06911498      -0.71150100       0.07648276
H        3.03349438       0.26046219      -0.96066183
