13
Frame=0 idx=000951 GeodesicLength=0.0 rxn_smarts="[C:1]1([H:6])([H:7])[C:2]([H:8])([H:9])[C:3]([H:10])=[C:4]([H:11])[C:5]1([H:12])[H:13]>>[C:1]1([H:6])([H:7])[C:2]([H:9])=[C:3]([H:10])[C:4]([H:11])=[C:5]1[H:13].[H:8][H:12]"
C       -0.15863282      -0.57828184       0.99336718
C       -1.14411120      -0.06629958      -0.02533969
C       -0.55886900       1.06636128      -0.60947153
C        0.81459918       0.98224966      -0.43942641
C        1.09973394      -0.20426507       0.25264364
H       -0.25509045      -1.63574585       1.23304048
H       -0.23491147       0.01809594       1.91069874
H       -0.42445376      -1.10088557      -0.95241581
H       -2.21336131      -0.22569103       0.04687339
H       -1.07600301       1.77880107      -1.23762523
H        1.54703534       1.61928739      -0.91524769
H        0.51338315      -1.16014116      -0.83629176
H        2.09068144      -0.49348529       0.57919472
13
Frame=1 idx=000951 GeodesicLength=0.070589386651994 rxn_smarts="[C:1]1([H:6])([H:7])[C:2]([H:8])([H:9])[C:3]([H:10])=[C:4]([H:11])[C:5]1([H:12])[H:13]>>[C:1]1([H:6])([H:7])[C:2]([H:9])=[C:3]([H:10])[C:4]([H:11])=[C:5]1[H:13].[H:8][H:12]"
C       -0.15838492      -0.57660482       0.99285881
C       -1.14535059      -0.06932009      -0.02943162
C       -0.55922229       1.06825945      -0.60781335
C        0.81518127       0.98464001      -0.43727398
C        1.10163898      -0.20698708       0.24907478
H       -0.25415022      -1.63512177       1.22971738
H       -0.23588436       0.01167828       1.91474082
H       -0.43343362      -1.11810790      -0.96871103
H       -2.21568859      -0.20941888       0.06507950
H       -1.07449689       1.77882075      -1.23974305
H        1.54731568       1.61875199      -0.91766805
H        0.52191822      -1.16921109      -0.84853653
H        2.09055733      -0.47737886       0.59770630
13
Frame=2 idx=000951 GeodesicLength=0.14113930345650078 rxn_smarts="[C:1]1([H:6])([H:7])[C:2]([H:8])([H:9])[C:3]([H:10])=[C:4]([H:11])[C:5]1([H:12])[H:13]>>[C:1]1([H:6])([H:7])[C:2]([H:9])=[C:3]([H:10])[C:4]([H:11])=[C:5]1[H:13].[H:8][H:12]"
C       -0.15812328      -0.57477237       0.99248248
C       -1.14661983      -0.07227411      -0.03342447
C       -0.55956756       1.07019629      -0.60606577
C        0.81577211       0.98706628      -0.43503141
C        1.10358846      -0.20966159       0.24558835
H       -0.25319702      -1.63435638       1.22645644
H       -0.23683291       0.00530239       1.91889592
H       -0.44284165      -1.13560894      -0.98505155
H       -2.21728563      -0.19333119       0.08300182
H       -1.07292954       1.77877632      -1.24190001
H        1.54757266       1.61831422      -0.91991338
H        0.53064213      -1.17827462      -0.86081700
H        2.08982207      -0.46137630       0.61577858
13
Frame=3 idx=000951 GeodesicLength=0.21166807040677027 rxn_smarts="[C:1]1([H:6])([H:7])[C:2]([H:8])([H:9])[C:3]([H:10])=[C:4]([H:11])[C:5]1([H:12])[H:13]>>[C:1]1([H:6])([H:7])[C:2]([H:9])=[C:3]([H:10])[C:4]([H:11])=[C:5]1[H:13].[H:8][H:12]"
C       -0.15784836      -0.57277395       0.99225027
C       -1.14791490      -0.07514686      -0.03730469
C       -0.55990355       1.07218193      -0.60422465
C        0.81637297       0.98954099      -0.43269053
C        1.10557957      -0.21227013       0.24220138
H       -0.25222995      -1.63343898       1.22326453
H       -0.23776071      -0.00102457       1.92317542
H       -0.45271340      -1.15339348      -1.00142501
H       -2.21818483      -0.17747981       0.10058096
H       -1.07130069       1.77867652      -1.24408924
H        1.54781007       1.61797447      -0.92199150
H        0.53957651      -1.18731980      -0.87311898
H        2.08851727      -0.44552634       0.63337204
13
Frame=4 idx=000951 GeodesicLength=0.2821802779258246 rxn_smarts="[C:1]1([H:6])([H:7])[C:2]([H:8])([H:9])[C:3]([H:10])=[C:4]([H:11])[C:5]1([H:12])[H:13]>>[C:1]1([H:6])([H:7])[C:2]([H:9])=[C:3]([H:10])[C:4]([H:11])=[C:5]1[H:13].[H:8][H:12]"
C       -0.15755956      -0.57059832       0.99217450
C       -1.14923043      -0.07792468      -0.04105919
C       -0.56022878       1.07422598      -0.60228693
C        0.81698540       0.99207579      -0.43024532
C        1.10761070      -0.21479484       0.23893058
H       -0.25124690      -1.63235866       1.22015082
H       -0.23866981      -0.00729365       1.92759013
H       -0.46308254      -1.17146727      -1.01782011
H       -2.21842431      -0.16191398       0.11776031
H       -1.06960896       1.77852721      -1.24630718
H        1.54803132       1.61773752      -0.92390099
H        0.54874250      -1.19633593      -0.88542937
H        2.08668137      -0.42987916       0.65044276
13
Frame=5 idx=000951 GeodesicLength=0.3527008822037814 rxn_smarts="[C:1]1([H:6])([H:7])[C:2]([H:8])([H:9])[C:3]([H:10])=[C:4]([H:11])[C:5]1([H:12])[H:13]>>[C:1]1([H:6])([H:7])[C:2]([H:9])=[C:3]([H:10])[C:4]([H:11])=[C:5]1[H:13].[H:8][H:12]"
C       -0.15725644      -0.56824060       0.99225975
C       -1.15055995      -0.08059952      -0.04468408
C       -0.56054078       1.07633275      -0.60025605
C        0.81761178       0.99467881      -0.42769403
C        1.10967992      -0.21722138       0.23578603
H       -0.25024592      -1.63110969       1.21711485
H       -0.23956426      -0.01350277       1.93214316
H       -0.47399576      -1.18984118      -1.03423018
H       -2.21805370      -0.14666058       0.13451194
H       -1.06785390       1.77833565      -1.24854904
H        1.54823984       1.61760894      -0.92564323
H        0.55817048      -1.20531611      -0.89774011
H        2.08436870      -0.41446433       0.66698099
13
Frame=6 idx=000951 GeodesicLength=0.42324783930011556 rxn_smarts="[C:1]1([H:6])([H:7])[C:2]([H:8])([H:9])[C:3]([H:10])=[C:4]([H:11])[C:5]1([H:12])[H:13]>>[C:1]1([H:6])([H:7])[C:2]([H:9])=[C:3]([H:10])[C:4]([H:11])=[C:5]1[H:13].[H:8][H:12]"
C       -0.15693808      -0.56569350       0.99251339
C       -1.15189832      -0.08316139      -0.04817084
C       -0.56083757       1.07850770      -0.59813467
C        0.81825388       0.99735863      -0.42503473
C        1.11178592      -0.21953580       0.23277974
H       -0.24922430      -1.62968587       1.21415992
H       -0.24044593      -0.01964717       1.93684021
H       -0.48550168      -1.20852570      -1.05064911
H       -2.21711172      -0.13175203       0.15079857
H       -1.06603406       1.77810763      -1.25081121
H        1.54843893       1.61759494      -0.92721435
H        0.56789206      -1.21425282      -0.91004140
H        2.08162087      -0.39931463       0.68296449
13
Frame=7 idx=000951 GeodesicLength=0.49382790257850934 rxn_smarts="[C:1]1([H:6])([H:7])[C:2]([H:8])([H:9])[C:3]([H:10])=[C:4]([H:11])[C:5]1([H:12])[H:13]>>[C:1]1([H:6])([H:7])[C:2]([H:9])=[C:3]([H:10])[C:4]([H:11])=[C:5]1[H:13].[H:8][H:12]"
C       -0.15660353      -0.56295637       0.99293581
C       -1.15323797      -0.08560617      -0.05151975
C       -0.56111672       1.08075610      -0.59592520
C        0.81891380       1.00012399      -0.42226457
C        1.11392794      -0.22172642       0.22991857
H       -0.24817877      -1.62808661       1.21127994
H       -0.24131885      -0.02573123       1.94168126
H       -0.49764951      -1.22753816      -1.06707185
H       -2.21565206      -0.11719761       0.16661180
H       -1.06414762       1.77784480      -1.25309678
H        1.54863457       1.61770190      -0.92861598
H        0.57794121      -1.22313891      -0.92233042
H        2.07848750      -0.38444530       0.69839718
13
Frame=8 idx=000951 GeodesicLength=0.5644348955205987 rxn_smarts="[C:1]1([H:6])([H:7])[C:2]([H:8])([H:9])[C:3]([H:10])=[C:4]([H:11])[C:5]1([H:12])[H:13]>>[C:1]1([H:6])([H:7])[C:2]([H:9])=[C:3]([H:10])[C:4]([H:11])=[C:5]1[H:13].[H:8][H:12]"
C       -0.15625170      -0.56002579       0.99352950
C       -1.15457356      -0.08792852      -0.05472855
C       -0.56137576       1.08308003      -0.59363331
C        0.81959363       1.00298188      -0.41938272
C        1.11610504      -0.22378351       0.22720859
H       -0.24710672      -1.62630875       1.20847351
H       -0.24218485      -0.03175416       1.94666667
H       -0.51049222      -1.24689421      -1.08349392
H       -2.21371211      -0.10301464       0.18193131
H       -1.06219329       1.77755319      -1.25540147
H        1.54882963       1.61793620      -0.92984451
H        0.58834889      -1.23196930      -0.93460426
H        2.07501303      -0.36987242       0.71327918
13
Frame=9 idx=000951 GeodesicLength=0.635101210362716 rxn_smarts="[C:1]1([H:6])([H:7])[C:2]([H:8])([H:9])[C:3]([H:10])=[C:4]([H:11])[C:5]1([H:12])[H:13]>>[C:1]1([H:6])([H:7])[C:2]([H:9])=[C:3]([H:10])[C:4]([H:11])=[C:5]1[H:13].[H:8][H:12]"
C       -0.15588039      -0.55690290       0.99429205
C       -1.15589800      -0.09012611      -0.05779890
C       -0.56161170       1.08548129      -0.59126576
C        0.82029562       1.00594006      -0.41638770
C        1.11831813      -0.22569653       0.22465543
H       -0.24600280      -1.62435527       1.20573123
H       -0.24304708      -0.03772368       1.95179429
H       -0.52410918      -1.26661352      -1.09991098
H       -2.21133416      -0.08920411       0.19675445
H       -1.06016839       1.77723094      -1.25773326
H        1.54902939       1.61830886      -0.93089434
H        0.59916332      -1.24073761      -0.94686031
H        2.07124524      -0.35560141       0.72762380
13
Frame=10 idx=000951 GeodesicLength=0.7058065911779733 rxn_smarts="[C:1]1([H:6])([H:7])[C:2]([H:8])([H:9])[C:3]([H:10])=[C:4]([H:11])[C:5]1([H:12])[H:13]>>[C:1]1([H:6])([H:7])[C:2]([H:9])=[C:3]([H:10])[C:4]([H:11])=[C:5]1[H:13].[H:8][H:12]"
C       -0.15548775      -0.55358924       0.99522061
C       -1.15720411      -0.09219976      -0.06073598
C       -0.56182144       1.08795837      -0.58883177
C        0.82102234       1.00900124      -0.41328327
C        1.12056797      -0.22745981       0.22226057
H       -0.24486293      -1.62222690       1.20304630
H       -0.24390781      -0.04364383       1.95705809
H       -0.53856040      -1.28671730      -1.11632237
H       -2.20855991      -0.07576306       0.21108607
H       -1.05807064       1.77688170      -1.26008975
H        1.54923827       1.61882929      -0.93175804
H        0.61042354      -1.24944077      -0.95910080
H        2.06722287      -0.34162992       0.74145034
13
Frame=11 idx=000951 GeodesicLength=0.7765451575486588 rxn_smarts="[C:1]1([H:6])([H:7])[C:2]([H:8])([H:9])[C:3]([H:10])=[C:4]([H:11])[C:5]1([H:12])[H:13]>>[C:1]1([H:6])([H:7])[C:2]([H:9])=[C:3]([H:10])[C:4]([H:11])=[C:5]1[H:13].[H:8][H:12]"
C       -0.15507163      -0.55009090       0.99630856
C       -1.15848475      -0.09415053      -0.06354510
C       -0.56200181       1.09051190      -0.58633871
C        0.82177601       1.01217217      -0.41006750
C        1.12285547      -0.22906791       0.22002273
H       -0.24368162      -1.61992974       1.20040455
H       -0.24476817      -0.04952725       1.96245132
H       -0.55392478      -1.30723135      -1.13272307
H       -2.20542829      -0.06267894       0.22493633
H       -1.05589633       1.77650402      -1.26247761
H        1.54946217       1.61950521      -0.93243313
H        0.62217502      -1.25807378      -0.97133188
H        2.06298871      -0.32794290       0.75479351
13
Frame=12 idx=000951 GeodesicLength=0.8473156881968484 rxn_smarts="[C:1]1([H:6])([H:7])[C:2]([H:8])([H:9])[C:3]([H:10])=[C:4]([H:11])[C:5]1([H:12])[H:13]>>[C:1]1([H:6])([H:7])[C:2]([H:9])=[C:3]([H:10])[C:4]([H:11])=[C:5]1[H:13].[H:8][H:12]"
C       -0.15462914      -0.54641106       0.99755124
C       -1.15973332      -0.09597835      -0.06623056
C       -0.56214898       1.09313983      -0.58379693
C        0.82255934       1.01545667      -0.40674232
C        1.12518313      -0.23051454       0.21794441
H       -0.24245285      -1.61746803       1.19779546
H       -0.24562954      -0.05538291       1.96796789
H       -0.57029337      -1.32817881      -1.14910965
H       -2.20197052      -0.04994621       0.23831158
H       -1.05364142       1.77609573      -1.26490419
H        1.54970664       1.62035020      -0.93290753
H        0.63447310      -1.26663019      -0.98355486
H        2.05857694      -0.31453235       0.76767546
13
Frame=13 idx=000951 GeodesicLength=0.9181098492975233 rxn_smarts="[C:1]1([H:6])([H:7])[C:2]([H:8])([H:9])[C:3]([H:10])=[C:4]([H:11])[C:5]1([H:12])[H:13]>>[C:1]1([H:6])([H:7])[C:2]([H:9])=[C:3]([H:10])[C:4]([H:11])=[C:5]1[H:13].[H:8][H:12]"
C       -0.15415697      -0.54255701       0.99893922
C       -1.16094180      -0.09768669      -0.06880167
C       -0.56225855       1.09583930      -0.58121827
C        0.82337548       1.01885961      -0.40330880
C        1.12755454      -0.23179445       0.21602376
H       -0.24116934      -1.61484982       1.19520170
H       -0.24649373      -0.06122523       1.97359769
H       -0.58776839      -1.34958999      -1.16547291
H       -2.19821961      -0.03754700       0.25122829
H       -1.05130057       1.77565365      -1.26737824
H        1.54997774       1.62137887      -0.93317001
H        0.64737692      -1.27510389      -0.99577519
H        2.05402429      -0.30137734       0.78013444
13
Frame=14 idx=000951 GeodesicLength=0.9889004230310785 rxn_smarts="[C:1]1([H:6])([H:7])[C:2]([H:8])([H:9])[C:3]([H:10])=[C:4]([H:11])[C:5]1([H:12])[H:13]>>[C:1]1([H:6])([H:7])[C:2]([H:9])=[C:3]([H:10])[C:4]([H:11])=[C:5]1[H:13].[H:8][H:12]"
C       -0.15365153      -0.53853388       1.00046624
C       -1.16210181      -0.09927936      -0.07126589
C       -0.56232569       1.09860661      -0.57861436
C        0.82422757       1.02238677      -0.39976544
C        1.12997456      -0.23290057       0.21426325
H       -0.23982311      -1.61208034       1.19261081
H       -0.24736347      -0.06706565       1.97933222
H       -0.60645397      -1.37149296      -1.18180135
H       -2.19419706      -0.02547159       0.26369279
H       -1.04886788       1.77517408      -1.26990742
H        1.55028150       1.62260674      -0.93320691
H        0.66094560      -1.28348604      -1.00799846
H        2.04935530      -0.28846381       0.79219451
13
Frame=15 idx=000951 GeodesicLength=1.0596693817784704 rxn_smarts="[C:1]1([H:6])([H:7])[C:2]([H:8])([H:9])[C:3]([H:10])=[C:4]([H:11])[C:5]1([H:12])[H:13]>>[C:1]1([H:6])([H:7])[C:2]([H:9])=[C:3]([H:10])[C:4]([H:11])=[C:5]1[H:13].[H:8][H:12]"
C       -0.15310849      -0.53434947       1.00212312
C       -1.16320455      -0.10076035      -0.07363258
C       -0.56234526       1.10143877      -0.57599627
C        0.82511897       1.02604461      -0.39611010
C        1.13244884      -0.23382653       0.21266310
H       -0.23840485      -1.60916822       1.19000490
H       -0.24824064      -0.07292070       1.98516124
H       -0.62647602      -1.39391902      -1.19807998
H       -2.18992356      -0.01370624       0.27571585
H       -1.04633586       1.77464995      -1.27250582
H        1.55062562       1.62405148      -0.93300363
H        0.67524782      -1.29176577      -1.02023144
H        2.04459799      -0.27576852       0.80389161
13
Frame=16 idx=000951 GeodesicLength=1.1303909509782992 rxn_smarts="[C:1]1([H:6])([H:7])[C:2]([H:8])([H:9])[C:3]([H:10])=[C:4]([H:11])[C:5]1([H:12])[H:13]>>[C:1]1([H:6])([H:7])[C:2]([H:9])=[C:3]([H:10])[C:4]([H:11])=[C:5]1[H:13].[H:8][H:12]"
C       -0.15252338      -0.53001194       1.00389988
C       -1.16424114      -0.10213396      -0.07591179
C       -0.56231158       1.10433184      -0.57337701
C        0.82605323       1.02983968      -0.39234047
C        1.13498408      -0.23456568       0.21122375
H       -0.23690437      -1.60612201       1.18736530
H       -0.24912723      -0.07880739       1.99107320
H       -0.64796980      -1.41690193      -1.21428883
H       -2.18541710      -0.00223792       0.28730698
H       -1.04369599       1.77407428      -1.27518721
H        1.55101824       1.62573257      -0.93254258
H        0.69036000      -1.29992956      -1.03248070
H        2.03977504      -0.26326799       0.81525948
