15
Frame=0 idx=011086 GeodesicLength=0.0 rxn_smarts="[C:1]([c:2]1[c:3]([H:11])[c:4]([N:5]([H:12])[H:13])[c:6]([H:14])[n:7]1[H:15])([H:8])([H:9])[H:10]>>[C:1]([C:2]([C:3](=[C:4]1[N+:5]([H:12])([H:13])[C-:6]1[H:14])[H:11])=[N:7][H:15])([H:8])([H:9])[H:10]"
C        2.35770573      -0.55425278      -0.11841141
C        1.02268482       0.12241543       0.04711082
C       -0.16761950      -0.62568716      -0.31429869
C       -1.30013115       0.00441510       0.03547081
N       -2.70716627      -0.22328293      -0.09829424
C       -1.67969758       1.12933087       0.71503565
N        0.85908154       1.30781054       0.51306779
H        2.40800824      -1.45172224       0.50215654
H        2.49590213      -0.86875380      -1.15548313
H        3.17723430       0.10950193       0.15635809
H       -0.13669902      -1.61040464      -0.75757860
H       -3.06626214      -0.27699627      -1.03850595
H       -3.14542124      -0.83949874       0.56376767
H       -1.85669742       2.04698695       0.15726106
H        1.73907755       1.73013773       0.79234361
15
Frame=1 idx=011086 GeodesicLength=0.05370395329180866 rxn_smarts="[C:1]([c:2]1[c:3]([H:11])[c:4]([N:5]([H:12])[H:13])[c:6]([H:14])[n:7]1[H:15])([H:8])([H:9])[H:10]>>[C:1]([C:2]([C:3](=[C:4]1[N+:5]([H:12])([H:13])[C-:6]1[H:14])[H:11])=[N:7][H:15])([H:8])([H:9])[H:10]"
C        2.36079670      -0.55353712      -0.11545284
C        1.02204595       0.11793940       0.03375274
C       -0.16391993      -0.62727391      -0.33963328
C       -1.29839341       0.01219573      -0.00621380
N       -2.70649494      -0.22520924      -0.09129267
C       -1.65524729       1.12884986       0.69691438
N        0.84404763       1.29610923       0.51898949
H        2.41692410      -1.43681213       0.52476082
H        2.50195147      -0.88982397      -1.14519202
H        3.17676146       0.12095474       0.14369874
H       -0.13397558      -1.62400833      -0.75494072
H       -3.10425877      -0.24186688      -1.01710794
H       -3.11815794      -0.85683167       0.57333038
H       -1.85740291       2.05511940       0.16359398
H        1.71532345       1.72419488       0.81479275
15
Frame=2 idx=011086 GeodesicLength=0.10730720788340017 rxn_smarts="[C:1]([c:2]1[c:3]([H:11])[c:4]([N:5]([H:12])[H:13])[c:6]([H:14])[n:7]1[H:15])([H:8])([H:9])[H:10]>>[C:1]([C:2]([C:3](=[C:4]1[N+:5]([H:12])([H:13])[C-:6]1[H:14])[H:11])=[N:7][H:15])([H:8])([H:9])[H:10]"
C        2.36342919      -0.55306445      -0.11210752
C        1.02123064       0.11328952       0.02133965
C       -0.16042711      -0.62901286      -0.36349885
C       -1.29691053       0.02008880      -0.04716711
N       -2.70448596      -0.22733703      -0.08560747
C       -1.63154390       1.12760994       0.67937906
N        0.82901055       1.28454337       0.52399947
H        2.42538219      -1.42147555       0.54769229
H        2.50720282      -0.91133282      -1.13396211
H        3.17589188       0.13179312       0.13072514
H       -0.13187226      -1.63636706      -0.75222974
H       -3.14009993      -0.20599703      -0.99406986
H       -3.09051019      -0.87462692       0.57936831
H       -1.85800669       2.06255881       0.17274215
H        1.69170929       1.71933017       0.83339658
15
Frame=3 idx=011086 GeodesicLength=0.16091714728823373 rxn_smarts="[C:1]([c:2]1[c:3]([H:11])[c:4]([N:5]([H:12])[H:13])[c:6]([H:14])[n:7]1[H:15])([H:8])([H:9])[H:10]>>[C:1]([C:2]([C:3](=[C:4]1[N+:5]([H:12])([H:13])[C-:6]1[H:14])[H:11])=[N:7][H:15])([H:8])([H:9])[H:10]"
C        2.36561272      -0.55256472      -0.10885991
C        1.02018531       0.10852908       0.00991479
C       -0.15727322      -0.63094843      -0.38537989
C       -1.29562025       0.02763987      -0.08637430
N       -2.70131529      -0.22962212      -0.08124659
C       -1.60854587       1.12597547       0.66182086
N        0.81401034       1.27300663       0.52863539
H        2.43376782      -1.40537880       0.57042349
H        2.51131943      -0.93297971      -1.12230683
H        3.17463789       0.14234433       0.11659904
H       -0.13053145      -1.64752683      -0.74915839
H       -3.17310851      -0.17015607      -0.96953024
H       -3.06345633      -0.89209511       0.58217928
H       -1.85783966       2.06900608       0.18307179
H        1.66815707       1.71477032       0.85021148
15
Frame=4 idx=011086 GeodesicLength=0.2145137719771224 rxn_smarts="[C:1]([c:2]1[c:3]([H:11])[c:4]([N:5]([H:12])[H:13])[c:6]([H:14])[n:7]1[H:15])([H:8])([H:9])[H:10]>>[C:1]([C:2]([C:3](=[C:4]1[N+:5]([H:12])([H:13])[C-:6]1[H:14])[H:11])=[N:7][H:15])([H:8])([H:9])[H:10]"
C        2.36735825      -0.55232823      -0.10511387
C        1.01899184       0.10372888      -0.00086054
C       -0.15432579      -0.63257632      -0.40678759
C       -1.29446764       0.03476614      -0.12366623
N       -2.69712067      -0.23233790      -0.07724824
C       -1.58622979       1.12457313       0.64396690
N        0.79910694       1.26176019       0.53243229
H        2.44122023      -1.38926324       0.59312284
H        2.51510830      -0.95453363      -1.10972032
H        3.17303105       0.15193665       0.10311429
H       -0.12964534      -1.65661202      -0.74899033
H       -3.20386865      -0.13540693      -0.94257276
H       -3.03651682      -0.90923776       0.58365598
H       -1.85733948       2.07480633       0.19355184
H        1.64469756       1.71072471       0.86511573
15
Frame=5 idx=011086 GeodesicLength=0.26808131259376844 rxn_smarts="[C:1]([c:2]1[c:3]([H:11])[c:4]([N:5]([H:12])[H:13])[c:6]([H:14])[n:7]1[H:15])([H:8])([H:9])[H:10]>>[C:1]([C:2]([C:3](=[C:4]1[N+:5]([H:12])([H:13])[C-:6]1[H:14])[H:11])=[N:7][H:15])([H:8])([H:9])[H:10]"
C        2.36879625      -0.55209007      -0.10139533
C        1.01767000       0.09889120      -0.01108548
C       -0.15155509      -0.63423851      -0.42713754
C       -1.29345067       0.04130218      -0.15886103
N       -2.69220777      -0.23515320      -0.07411765
C       -1.56468475       1.12325302       0.62601675
N        0.78431913       1.25070346       0.53561304
H        2.44852106      -1.37240952       0.61572050
H        2.51819794      -0.97629211      -1.09657595
H        3.17114191       0.16116803       0.08879825
H       -0.12916009      -1.66463673      -0.74970860
H       -3.23196828      -0.10126322      -0.91408646
H       -3.01050856      -0.92577897       0.58313945
H       -1.85633821       2.07990456       0.20436578
H        1.62122712       1.70663990       0.87931426
15
Frame=6 idx=011086 GeodesicLength=0.3216387368721715 rxn_smarts="[C:1]([c:2]1[c:3]([H:11])[c:4]([N:5]([H:12])[H:13])[c:6]([H:14])[n:7]1[H:15])([H:8])([H:9])[H:10]>>[C:1]([C:2]([C:3](=[C:4]1[N+:5]([H:12])([H:13])[C-:6]1[H:14])[H:11])=[N:7][H:15])([H:8])([H:9])[H:10]"
C        2.37006216      -0.55166419      -0.09805483
C        1.01619764       0.09383732      -0.02039514
C       -0.14898187      -0.63628706      -0.44579555
C       -1.29254704       0.04714642      -0.19191717
N       -2.68686192      -0.23781644      -0.07215461
C       -1.54395546       1.12203629       0.60793130
N        0.76960547       1.23958024       0.53879466
H        2.45637426      -1.35468090       0.63769961
H        2.52038389      -0.99790396      -1.08331688
H        3.16898448       0.17037553       0.07301931
H       -0.12905899      -1.67226369      -0.75003526
H       -3.25723676      -0.06762381      -0.88476751
H       -2.98603510      -0.94134365       0.58043916
H       -1.85465763       2.08431183       0.21525649
H        1.59772687       1.70229605       0.89329641
15
Frame=7 idx=011086 GeodesicLength=0.3752335384860626 rxn_smarts="[C:1]([c:2]1[c:3]([H:11])[c:4]([N:5]([H:12])[H:13])[c:6]([H:14])[n:7]1[H:15])([H:8])([H:9])[H:10]>>[C:1]([C:2]([C:3](=[C:4]1[N+:5]([H:12])([H:13])[C-:6]1[H:14])[H:11])=[N:7][H:15])([H:8])([H:9])[H:10]"
C        2.37102144      -0.55139411      -0.09439202
C        1.01463731       0.08881307      -0.02940232
C       -0.14651330      -0.63799766      -0.46433403
C       -1.29172877       0.05262037      -0.22341596
N       -2.68101647      -0.24063914      -0.07062344
C       -1.52384328       1.12104498       0.58969713
N        0.75506393       1.22883460       0.54105330
H        2.46356996      -1.33650623       0.65975360
H        2.52231607      -1.01968642      -1.06911753
H        3.16657293       0.17880378       0.05732685
H       -0.12918775      -1.67860703      -0.75240053
H       -3.28036851      -0.03503764      -0.85357612
H       -2.96206895      -0.95652187       0.57666553
H       -1.85273245       2.08816604       0.22648409
H        1.57427785       1.69810725       0.90628146
15
Frame=8 idx=011086 GeodesicLength=0.42884014131761183 rxn_smarts="[C:1]([c:2]1[c:3]([H:11])[c:4]([N:5]([H:12])[H:13])[c:6]([H:14])[n:7]1[H:15])([H:8])([H:9])[H:10]>>[C:1]([C:2]([C:3](=[C:4]1[N+:5]([H:12])([H:13])[C-:6]1[H:14])[H:11])=[N:7][H:15])([H:8])([H:9])[H:10]"
C        2.37190888      -0.55086723      -0.09122185
C        1.01292846       0.08348632      -0.03742278
C       -0.14421083      -0.64020429      -0.48121479
C       -1.29098048       0.05751035      -0.25319706
N       -2.67503294      -0.24316443      -0.07021844
C       -1.50449646       1.12031331       0.57119984
N        0.74058925       1.21791674       0.54360491
H        2.47163044      -1.31743314       0.68094289
H        2.52341674      -1.04112642      -1.05495857
H        3.16387533       0.18730373       0.04006347
H       -0.12961149      -1.68495745      -0.75398057
H       -3.30089167      -0.00312883      -0.82194208
H       -2.93972907      -0.97061665       0.57116015
H       -1.85016215       2.09156367       0.23754797
H        1.55076601       1.69340432       0.91963691
15
Frame=9 idx=011086 GeodesicLength=0.482481349236653 rxn_smarts="[C:1]([c:2]1[c:3]([H:11])[c:4]([N:5]([H:12])[H:13])[c:6]([H:14])[n:7]1[H:15])([H:8])([H:9])[H:10]>>[C:1]([C:2]([C:3](=[C:4]1[N+:5]([H:12])([H:13])[C-:6]1[H:14])[H:11])=[N:7][H:15])([H:8])([H:9])[H:10]"
C        2.37259592      -0.55037739      -0.08795823
C        1.01112914       0.07810267      -0.04504082
C       -0.14200389      -0.64226988      -0.49772183
C       -1.29029713       0.06211621      -0.28175199
N       -2.66881786      -0.24563715      -0.07038942
C       -1.48574263       1.11983280       0.55251320
N        0.72627398       1.20724155       0.54557491
H        2.47950702      -1.29769608       0.70196514
H        2.52417677      -1.06265581      -1.04005956
H        3.16092753       0.19523445       0.02237702
H       -0.13023626      -1.69056949      -0.75660351
H       -3.31932928       0.02777736      -0.78900217
H       -2.91812696      -0.98418235       0.56459166
H       -1.84732898       2.09449766       0.24895442
H        1.52727264       1.68858544       0.93255116
15
Frame=10 idx=011086 GeodesicLength=0.5361297469905771 rxn_smarts="[C:1]([c:2]1[c:3]([H:11])[c:4]([N:5]([H:12])[H:13])[c:6]([H:14])[n:7]1[H:15])([H:8])([H:9])[H:10]>>[C:1]([C:2]([C:3](=[C:4]1[N+:5]([H:12])([H:13])[C-:6]1[H:14])[H:11])=[N:7][H:15])([H:8])([H:9])[H:10]"
C        2.37313031      -0.54984791      -0.08474090
C        1.00922150       0.07256928      -0.05207295
C       -0.13990578      -0.64437331      -0.51354666
C       -1.28966381       0.06642661      -0.30912789
N       -2.66249733      -0.24793666      -0.07127648
C       -1.46757968       1.11958743       0.53366783
N        0.71209659       1.19665143       0.54732266
H        2.48749661      -1.27728761       0.72254839
H        2.52450515      -1.08406045      -1.02462819
H        3.15771288       0.20272146       0.00406869
H       -0.13108158      -1.69575800      -0.75963331
H       -3.33559252       0.05773107      -0.75521006
H       -2.89750618      -0.99708653       0.55686458
H       -1.84416339       2.09697468       0.26073868
H        1.50382723       1.68368851       0.94502559
15
Frame=11 idx=011086 GeodesicLength=0.5897886211571419 rxn_smarts="[C:1]([c:2]1[c:3]([H:11])[c:4]([N:5]([H:12])[H:13])[c:6]([H:14])[n:7]1[H:15])([H:8])([H:9])[H:10]>>[C:1]([C:2]([C:3](=[C:4]1[N+:5]([H:12])([H:13])[C-:6]1[H:14])[H:11])=[N:7][H:15])([H:8])([H:9])[H:10]"
C        2.37353105      -0.54932066      -0.08151048
C        1.00721209       0.06689110      -0.05856573
C       -0.13789435      -0.64647602      -0.52884030
C       -1.28907739       0.07052162      -0.33550878
N       -2.65612572      -0.25004804      -0.07282943
C       -1.44998798       1.11958426       0.51469388
N        0.69804084       1.18617737       0.54885579
H        2.49558308      -1.25622489       0.74277612
H        2.52447266      -1.10542400      -1.00858034
H        3.15424458       0.20969148      -0.01478784
H       -0.13209993      -1.70055920      -0.76317136
H       -3.34981651       0.08674121      -0.72059975
H       -2.87777159      -1.00940922       0.54807067
H       -1.84075645       2.09901641       0.27307982
H        1.48044560       1.67883858       0.95691773
15
Frame=12 idx=011086 GeodesicLength=0.6435149958160951 rxn_smarts="[C:1]([c:2]1[c:3]([H:11])[c:4]([N:5]([H:12])[H:13])[c:6]([H:14])[n:7]1[H:15])([H:8])([H:9])[H:10]>>[C:1]([C:2]([C:3](=[C:4]1[N+:5]([H:12])([H:13])[C-:6]1[H:14])[H:11])=[N:7][H:15])([H:8])([H:9])[H:10]"
C        2.37379815      -0.54873413      -0.07834539
C        1.00506658       0.06101743      -0.06440886
C       -0.13599246      -0.64862763      -0.54350486
C       -1.28851049       0.07442578      -0.36102514
N       -2.64973435      -0.25193044      -0.07505130
C       -1.43290643       1.11988698       0.49542249
N        0.68406755       1.17568057       0.55044144
H        2.50390439      -1.23449503       0.76245814
H        2.52401928      -1.12658397      -0.99202339
H        3.15046702       0.21622556      -0.03428507
H       -0.13333787      -1.70507915      -0.76693891
H       -3.36202537       0.11473309      -0.68530829
H       -2.85892634      -1.02105716       0.53831853
H       -1.83699249       2.10063365       0.28576714
H        1.45710286       1.67390445       0.96848347
15
Frame=13 idx=011086 GeodesicLength=0.6972202860890916 rxn_smarts="[C:1]([c:2]1[c:3]([H:11])[c:4]([N:5]([H:12])[H:13])[c:6]([H:14])[n:7]1[H:15])([H:8])([H:9])[H:10]>>[C:1]([C:2]([C:3](=[C:4]1[N+:5]([H:12])([H:13])[C-:6]1[H:14])[H:11])=[N:7][H:15])([H:8])([H:9])[H:10]"
C        2.37397823      -0.54810659      -0.07523659
C        1.00279844       0.05490124      -0.06954314
C       -0.13418235      -0.65090114      -0.55744209
C       -1.28795436       0.07814952      -0.38567882
N       -2.64342943      -0.25350778      -0.07802173
C       -1.41635168       1.12040418       0.47605778
N        0.67016563       1.16508487       0.55223238
H        2.51255198      -1.21215206       0.78154444
H        2.52320563      -1.14749792      -0.97498190
H        3.14639267       0.22228919      -0.05438651
H       -0.13476699      -1.70944334      -0.77072547
H       -3.37220491       0.14183499      -0.64969175
H       -2.84113932      -1.03204029       0.52747533
H       -1.83295409       2.10174462       0.29920372
H        1.43389056       1.66924051       0.97919434
15
Frame=14 idx=011086 GeodesicLength=0.7508915804057998 rxn_smarts="[C:1]([c:2]1[c:3]([H:11])[c:4]([N:5]([H:12])[H:13])[c:6]([H:14])[n:7]1[H:15])([H:8])([H:9])[H:10]>>[C:1]([C:2]([C:3](=[C:4]1[N+:5]([H:12])([H:13])[C-:6]1[H:14])[H:11])=[N:7][H:15])([H:8])([H:9])[H:10]"
C        2.37411159      -0.54739192      -0.07226933
C        1.00036753       0.04842010      -0.07370996
C       -0.13248719      -0.65342625      -0.57044273
C       -1.28738434       0.08167230      -0.40950458
N       -2.63728118      -0.25471270      -0.08174815
C       -1.40030776       1.12123342       0.45647884
N        0.65624146       1.15408284       0.55481371
H        2.52175364      -1.18943863       0.79968535
H        2.52204377      -1.16779449      -0.95776421
H        3.14196803       0.22798780      -0.07498678
H       -0.13642431      -1.71382397      -0.77423630
H       -3.38037495       0.16797069      -0.61410223
H       -2.82452559      -1.04220060       0.51570890
H       -1.82854548       2.10241357       0.31313993
H        1.41084477       1.66500786       0.98893755
15
Frame=15 idx=011086 GeodesicLength=0.8045747805242197 rxn_smarts="[C:1]([c:2]1[c:3]([H:11])[c:4]([N:5]([H:12])[H:13])[c:6]([H:14])[n:7]1[H:15])([H:8])([H:9])[H:10]>>[C:1]([C:2]([C:3](=[C:4]1[N+:5]([H:12])([H:13])[C-:6]1[H:14])[H:11])=[N:7][H:15])([H:8])([H:9])[H:10]"
C        2.37410011      -0.54671297      -0.06921436
C        0.99779430       0.04174546      -0.07730578
C       -0.13086777      -0.65587714      -0.58315665
C       -1.28681733       0.08515880      -0.43280030
N       -2.63115210      -0.25567289      -0.08590958
C       -1.38467062       1.12249464       0.43649982
N        0.64232795       1.14294160       0.55763903
H        2.53097173      -1.16633677       0.81728827
H        2.52065587      -1.18781546      -0.93996049
H        3.13722207       0.23305090      -0.09573348
H       -0.13825529      -1.71787775      -0.77832280
H       -3.38677373       0.19291879      -0.57796955
H       -2.80849141      -1.05175114       0.50343328
H       -1.82392960       2.10263001       0.32765784
H        1.38788581       1.66110391       0.99785477
15
Frame=16 idx=011086 GeodesicLength=0.8583278515251301 rxn_smarts="[C:1]([c:2]1[c:3]([H:11])[c:4]([N:5]([H:12])[H:13])[c:6]([H:14])[n:7]1[H:15])([H:8])([H:9])[H:10]>>[C:1]([C:2]([C:3](=[C:4]1[N+:5]([H:12])([H:13])[C-:6]1[H:14])[H:11])=[N:7][H:15])([H:8])([H:9])[H:10]"
C        2.37404769      -0.54585600      -0.06641096
C        0.99505494       0.03477051      -0.08020116
C       -0.12935221      -0.65858667      -0.59506088
C       -1.28618481       0.08850697      -0.45554886
N       -2.62516968      -0.25617533      -0.09079083
C       -1.36940949       1.12412606       0.41609235
N        0.62836966       1.13148480       0.56093570
H        2.54089161      -1.14222379       0.83415617
H        2.51888987      -1.20764980      -0.92170785
H        3.13200455       0.23785953      -0.11765468
H       -0.14032410      -1.72205322      -0.78181938
H       -3.39125297       0.21705076      -0.54196407
H       -2.79348066      -1.06047585       0.49028578
H       -1.81891773       2.10230384       0.34281465
H        1.36483333       1.65691820       1.00687401
