12
Frame=0 idx=000165 GeodesicLength=0.0 rxn_smarts="[C:1]([O:2][C:3](=[O:4])[C:5]([O:6][H:12])([H:10])[H:11])([H:7])([H:8])[H:9]>>[C:1](=[O:2])([H:8])[H:9].[C:3](=[O:4])([C:5]([O:6][H:12])([H:10])[H:11])[H:7]"
C        1.67917263      -0.53003587       0.24918763
O        0.98358859      -0.29841676       1.31076127
C        0.08013291       0.65223852      -0.00383640
O        0.26339439       1.81841996      -0.02872196
C       -1.19963219      -0.15933285       0.12098648
O       -2.01882347       0.09441271      -0.98556941
H        0.83866469      -0.07984451      -0.78781112
H        2.50308845       0.14682644      -0.01866685
H        1.80766239      -1.56688643      -0.10110211
H       -0.97734159      -1.22154707       0.14126192
H       -1.66204911       0.13105239       1.06845176
H       -2.29785768       1.01311350      -0.96494118
12
Frame=1 idx=000165 GeodesicLength=0.09044800519277622 rxn_smarts="[C:1]([O:2][C:3](=[O:4])[C:5]([O:6][H:12])([H:10])[H:11])([H:7])([H:8])[H:9]>>[C:1](=[O:2])([H:8])[H:9].[C:3](=[O:4])([C:5]([O:6][H:12])([H:10])[H:11])[H:7]"
C        1.69966862      -0.53170576       0.24865738
O        0.98521881      -0.30886964       1.30145432
C        0.06767408       0.64171548      -0.01523459
O        0.26310640       1.80714445      -0.03416068
C       -1.21768591      -0.15622107       0.12282681
O       -2.04565445       0.10144536      -0.97619794
H        0.84591067      -0.08618712      -0.80833488
H        2.52068152       0.15700770       0.00317073
H        1.85074178      -1.56753067      -0.09347993
H       -1.00071980      -1.22009627       0.14358650
H       -1.67031337       0.13537683       1.07473651
H       -2.29862835       1.02792071      -0.96702424
12
Frame=2 idx=000165 GeodesicLength=0.18080626116459253 rxn_smarts="[C:1]([O:2][C:3](=[O:4])[C:5]([O:6][H:12])([H:10])[H:11])([H:7])([H:8])[H:9]>>[C:1](=[O:2])([H:8])[H:9].[C:3](=[O:4])([C:5]([O:6][H:12])([H:10])[H:11])[H:7]"
C        1.72077188      -0.53322388       0.24811741
O        0.98675771      -0.32035560       1.29141789
C        0.05504455       0.63057129      -0.02705105
O        0.26288633       1.79508382      -0.03993881
C       -1.23613374      -0.15286445       0.12484931
O       -2.07298344       0.10913192      -0.96633701
H        0.85336471      -0.09280262      -0.82947318
H        2.53819378       0.16759036       0.02611303
H        1.89505446      -1.56739378      -0.08578876
H       -1.02509310      -1.21849285       0.14616655
H       -1.67845934       0.14019784       1.08124240
H       -2.29940380       1.04255794      -0.96931777
12
Frame=3 idx=000165 GeodesicLength=0.27107845166569855 rxn_smarts="[C:1]([O:2][C:3](=[O:4])[C:5]([O:6][H:12])([H:10])[H:11])([H:7])([H:8])[H:9]>>[C:1](=[O:2])([H:8])[H:9].[C:3](=[O:4])([C:5]([O:6][H:12])([H:10])[H:11])[H:7]"
C        1.74250019      -0.53456950       0.24757412
O        0.98821224      -0.33294649       1.28057568
C        0.04222693       0.61876904      -0.03932159
O        0.26273309       1.78219095      -0.04609751
C       -1.25496773      -0.14925066       0.12705842
O       -2.10080675       0.11750949      -0.95595481
H        0.86103668      -0.09969803      -0.85127105
H        2.55557887       0.17857609       0.05026889
H        1.94061659      -1.56640879      -0.07801992
H       -1.05049583      -1.21672209       0.14902607
H       -1.68644304       0.14552826       1.08797250
H       -2.30019125       1.05702173      -0.97181081
12
Frame=4 idx=000165 GeodesicLength=0.3612605518347146 rxn_smarts="[C:1]([O:2][C:3](=[O:4])[C:5]([O:6][H:12])([H:10])[H:11])([H:7])([H:8])[H:9]>>[C:1](=[O:2])([H:8])[H:9].[C:3](=[O:4])([C:5]([O:6][H:12])([H:10])[H:11])[H:7]"
C        1.76487521      -0.53571195       0.24703103
O        0.98959303      -0.34672385       1.26883733
C        0.02920264       0.60626863      -0.05208801
O        0.26264545       1.76841403      -0.05268789
C       -1.27417717      -0.14536595       0.12946017
O       -2.12912247       0.12662014      -0.94501263
H        0.86893774      -0.10688342      -0.87377517
H        2.57276343       0.18995956       0.07577033
H        1.98744572      -1.56450036      -0.07016663
H       -1.07696134      -1.21476526       0.15219263
H       -1.69420887       0.15138135       1.09493181
H       -2.30099336       1.07130708      -0.97449297
12
Frame=5 idx=000165 GeodesicLength=0.451353358951158 rxn_smarts="[C:1]([O:2][C:3](=[O:4])[C:5]([O:6][H:12])([H:10])[H:11])([H:7])([H:8])[H:9]>>[C:1](=[O:2])([H:8])[H:9].[C:3](=[O:4])([C:5]([O:6][H:12])([H:10])[H:11])[H:7]"
C        1.78790515      -0.53663249       0.24650396
O        0.99091673      -0.36175801       1.25610979
C        0.01595244       0.59303879      -0.06538763
O        0.26262417       1.75371037      -0.05975845
C       -1.29374087      -0.14119781       0.13205909
O       -2.15791567       0.13650688      -0.93347405
H        0.87708469      -0.11435424      -0.89703436
H        2.58969645       0.20173223       0.10273772
H        2.03551408      -1.56159539      -0.06221624
H       -1.10451139      -1.21260369       0.15568756
H       -1.70169719       0.15776128       1.10212531
H       -2.30182859       1.08539208      -0.97735269
12
Frame=6 idx=000165 GeodesicLength=0.541362653679926 rxn_smarts="[C:1]([O:2][C:3](=[O:4])[C:5]([O:6][H:12])([H:10])[H:11])([H:7])([H:8])[H:9]>>[C:1](=[O:2])([H:8])[H:9].[C:3](=[O:4])([C:5]([O:6][H:12])([H:10])[H:11])[H:7]"
C        1.81161491      -0.53728432       0.24599942
O        0.99220099      -0.37813915       1.24227735
C        0.00245401       0.57903502      -0.07927305
O        0.26266628       1.73802149      -0.06737457
C       -1.31363878      -0.13673213       0.13486259
O       -2.18717793       0.14722930      -0.92128527
H        0.88548259      -0.12212090      -0.92111263
H        2.60625010       0.21386535       0.13133208
H        2.08484001      -1.55760448      -0.05414650
H       -1.13317022      -1.21021105       0.15953850
H       -1.70882516       0.16467481       1.10955720
H       -2.30269679       1.09926607      -0.98037512
12
Frame=7 idx=000165 GeodesicLength=0.6312823321701276 rxn_smarts="[C:1]([O:2][C:3](=[O:4])[C:5]([O:6][H:12])([H:10])[H:11])([H:7])([H:8])[H:9]>>[C:1](=[O:2])([H:8])[H:9].[C:3](=[O:4])([C:5]([O:6][H:12])([H:10])[H:11])[H:7]"
C        1.83601184      -0.53763442       0.24553988
O        0.99347293      -0.39592869       1.22722554
C       -0.01131646       0.56422717      -0.09379310
O        0.26276756       1.72130560      -0.07559951
C       -1.33383672      -0.13195720       0.13787209
O       -2.21688351       0.15883977      -0.90840234
H        0.89415345      -0.13017537      -0.94606190
H        2.62232270       0.22631364       0.16168013
H        2.13537989      -1.55244701      -0.04591674
H       -1.16293631      -1.20756372       0.16375625
H       -1.71551099       0.17211021       1.11722755
H       -2.30362439       1.11291000      -0.98352785
12
Frame=8 idx=000165 GeodesicLength=0.7211147488713019 rxn_smarts="[C:1]([O:2][C:3](=[O:4])[C:5]([O:6][H:12])([H:10])[H:11])([H:7])([H:8])[H:9]>>[C:1](=[O:2])([H:8])[H:9].[C:3](=[O:4])([C:5]([O:6][H:12])([H:10])[H:11])[H:7]"
C        1.86111058      -0.53762960       0.24515540
O        0.99475862      -0.41521030       1.21082229
C       -0.02538542       0.54858097      -0.10899974
O        0.26291802       1.70350829      -0.08450745
C       -1.35429376      -0.12685827       0.14109672
O       -2.24700282       0.17140492      -0.89475821
H        0.90309448      -0.13851786      -0.97194536
H        2.63774691       0.23902033       0.19392632
H        2.18711635      -1.54602759      -0.03748833
H       -1.19380709      -1.20463168       0.16836269
H       -1.72164483       0.18005183       1.12513811
H       -2.30461106       1.12630896      -0.98680243
12
Frame=9 idx=000165 GeodesicLength=0.810811009699655 rxn_smarts="[C:1]([O:2][C:3](=[O:4])[C:5]([O:6][H:12])([H:10])[H:11])([H:7])([H:8])[H:9]>>[C:1](=[O:2])([H:8])[H:9].[C:3](=[O:4])([C:5]([O:6][H:12])([H:10])[H:11])[H:7]"
C        1.88691555      -0.53721568       0.24504556
O        0.99598006      -0.43625160       1.19293730
C       -0.03976521       0.53199688      -0.12489407
O        0.26314982       1.68451004      -0.09412002
C       -1.37498236      -0.12138279       0.14459039
O       -2.27749882       0.18501502      -0.88029172
H        0.91232421      -0.14723172      -0.99874931
H        2.65222849       0.25203159       0.22807175
H        2.24017038      -1.53813526      -0.02903694
H       -1.22582252      -1.20130668       0.17348003
H       -1.72712349       0.18857144       1.13330680
H       -2.30557612       1.13939875      -0.99033977
12
Frame=10 idx=000165 GeodesicLength=0.9004087391634549 rxn_smarts="[C:1]([O:2][C:3](=[O:4])[C:5]([O:6][H:12])([H:10])[H:11])([H:7])([H:8])[H:9]>>[C:1](=[O:2])([H:8])[H:9].[C:3](=[O:4])([C:5]([O:6][H:12])([H:10])[H:11])[H:7]"
C        1.91339936      -0.53633578       0.24509346
O        0.99728985      -0.45896366       1.17335448
C       -0.05450749       0.51450512      -0.14161641
O        0.26342730       1.66432074      -0.10461720
C       -1.39582074      -0.11554933       0.14831774
O       -2.30834278       0.19972862      -0.86490157
H        0.92185021      -0.15625520      -1.02663492
H        2.66566481       0.26515641       0.26451637
H        2.29435945      -1.52875059      -0.02032729
H       -1.25890744      -1.19760932       0.17904317
H       -1.73177680       0.19756895       1.14173349
H       -2.30663573       1.15218404      -0.99396132
12
Frame=11 idx=000165 GeodesicLength=0.9898749441827978 rxn_smarts="[C:1]([O:2][C:3](=[O:4])[C:5]([O:6][H:12])([H:10])[H:11])([H:7])([H:8])[H:9]>>[C:1](=[O:2])([H:8])[H:9].[C:3](=[O:4])([C:5]([O:6][H:12])([H:10])[H:11])[H:7]"
C        1.94051812      -0.53494870       0.24536778
O        0.99872810      -0.48338928       1.15190340
C       -0.06964421       0.49607797      -0.15923188
O        0.26374544       1.64289163      -0.11609373
C       -1.41672953      -0.10934543       0.15227641
O       -2.33945248       0.21559502      -0.84852416
H        0.93168688      -0.16558134      -1.05567050
H        2.67787015       0.27832408       0.30340325
H        2.34957006      -1.51778810      -0.01129909
H       -1.29299300      -1.19349897       0.18506674
H       -1.73546333       0.20702096       1.15039346
H       -2.30783619       1.16464215      -0.99759167
12
Frame=12 idx=000165 GeodesicLength=1.0792023013174712 rxn_smarts="[C:1]([O:2][C:3](=[O:4])[C:5]([O:6][H:12])([H:10])[H:11])([H:7])([H:8])[H:9]>>[C:1](=[O:2])([H:8])[H:9].[C:3](=[O:4])([C:5]([O:6][H:12])([H:10])[H:11])[H:7]"
C        1.96823407      -0.53298535       0.24594533
O        1.00033987      -0.50957766       1.12838272
C       -0.08520600       0.47669191      -0.17782380
O        0.26410490       1.62017552      -0.12867972
C       -1.43762070      -0.10276433       0.15647098
O       -2.37076212       0.23267498      -0.83105283
H        0.94184878      -0.17520373      -1.08594755
H        2.68854923       0.29140729       0.34492023
H        2.40572253      -1.50513081      -0.00189255
H       -1.32801399      -1.18893286       0.19158040
H       -1.73800339       0.21688417       1.15928746
H       -2.30919319       1.17676086      -1.00119066
12
Frame=13 idx=000165 GeodesicLength=1.1683531672200818 rxn_smarts="[C:1]([O:2][C:3](=[O:4])[C:5]([O:6][H:12])([H:10])[H:11])([H:7])([H:8])[H:9]>>[C:1](=[O:2])([H:8])[H:9].[C:3](=[O:4])([C:5]([O:6][H:12])([H:10])[H:11])[H:7]"
C        1.99646766      -0.53040880       0.24693079
O        1.00219173      -0.53750439       1.10260257
C       -0.10122706       0.45635079      -0.19747258
O        0.26449382       1.59615264      -0.14249937
C       -1.45837425      -0.09580741       0.16089281
O       -2.40213924       0.25100158      -0.81242039
H        0.95234578      -0.18507832      -1.11754546
H        2.69744550       0.30427471       0.38917130
H        2.46262912      -1.49072655       0.00801655
H       -1.36383523      -1.18387669       0.19858395
H       -1.73921351       0.22709541       1.16836952
H       -2.31078432       1.18852703      -1.00462968
12
Frame=14 idx=000165 GeodesicLength=1.2573083364729598 rxn_smarts="[C:1]([O:2][C:3](=[O:4])[C:5]([O:6][H:12])([H:10])[H:11])([H:7])([H:8])[H:9]>>[C:1](=[O:2])([H:8])[H:9].[C:3](=[O:4])([C:5]([O:6][H:12])([H:10])[H:11])[H:7]"
C        2.02514075      -0.52713255       0.24843853
O        1.00435756      -0.56718980       1.07430623
C       -0.11774910       0.43504998      -0.21827247
O        0.26490231       1.57078078      -0.15772022
C       -1.47887157      -0.08846873       0.16554851
O       -2.43348370       0.27067198      -0.79248670
H        0.96318012      -0.19520361      -1.15056094
H        2.70415073       0.31670875       0.43631447
H        2.52021192      -1.47443364       0.01855860
H       -1.40033835      -1.17827848       0.20608986
H       -1.73885765       0.23758053       1.17763804
H       -2.31264302       1.19991480      -1.00785391
12
Frame=15 idx=000165 GeodesicLength=1.3460321657748204 rxn_smarts="[C:1]([O:2][C:3](=[O:4])[C:5]([O:6][H:12])([H:10])[H:11])([H:7])([H:8])[H:9]>>[C:1](=[O:2])([H:8])[H:9].[C:3](=[O:4])([C:5]([O:6][H:12])([H:10])[H:11])[H:7]"
C        2.05413455      -0.52309959       0.25061461
O        1.00694134      -0.59853953       1.04327662
C       -0.13480922       0.41282955      -0.24031306
O        0.26531661       1.54407693      -0.17452160
C       -1.49895361      -0.08076079       0.17042492
O       -2.46462639       0.29171586      -0.77117211
H        0.97436466      -0.20552694      -1.18508309
H        2.70827071       0.32844710       0.48639091
H        2.57825391      -1.45618751       0.02994198
H       -1.43731880      -1.17210970       0.21407814
H       -1.73670232       0.24823212       1.18705660
H       -2.31487145       1.21092249      -1.01069391
12
Frame=16 idx=000165 GeodesicLength=1.4345200203291295 rxn_smarts="[C:1]([O:2][C:3](=[O:4])[C:5]([O:6][H:12])([H:10])[H:11])([H:7])([H:8])[H:9]>>[C:1](=[O:2])([H:8])[H:9].[C:3](=[O:4])([C:5]([O:6][H:12])([H:10])[H:11])[H:7]"
C        2.08331133      -0.51822148       0.25360466
O        1.01005595      -0.63151427       1.00923020
C       -0.15244533       0.38973535      -0.26369114
O        0.26574066       1.51606306      -0.19311872
C       -1.51845733      -0.07268549       0.17554437
O       -2.49542171       0.31418373      -0.74834266
H        0.98589630      -0.21602101      -1.22124198
H        2.70931671       0.33918516       0.53953371
H        2.63658291      -1.43586500       0.04234707
H       -1.47458324      -1.16532955       0.22257353
H       -1.73246682       0.25895696       1.19663255
H       -2.31752942       1.22151254      -1.01307159
