14
Frame=0 idx=006186 GeodesicLength=0.0 rxn_smarts="[O:1]([C@:2]12[C:3]([H:8])([H:9])[C@@:4]1([H:10])[C:5]([H:11])([H:12])[C:6]2([H:13])[H:14])[H:7]>>[O:1]([C@:2]1([H:14])[C:3]([H:8])([H:9])[C@:4]1([C:5]([C:6][H:13])([H:11])[H:12])[H:10])[H:7]"
O        1.29048416       0.79750853       1.51914429
C        0.74231101       0.18698131       0.42211653
C        0.70424543       0.76332594      -0.95709624
C       -0.56522285       0.60240257      -0.16464994
C       -1.36399554      -0.66753591      -0.35425757
C       -0.38917517      -1.67408460       0.25848737
H        2.24765612       0.74456206       1.46271774
H        1.07674618       1.77619521      -1.03549218
H        0.89572894       0.11884175      -1.80658653
H       -1.03622262       1.50605662       0.19951161
H       -2.30811084      -0.61639383       0.19219303
H       -1.58324406      -0.87692599      -1.40386584
H       -0.59079681      -1.68467118       1.34236971
H        0.87959602      -0.97626248       0.32540806
14
Frame=1 idx=006186 GeodesicLength=0.06247116564265045 rxn_smarts="[O:1]([C@:2]12[C:3]([H:8])([H:9])[C@@:4]1([H:10])[C:5]([H:11])([H:12])[C:6]2([H:13])[H:14])[H:7]>>[O:1]([C@:2]1([H:14])[C:3]([H:8])([H:9])[C@:4]1([C:5]([C:6][H:13])([H:11])[H:12])[H:10])[H:7]"
O        1.29452511       0.79147509       1.51570417
C        0.74473494       0.17935237       0.41863259
C        0.70093911       0.76667344      -0.95541044
C       -0.56623042       0.60040433      -0.16046052
C       -1.36442363      -0.66963972      -0.35894600
C       -0.39209068      -1.65969234       0.27856778
H        2.25169275       0.74633095       1.45383180
H        1.07157060       1.78066721      -1.02883432
H        0.88852792       0.12939934      -1.81126536
H       -1.03755777       1.49963889       0.21373159
H       -2.31661525      -0.61488254       0.17281867
H       -1.56613811      -0.88647925      -1.41041043
H       -0.60706580      -1.66726505       1.35939434
H        0.89813124      -0.99598273       0.31264612
14
Frame=2 idx=006186 GeodesicLength=0.12487876035867579 rxn_smarts="[O:1]([C@:2]12[C:3]([H:8])([H:9])[C@@:4]1([H:10])[C:5]([H:11])([H:12])[C:6]2([H:13])[H:14])[H:7]>>[O:1]([C@:2]1([H:14])[C:3]([H:8])([H:9])[C@:4]1([C:5]([C:6][H:13])([H:11])[H:12])[H:10])[H:7]"
O        1.29852286       0.78573011       1.51219931
C        0.74704659       0.17198218       0.41514912
C        0.69766330       0.76995895      -0.95369996
C       -0.56728663       0.59858822      -0.15642988
C       -1.36465890      -0.67174989      -0.36345449
C       -0.39459672      -1.64483136       0.29807983
H        2.25556821       0.74779633       1.44511786
H        1.06649962       1.78498221      -1.02227068
H        0.88138539       0.13972086      -1.81564019
H       -1.03890469       1.49330413       0.22764706
H       -2.32444881      -0.61362212       0.15388841
H       -1.54918402      -0.89602124      -1.41636813
H       -0.62316921      -1.65007154       1.37561265
H        0.91556299      -1.01576684       0.30016908
14
Frame=3 idx=006186 GeodesicLength=0.18729233148739885 rxn_smarts="[O:1]([C@:2]12[C:3]([H:8])([H:9])[C@@:4]1([H:10])[C:5]([H:11])([H:12])[C:6]2([H:13])[H:14])[H:7]>>[O:1]([C@:2]1([H:14])[C:3]([H:8])([H:9])[C@:4]1([C:5]([C:6][H:13])([H:11])[H:12])[H:10])[H:7]"
O        1.30246266       0.78031040       1.50864717
C        0.74925638       0.16488977       0.41167782
C        0.69446344       0.77321522      -0.95199439
C       -0.56840195       0.59698416      -0.15254961
C       -1.36473498      -0.67387940      -0.36776273
C       -0.39672339      -1.62962291       0.31701644
H        2.25931038       0.74900578       1.43657352
H        1.06158683       1.78921440      -1.01585350
H        0.87438059       0.14980389      -1.81975121
H       -1.04030876       1.48712944       0.24125306
H       -2.33170904      -0.61262503       0.13545495
H       -1.53241544      -0.90552129      -1.42175466
H       -0.63911419      -1.63321224       1.39104174
H        0.93194745      -1.03569219       0.28800142
14
Frame=4 idx=006186 GeodesicLength=0.24969821520853214 rxn_smarts="[O:1]([C@:2]12[C:3]([H:8])([H:9])[C@@:4]1([H:10])[C:5]([H:11])([H:12])[C:6]2([H:13])[H:14])[H:7]>>[O:1]([C@:2]1([H:14])[C:3]([H:8])([H:9])[C@:4]1([C:5]([C:6][H:13])([H:11])[H:12])[H:10])[H:7]"
O        1.30634094       0.77521865       1.50506436
C        0.75136181       0.15808291       0.40823477
C        0.69132827       0.77642945      -0.95028599
C       -0.56956800       0.59558169      -0.14881078
C       -1.36464950      -0.67601683      -0.37187670
C       -0.39849522      -1.61409223       0.33536151
H        2.26292195       0.75001212       1.42819356
H        1.05681508       1.79334285      -1.00957779
H        0.86749256       0.15963393      -1.82359370
H       -1.04175438       1.48110243       0.25454697
H       -2.33840266      -0.61187012       0.11751069
H       -1.51584673      -0.91493831      -1.42659837
H       -0.65485538      -1.61669844       1.40566870
H        0.94731125      -1.05578810       0.27616277
14
Frame=5 idx=006186 GeodesicLength=0.31209896614981353 rxn_smarts="[O:1]([C@:2]12[C:3]([H:8])([H:9])[C@@:4]1([H:10])[C:5]([H:11])([H:12])[C:6]2([H:13])[H:14])[H:7]>>[O:1]([C@:2]1([H:14])[C:3]([H:8])([H:9])[C@:4]1([C:5]([C:6][H:13])([H:11])[H:12])[H:10])[H:7]"
O        1.31015065       0.77046412       1.50146380
C        0.75336373       0.15156999       0.40483192
C        0.68825824       0.77960085      -0.94857604
C       -0.57078228       0.59437931      -0.14520688
C       -1.36440970      -0.67815540      -0.37579690
C       -0.39993421      -1.59828020       0.35310735
H        2.26640830       0.75085249       1.41997831
H        1.05218196       1.79736932      -1.00344995
H        0.86072343       0.16920283      -1.82717305
H       -1.04324158       1.47523023       0.26752423
H       -2.34455732      -0.61134219       0.10005931
H       -1.49949471      -0.92424020      -1.43092409
H       -0.67035518      -1.60056038       1.41949381
H        0.96168866      -1.07609077       0.26466817
14
Frame=6 idx=006186 GeodesicLength=0.3744972473577013 rxn_smarts="[O:1]([C@:2]12[C:3]([H:8])([H:9])[C@@:4]1([H:10])[C:5]([H:11])([H:12])[C:6]2([H:13])[H:14])[H:7]>>[O:1]([C@:2]1([H:14])[C:3]([H:8])([H:9])[C@:4]1([C:5]([C:6][H:13])([H:11])[H:12])[H:10])[H:7]"
O        1.31388522       0.76605367       1.49785754
C        0.75526347       0.14535710       0.40147946
C        0.68525347       0.78272989      -0.94686654
C       -0.57204242       0.59337550      -0.14173152
C       -1.36402320      -0.68028865      -0.37952497
C       -0.40106083      -1.58222485       0.37025050
H        2.26977372       0.75156176       1.41192778
H        1.04768519       1.80129730      -0.99747563
H        0.85407505       0.17850480      -1.83049648
H       -1.04477000       1.46952008       0.28018270
H       -2.35020091      -0.61102627       0.08310201
H       -1.48337309      -0.93339845      -1.43475816
H       -0.68557743      -1.58482551       1.43252318
H        0.97511177      -1.09663635       0.25353014
14
Frame=7 idx=006186 GeodesicLength=0.43689604599229453 rxn_smarts="[O:1]([C@:2]12[C:3]([H:8])([H:9])[C@@:4]1([H:10])[C:5]([H:11])([H:12])[C:6]2([H:13])[H:14])[H:7]>>[O:1]([C@:2]1([H:14])[C:3]([H:8])([H:9])[C@:4]1([C:5]([C:6][H:13])([H:11])[H:12])[H:10])[H:7]"
O        1.31753909       0.76199218       1.49425639
C        0.75706291       0.13944857       0.39818604
C        0.68231357       0.78581803      -0.94515991
C       -0.57334627       0.59256859      -0.13837856
C       -1.36349768      -0.68241045      -0.38306330
C       -0.40189351      -1.56596030       0.38679070
H        2.27302196       0.75217193       1.40404187
H        1.04332190       1.80513152      -0.99165984
H        0.84754903       0.18753602      -1.83357231
H       -1.04633930       1.46397878       0.29252218
H       -2.35536093      -0.61090821       0.06663747
H       -1.46749281      -0.94238769      -1.43812734
H       -0.70048807      -1.56951828       1.44476691
H        0.98761011      -1.11746069       0.24275970
14
Frame=8 idx=006186 GeodesicLength=0.4992970197999641 rxn_smarts="[O:1]([C@:2]12[C:3]([H:8])([H:9])[C@@:4]1([H:10])[C:5]([H:11])([H:12])[C:6]2([H:13])[H:14])[H:7]>>[O:1]([C@:2]1([H:14])[C:3]([H:8])([H:9])[C@:4]1([C:5]([C:6][H:13])([H:11])[H:12])[H:10])[H:7]"
O        1.32110871       0.75828160       1.49066855
C        0.75876442       0.13384692       0.39495842
C        0.67943716       0.78886832      -0.94345830
C       -0.57469191       0.59195652      -0.13514160
C       -1.36284001      -0.68451511      -0.38641601
C       -0.40244838      -1.54951692       0.40273321
H        2.27615713       0.75271052       1.39631758
H        1.03908720       1.80887859      -0.98600565
H        0.84114624       0.19629655      -1.83640942
H       -1.04794917       1.45861141       0.30454576
H       -2.36006499      -0.61097429       0.05065895
H       -1.45185920      -0.95118722      -1.44105990
H       -0.71505625      -1.55465740       1.45624168
H        0.99920904      -1.13859947       0.23236672
14
Frame=9 idx=006186 GeodesicLength=0.561714364726933 rxn_smarts="[O:1]([C@:2]12[C:3]([H:8])([H:9])[C@@:4]1([H:10])[C:5]([H:11])([H:12])[C:6]2([H:13])[H:14])[H:7]>>[O:1]([C@:2]1([H:14])[C:3]([H:8])([H:9])[C@:4]1([C:5]([C:6][H:13])([H:11])[H:12])[H:10])[H:7]"
O        1.32458952       0.75492512       1.48710240
C        0.76037184       0.12855376       0.39180118
C        0.67662677       0.79189057      -0.94176874
C       -0.57608044       0.59154055      -0.13201525
C       -1.36205790      -0.68659930      -0.38958617
C       -0.40274342      -1.53293190       0.41809288
H        2.27918710       0.75320111       1.38875102
H        1.03498165       1.81255642      -0.98051967
H        0.83487367       0.20479358      -1.83902528
H       -1.04960684       1.45342927       0.31625839
H       -2.36434619      -0.61120982       0.03516073
H       -1.43647098      -0.95978296      -1.44358462
H       -0.72926042      -1.54026920       1.46697667
H        1.00993565      -1.16009723       0.22235646
14
Frame=10 idx=006186 GeodesicLength=0.6241049773708451 rxn_smarts="[O:1]([C@:2]12[C:3]([H:8])([H:9])[C@@:4]1([H:10])[C:5]([H:11])([H:12])[C:6]2([H:13])[H:14])[H:7]>>[O:1]([C@:2]1([H:14])[C:3]([H:8])([H:9])[C@:4]1([C:5]([C:6][H:13])([H:11])[H:12])[H:10])[H:7]"
O        1.32798623       0.75191982       1.48356074
C        0.76189037       0.12357405       0.38871615
C        0.67387529       0.79488207      -0.94008922
C       -0.57750322       0.59131415      -0.12899762
C       -1.36115502      -0.68866083      -0.39257501
C       -0.40278074      -1.51620725       0.43286159
H        2.28210577       0.75365632       1.38135239
H        1.03099826       1.81615613      -0.97519600
H        0.82871912       0.21302471      -1.84142088
H       -1.05130184       1.44842497       0.32766105
H       -2.36821785      -0.61161742       0.02013213
H       -1.42134039      -0.96815897      -1.44571582
H       -0.74306802      -1.52634633       1.47697031
H        1.01979203      -1.18196144       0.21274021
14
Frame=11 idx=006186 GeodesicLength=0.6865404172116626 rxn_smarts="[O:1]([C@:2]12[C:3]([H:8])([H:9])[C@@:4]1([H:10])[C:5]([H:11])([H:12])[C:6]2([H:13])[H:14])[H:7]>>[O:1]([C@:2]1([H:14])[C:3]([H:8])([H:9])[C@:4]1([C:5]([C:6][H:13])([H:11])[H:12])[H:10])[H:7]"
O        1.33130827       0.74925385       1.48004452
C        0.76331841       0.11889769       0.38570952
C        0.67116458       0.79784870      -0.93840876
C       -0.57896492       0.59126336      -0.12607200
C       -1.36012417      -0.69068951      -0.39540744
C       -0.40259670      -1.49935242       0.44709136
H        2.28494060       0.75409841       1.37408258
H        1.02709832       1.81968665      -0.97001431
H        0.82266224       0.22101416      -1.84359959
H       -1.05303160       1.44357374       0.33878343
H       -2.37169288      -0.61216215       0.00550780
H       -1.40642375      -0.97632530      -1.44749584
H       -0.75646038      -1.51285042       1.48626802
H        1.02880199      -1.20425676       0.20351073
14
Frame=12 idx=006186 GeodesicLength=0.7489833034011084 rxn_smarts="[O:1]([C@:2]12[C:3]([H:8])([H:9])[C@@:4]1([H:10])[C:5]([H:11])([H:12])[C:6]2([H:13])[H:14])[H:7]>>[O:1]([C@:2]1([H:14])[C:3]([H:8])([H:9])[C@:4]1([C:5]([C:6][H:13])([H:11])[H:12])[H:10])[H:7]"
O        1.33455418       0.74693193       1.47655908
C        0.76466853       0.11452783       0.38277874
C        0.66851288       0.80080949      -0.93674699
C       -0.58046375       0.59140121      -0.12323738
C       -1.35898145      -0.69269153      -0.39807479
C       -0.40219192      -1.48241639       0.46078448
H        2.28769123       0.75455043       1.36694643
H        1.02330208       1.82318472      -0.96499948
H        0.81673644       0.22876912      -1.84559136
H       -1.05480973       1.43890933       0.34963250
H       -2.37482011      -0.61285421      -0.00869109
H       -1.39172681      -0.98426625      -1.44894406
H       -0.76944272      -1.49983798       1.49490196
H        1.03697115      -1.22701770       0.19468195
14
Frame=13 idx=006186 GeodesicLength=0.8114407010478896 rxn_smarts="[O:1]([C@:2]12[C:3]([H:8])([H:9])[C@@:4]1([H:10])[C:5]([H:11])([H:12])[C:6]2([H:13])[H:14])[H:7]>>[O:1]([C@:2]1([H:14])[C:3]([H:8])([H:9])[C@:4]1([C:5]([C:6][H:13])([H:11])[H:12])[H:10])[H:7]"
O        1.33772468       0.74495126       1.47310769
C        0.76594279       0.11046433       0.37992656
C        0.66591051       0.80376508      -0.93510040
C       -0.58199669       0.59171994      -0.12048879
C       -1.35772576      -0.69465986      -0.40058608
C       -0.40157476      -1.46540269       0.47394979
H        2.29035997       0.75503238       1.35993968
H        1.01959459       1.82664780      -0.96014345
H        0.81092946       0.23629415      -1.84739743
H       -1.05662924       1.43442120       0.36021423
H       -2.37760508      -0.61367993      -0.02248442
H       -1.37724697      -0.99197180      -1.45008299
H       -0.78198574      -1.48730338       1.50288396
H        1.04430223      -1.25027849       0.18626166
14
Frame=14 idx=006186 GeodesicLength=0.8739312371203487 rxn_smarts="[O:1]([C@:2]12[C:3]([H:8])([H:9])[C@@:4]1([H:10])[C:5]([H:11])([H:12])[C:6]2([H:13])[H:14])[H:7]>>[O:1]([C@:2]1([H:14])[C:3]([H:8])([H:9])[C@:4]1([C:5]([C:6][H:13])([H:11])[H:12])[H:10])[H:7]"
O        1.34081628       0.74330942       1.46969635
C        0.76714646       0.10670559       0.37715441
C        0.66335855       0.80672655      -0.93347676
C       -0.58356569       0.59222056      -0.11782207
C       -1.35636148      -0.69659071      -0.40294543
C       -0.40075195      -1.44833189       0.48660085
H        2.29295143       0.75556305       1.35305886
H        1.01597173       1.83009425      -0.95545392
H        0.80525080       0.24359982      -1.84903476
H       -1.05849889       1.43011725       0.37053606
H       -2.38006885      -0.61462894      -0.03587796
H       -1.36298053      -0.99943300      -1.45093524
H       -0.79407236      -1.47526319       1.51023893
H        1.05080451      -1.27408875       0.17826069
14
Frame=15 idx=006186 GeodesicLength=0.9363887440568648 rxn_smarts="[O:1]([C@:2]12[C:3]([H:8])([H:9])[C@@:4]1([H:10])[C:5]([H:11])([H:12])[C:6]2([H:13])[H:14])[H:7]>>[O:1]([C@:2]1([H:14])[C:3]([H:8])([H:9])[C@:4]1([C:5]([C:6][H:13])([H:11])[H:12])[H:10])[H:7]"
O        1.34383751       0.74201093       1.46631670
C        0.76828428       0.10325721       0.37445850
C        0.66084462       0.80968526      -0.93186077
C       -0.58515627       0.59288857      -0.11523543
C       -1.35488714      -0.69847969      -0.40516061
C       -0.39972401      -1.43119932       0.49873509
H        2.29545853       0.75616671       1.34630406
H        1.01242257       1.83350211      -0.95090585
H        0.79967365       0.25068214      -1.85048171
H       -1.06038918       1.42597343       0.38059635
H       -2.38221007      -0.61569806      -0.04889060
H       -1.34892982      -1.00663728      -1.45151930
H       -0.80567482      -1.46370872       1.51696647
H        1.05645014      -1.29844329       0.17067708
14
Frame=16 idx=006186 GeodesicLength=0.9988744940491053 rxn_smarts="[O:1]([C@:2]12[C:3]([H:8])([H:9])[C@@:4]1([H:10])[C:5]([H:11])([H:12])[C:6]2([H:13])[H:14])[H:7]>>[O:1]([C@:2]1([H:14])[C:3]([H:8])([H:9])[C@:4]1([C:5]([C:6][H:13])([H:11])[H:12])[H:10])[H:7]"
O        1.34676214       0.74106254       1.46299165
C        0.76936016       0.10011968       0.37184772
C        0.65838127       0.81265626      -0.93027572
C       -0.58677707       0.59373628      -0.11272724
C       -1.35331599      -0.70031813      -0.40722853
C       -0.39848679      -1.41404205       0.51034675
H        2.29787634       0.75686983       1.33969212
H        1.00895891       1.83690221      -0.94653616
H        0.79423589       0.25753671      -1.85176985
H       -1.06232678       1.42202985       0.39038443
H       -2.38405388      -0.61687174      -0.06148258
H       -1.33512279      -1.01355585      -1.45185805
H       -0.81675656      -1.45270694       1.52307931
H        1.06126514      -1.32341864       0.16353615
