15
Frame=0 idx=007230 GeodesicLength=0.0 rxn_smarts="[O:1]([C:2]([C@@:3]1([H:11])[C:4]([H:12])([H:13])[C:5]([H:14])([H:15])[C:6]1=[O:7])([H:9])[H:10])[H:8]>>[C:2](=[C:3]1[C:4]([H:12])([H:13])[C:5]([H:14])([H:15])[C:6]1=[O:7])([H:9])[H:10].[O:1]([H:8])[H:11]"
O        2.20944752      -0.04788969       1.08133709
C        1.53929697      -0.34243655      -0.39999049
C        0.18398048       0.02305408      -0.07335723
C       -0.77901867       1.10697522      -0.56245921
C       -1.95012939       0.19732099      -0.08644500
C       -0.90913012      -0.89627504       0.19795497
O       -0.98474853      -2.06552711       0.49660708
H        2.39439804      -0.88779754       1.52562041
H        1.73540392      -1.40229045      -0.55484637
H        2.11769341       0.30456919      -1.05090527
H        1.09988831       0.19752798       1.18589683
H       -0.71542912       2.08062673      -0.07526640
H       -0.78597385       1.25765651      -1.64461629
H       -2.68501986      -0.07204498      -0.84562139
H       -2.47065908       0.54653063       0.80609127
15
Frame=1 idx=007230 GeodesicLength=0.08422503050871454 rxn_smarts="[O:1]([C:2]([C@@:3]1([H:11])[C:4]([H:12])([H:13])[C:5]([H:14])([H:15])[C:6]1=[O:7])([H:9])[H:10])[H:8]>>[C:2](=[C:3]1[C:4]([H:12])([H:13])[C:5]([H:14])([H:15])[C:6]1=[O:7])([H:9])[H:10].[O:1]([H:8])[H:11]"
O        2.22420835      -0.06837725       1.09155789
C        1.53480794      -0.33314216      -0.40795983
C        0.18590326       0.03357503      -0.06342172
C       -0.78160121       1.10876193      -0.56361623
C       -1.95199684       0.19516812      -0.09428590
C       -0.90841098      -0.89027414       0.20615945
O       -0.97550625      -2.05398215       0.52491611
H        2.39486254      -0.92131992       1.51619008
H        1.73413995      -1.39239947      -0.56163694
H        2.10365150       0.31395023      -1.06740098
H        1.10798756       0.20515743       1.21177858
H       -0.72634041       2.08431104      -0.07955903
H       -0.78049114       1.25647388      -1.64606663
H       -2.67834685      -0.08426786      -0.85802246
H       -2.48286741       0.54636528       0.79136761
15
Frame=2 idx=007230 GeodesicLength=0.16841513622151694 rxn_smarts="[O:1]([C:2]([C@@:3]1([H:11])[C:4]([H:12])([H:13])[C:5]([H:14])([H:15])[C:6]1=[O:7])([H:9])[H:10])[H:8]>>[C:2](=[C:3]1[C:4]([H:12])([H:13])[C:5]([H:14])([H:15])[C:6]1=[O:7])([H:9])[H:10].[O:1]([H:8])[H:11]"
O        2.23850494      -0.08900612       1.10175388
C        1.53030443      -0.32382507      -0.41594011
C        0.18798375       0.04420016      -0.05370734
C       -0.78408814       1.11055143      -0.56478400
C       -1.95357267       0.19291423      -0.10199117
C       -0.90750307      -0.88428222       0.21411982
O       -0.96622410      -2.04211709       0.55260711
H        2.39450782      -0.95419455       1.50668111
H        1.73303295      -1.38252946      -0.56788667
H        2.08919737       0.32285358      -1.08451732
H        1.11607684       0.21268900       1.23817906
H       -0.73711553       2.08791284      -0.08386003
H       -0.77512497       1.25544024      -1.64744227
H       -2.67142077      -0.09647637      -0.87004279
H       -2.49455886       0.54586941       0.77683071
15
Frame=3 idx=007230 GeodesicLength=0.2525861388551974 rxn_smarts="[O:1]([C:2]([C@@:3]1([H:11])[C:4]([H:12])([H:13])[C:5]([H:14])([H:15])[C:6]1=[O:7])([H:9])[H:10])[H:8]>>[C:2](=[C:3]1[C:4]([H:12])([H:13])[C:5]([H:14])([H:15])[C:6]1=[O:7])([H:9])[H:10].[O:1]([H:8])[H:11]"
O        2.25231942      -0.10973994       1.11196575
C        1.52579834      -0.31448708      -0.42395259
C        0.19022811       0.05491887      -0.04423389
C       -0.78647271       1.11234994      -0.56595362
C       -1.95485681       0.19056865      -0.10956039
C       -0.90640159      -0.87830496       0.22182363
O       -0.95689750      -2.02996225       0.57964810
H        2.39337880      -0.98638934       1.49713022
H        1.73212573      -1.37267863      -0.57357901
H        2.07427225       0.33121142      -1.10234405
H        1.12410547       0.22010139       1.26513315
H       -0.74774088       2.09143055      -0.08814244
H       -0.76987830       1.25457946      -1.64873786
H       -2.66424834      -0.10864640      -0.88169107
H       -2.50573201       0.54504832       0.76249406
15
Frame=4 idx=007230 GeodesicLength=0.33673531269658874 rxn_smarts="[O:1]([C:2]([C@@:3]1([H:11])[C:4]([H:12])([H:13])[C:5]([H:14])([H:15])[C:6]1=[O:7])([H:9])[H:10])[H:8]>>[C:2](=[C:3]1[C:4]([H:12])([H:13])[C:5]([H:14])([H:15])[C:6]1=[O:7])([H:9])[H:10].[O:1]([H:8])[H:11]"
O        2.26563265      -0.13054024       1.12223178
C        1.52129953      -0.30513323      -0.43202080
C        0.19264285       0.06572165      -0.03502179
C       -0.78874808       1.11416257      -0.56711785
C       -1.95584776       0.18814036      -0.11699022
C       -0.90510267      -0.87234547       0.22926139
O       -0.94752288      -2.01754897       0.60599758
H        2.39151803      -1.01787291       1.48757588
H        1.73145975      -1.36284148      -0.57869879
H        2.05882345       0.33895881      -1.12096417
H        1.13202142       0.22737051       1.29267672
H       -0.75820060       2.09486263      -0.09238384
H       -0.76475670       1.25391155      -1.64995055
H       -2.65683713      -0.12075457      -0.89296912
H       -2.51638184       0.54390881       0.74837379
15
Frame=5 idx=007230 GeodesicLength=0.4208818111569814 rxn_smarts="[O:1]([C:2]([C@@:3]1([H:11])[C:4]([H:12])([H:13])[C:5]([H:14])([H:15])[C:6]1=[O:7])([H:9])[H:10])[H:8]>>[C:2](=[C:3]1[C:4]([H:12])([H:13])[C:5]([H:14])([H:15])[C:6]1=[O:7])([H:9])[H:10].[O:1]([H:8])[H:11]"
O        2.27843723      -0.15136881       1.13259537
C        1.51682025      -0.29576761      -0.44017207
C        0.19523587       0.07659314      -0.02609352
C       -0.79090713       1.11599628      -0.56826658
C       -1.95654707       0.18564141      -0.12428098
C       -0.90360025      -0.86641413       0.23641626
O       -0.93809429      -2.00491429       0.63162429
H        2.38896814      -1.04860610       1.47805658
H        1.73108575      -1.35301460      -0.58323307
H        2.04278020       0.34601733      -1.14046380
H        1.13976957       0.23447778       1.32084794
H       -0.76847811       2.09820724      -0.09655243
H       -0.75976435       1.25346310      -1.65107441
H       -2.64919917      -0.13277019      -0.90389087
H       -2.52650665       0.54245945       0.73448729
15
Frame=6 idx=007230 GeodesicLength=0.5050142221252603 rxn_smarts="[O:1]([C:2]([C@@:3]1([H:11])[C:4]([H:12])([H:13])[C:5]([H:14])([H:15])[C:6]1=[O:7])([H:9])[H:10])[H:8]>>[C:2](=[C:3]1[C:4]([H:12])([H:13])[C:5]([H:14])([H:15])[C:6]1=[O:7])([H:9])[H:10].[O:1]([H:8])[H:11]"
O        2.29071622      -0.17218859       1.14309754
C        1.51237174      -0.28639221      -0.44843341
C        0.19801647       0.08752677      -0.01746724
C       -0.79294219       1.11785936      -0.56939151
C       -1.95695030       0.18308111      -0.13142962
C       -0.90188777      -0.86051102       0.24327788
O       -0.92860377      -1.99208738       0.65648615
H        2.38577027      -1.07855950       1.46861129
H        1.73104868      -1.34318058      -0.58717042
H        2.02607198       0.35229937      -1.16093226
H        1.14728811       0.24139705       1.34968909
H       -0.77855784       2.10146633      -0.10062297
H       -0.75490573       1.25325784      -1.65210484
H       -2.64133696      -0.14467280      -0.91445764
H       -2.53609890       0.54070424       0.72084795
15
Frame=7 idx=007230 GeodesicLength=0.5891596651731779 rxn_smarts="[O:1]([C:2]([C@@:3]1([H:11])[C:4]([H:12])([H:13])[C:5]([H:14])([H:15])[C:6]1=[O:7])([H:9])[H:10])[H:8]>>[C:2](=[C:3]1[C:4]([H:12])([H:13])[C:5]([H:14])([H:15])[C:6]1=[O:7])([H:9])[H:10].[O:1]([H:8])[H:11]"
O        2.30247783      -0.19297923       1.15378268
C        1.50796922      -0.27700134      -0.45683052
C        0.20099343       0.09851221      -0.00916871
C       -0.79484964       1.11976005      -0.57048602
C       -1.95705883       0.18047003      -0.13843668
C       -0.89995631      -0.85464253       0.24983258
O       -0.91903530      -1.97910125       0.68056122
H        2.38195289      -1.10771942       1.45927927
H        1.73139745      -1.33332400      -0.59050978
H        2.00862670       0.35772450      -1.18244189
H        1.15452295       0.24812515       1.37923739
H       -0.78842879       2.10464107      -0.10456872
H       -0.75019104       1.25332080      -1.65304126
H       -2.63326229      -0.15643779      -0.92468070
H       -2.54515828       0.53865175       0.70747113
15
Frame=8 idx=007230 GeodesicLength=0.6732642867701703 rxn_smarts="[O:1]([C:2]([C@@:3]1([H:11])[C:4]([H:12])([H:13])[C:5]([H:14])([H:15])[C:6]1=[O:7])([H:9])[H:10])[H:8]>>[C:2](=[C:3]1[C:4]([H:12])([H:13])[C:5]([H:14])([H:15])[C:6]1=[O:7])([H:9])[H:10].[O:1]([H:8])[H:11]"
O        2.31369812      -0.21370248       1.16469131
C        1.50362363      -0.26759624      -0.46539661
C        0.20417663       0.10954231      -0.00122127
C       -0.79662406       1.12170763      -0.57154361
C       -1.95687047       0.17781954      -0.14529984
C       -0.89779865      -0.84880779       0.25606469
O       -0.90937931      -1.96598104       0.70380921
H        2.37756170      -1.13604931       1.45009635
H        1.73218487      -1.32342036      -0.59324162
H        1.99037388       0.36219485      -1.20506583
H        1.16141596       0.25461837       1.40953809
H       -0.79807393       2.10773462      -0.10836540
H       -0.74562920       1.25367397      -1.65387847
H       -2.62498477      -0.16804239      -0.93455887
H       -2.55367440       0.53630832       0.69437188
15
Frame=9 idx=007230 GeodesicLength=0.7573589397180454 rxn_smarts="[O:1]([C:2]([C@@:3]1([H:11])[C:4]([H:12])([H:13])[C:5]([H:14])([H:15])[C:6]1=[O:7])([H:9])[H:10])[H:8]>>[C:2](=[C:3]1[C:4]([H:12])([H:13])[C:5]([H:14])([H:15])[C:6]1=[O:7])([H:9])[H:10].[O:1]([H:8])[H:11]"
O        2.32441044      -0.23428037       1.17586930
C        1.49936656      -0.25814714      -0.47415703
C        0.20757996       0.12060777       0.00635857
C       -0.79825328       1.12372318      -0.57254548
C       -1.95637752       0.17514389      -0.15202731
C       -0.89539825      -0.84301861       0.26195894
O       -0.89960766      -1.95279069       0.72615188
H        2.37262616      -1.16352315       1.44107567
H        1.73347020      -1.31337981      -0.59534946
H        1.97110592       0.36542310      -1.22886339
H        1.16791599       0.26089105       1.44065640
H       -0.80748044       2.11075951      -0.11195958
H       -0.74121265       1.25437157      -1.65459882
H       -2.61649770      -0.17945462      -0.94412599
H       -2.56164774       0.53367432       0.68155629
15
Frame=10 idx=007230 GeodesicLength=0.841425796628245 rxn_smarts="[O:1]([C:2]([C@@:3]1([H:11])[C:4]([H:12])([H:13])[C:5]([H:14])([H:15])[C:6]1=[O:7])([H:9])[H:10])[H:8]>>[C:2](=[C:3]1[C:4]([H:12])([H:13])[C:5]([H:14])([H:15])[C:6]1=[O:7])([H:9])[H:10].[O:1]([H:8])[H:11]"
O        2.33458699      -0.25473503       1.18736457
C        1.49519580      -0.24866508      -0.48315114
C        0.21121288       0.13170520       0.01354257
C       -0.79973931       1.12580852      -0.57349771
C       -1.95558289       0.17245267      -0.15861068
C       -0.89274878      -0.83726940       0.26749801
O       -0.88970482      -1.93953312       0.74759932
H        2.36718900      -1.19013981       1.43226068
H        1.73530460      -1.30322216      -0.59684876
H        1.95083413       0.36745085      -1.25389077
H        1.17394371       0.26691213       1.47261843
H       -0.81663693       2.11371483      -0.11535198
H       -0.73696635       1.25541341      -1.65521651
H       -2.60782408      -0.19065681      -0.95336588
H       -2.56906396       0.53076380       0.66904985
15
Frame=11 idx=007230 GeodesicLength=0.9254871526104325 rxn_smarts="[O:1]([C:2]([C@@:3]1([H:11])[C:4]([H:12])([H:13])[C:5]([H:14])([H:15])[C:6]1=[O:7])([H:9])[H:10])[H:8]>>[C:2](=[C:3]1[C:4]([H:12])([H:13])[C:5]([H:14])([H:15])[C:6]1=[O:7])([H:9])[H:10].[O:1]([H:8])[H:11]"
O        2.34423363      -0.27503073       1.19922162
C        1.49112412      -0.23914612      -0.49241614
C        0.21508716       0.14282128       0.02030595
C       -0.80107447       1.12797313      -0.57439527
C       -1.95448574       0.16976304      -0.16504720
C       -0.88983923      -0.83157245       0.27265950
O       -0.87964814      -1.92625916       0.76810812
H        2.36129450      -1.21587978       1.42367588
H        1.73775134      -1.29291571      -0.59774126
H        1.92945159       0.36815048      -1.28018883
H        1.17942234       0.27268470       1.50547891
H       -0.82552524       2.11660475      -0.11851684
H       -0.73289766       1.25682531      -1.65573413
H       -2.59897968      -0.20161200      -0.96228890
H       -2.57591454       0.52759325       0.65687860
15
Frame=12 idx=007230 GeodesicLength=1.009532122290787 rxn_smarts="[O:1]([C:2]([C@@:3]1([H:11])[C:4]([H:12])([H:13])[C:5]([H:14])([H:15])[C:6]1=[O:7])([H:9])[H:10])[H:8]>>[C:2](=[C:3]1[C:4]([H:12])([H:13])[C:5]([H:14])([H:15])[C:6]1=[O:7])([H:9])[H:10].[O:1]([H:8])[H:11]"
O        2.35334415      -0.29513959       1.21148414
C        1.48716154      -0.22958631      -0.50199282
C        0.21921493       0.15394992       0.02662428
C       -0.80225380       1.13022684      -0.57523694
C       -1.95308333       0.16708876      -0.17133257
C       -0.88665818      -0.82593013       0.27742456
O       -0.86941206      -1.91300246       0.78763907
H        2.35498393      -1.24073714       1.41534364
H        1.74086861      -1.28241265      -0.59803345
H        1.90687093       0.36740095      -1.30778731
H        1.18427325       0.27819842       1.53928651
H       -0.83412983       2.11943624      -0.12143648
H       -0.72901714       1.25862594      -1.65615593
H       -2.58997832      -0.21229262      -0.97089323
H       -2.58218469       0.52417385       0.64506653
15
Frame=13 idx=007230 GeodesicLength=1.0935523866690777 rxn_smarts="[O:1]([C:2]([C@@:3]1([H:11])[C:4]([H:12])([H:13])[C:5]([H:14])([H:15])[C:6]1=[O:7])([H:9])[H:10])[H:8]>>[C:2](=[C:3]1[C:4]([H:12])([H:13])[C:5]([H:14])([H:15])[C:6]1=[O:7])([H:9])[H:10].[O:1]([H:8])[H:11]"
O        2.36191057      -0.31502364       1.22420032
C        1.48331831      -0.21997848      -0.51193048
C        0.22361073       0.16508364       0.03247004
C       -0.80327033       1.13258026      -0.57601994
C       -1.95137428       0.16444755      -0.17746327
C       -0.88319265      -0.82034676       0.28176727
O       -0.85896801      -1.89980387       0.80614195
H        2.34831366      -1.26468546       1.40728130
H        1.74472426      -1.27166266      -0.59772820
H        1.88298855       0.36504741      -1.33670633
H        1.18840446       0.28342971       1.57409715
H       -0.84242982       2.12221547      -0.12408924
H       -0.72533586       1.26083723      -1.65648330
H       -2.58084170      -0.22266077      -0.97917954
H       -2.58785789       0.52052037       0.63364227
15
Frame=14 idx=007230 GeodesicLength=1.1775978083453205 rxn_smarts="[O:1]([C:2]([C@@:3]1([H:11])[C:4]([H:12])([H:13])[C:5]([H:14])([H:15])[C:6]1=[O:7])([H:9])[H:10])[H:8]>>[C:2](=[C:3]1[C:4]([H:12])([H:13])[C:5]([H:14])([H:15])[C:6]1=[O:7])([H:9])[H:10].[O:1]([H:8])[H:11]"
O        2.36995966      -0.33465693       1.23741617
C        1.47960824      -0.21030600      -0.52227484
C        0.22828854       0.17621184       0.03781608
C       -0.80412001       1.13504683      -0.57674293
C       -1.94935846       0.16186052      -0.18343597
C       -0.87942616      -0.81483430       0.28566043
O       -0.84828223      -1.88671713       0.82355968
H        2.34132251      -1.28771443       1.39950596
H        1.74939709      -1.26060158      -0.59683505
H        1.85767076       0.36090895      -1.36694524
H        1.19173321       0.28838902       1.60997325
H       -0.85041119       2.12495314      -0.12645269
H       -0.72186585       1.26348379      -1.65672060
H       -2.57159340      -0.23267754      -0.98715881
H       -2.59292269       0.51665379       0.62263456
15
Frame=15 idx=007230 GeodesicLength=1.2616514276806874 rxn_smarts="[O:1]([C:2]([C@@:3]1([H:11])[C:4]([H:12])([H:13])[C:5]([H:14])([H:15])[C:6]1=[O:7])([H:9])[H:10])[H:8]>>[C:2](=[C:3]1[C:4]([H:12])([H:13])[C:5]([H:14])([H:15])[C:6]1=[O:7])([H:9])[H:10].[O:1]([H:8])[H:11]"
O        2.37749284      -0.35399911       1.25116332
C        1.47603395      -0.20056457      -0.53308652
C        0.23326251       0.18732752       0.04263463
C       -0.80479677       1.13763979      -0.57740323
C       -1.94703357       0.15934559      -0.18924736
C       -0.87534664      -0.80939389       0.28908006
O       -0.83732515      -1.87378204       0.83983787
H        2.33406529      -1.30979225       1.39202510
H        1.75495540      -1.24916311      -0.59536073
H        1.83081355       0.35480384      -1.39847837
H        1.19416381       0.29304734       1.64697022
H       -0.85805402       2.12765898      -0.12850350
H       -0.71861745       1.26659046      -1.65686952
H       -2.56225168      -0.24230763      -0.99483163
H       -2.59736208       0.51258909       0.61206966
15
Frame=16 idx=007230 GeodesicLength=1.3457132758829282 rxn_smarts="[O:1]([C:2]([C@@:3]1([H:11])[C:4]([H:12])([H:13])[C:5]([H:14])([H:15])[C:6]1=[O:7])([H:9])[H:10])[H:8]>>[C:2](=[C:3]1[C:4]([H:12])([H:13])[C:5]([H:14])([H:15])[C:6]1=[O:7])([H:9])[H:10].[O:1]([H:8])[H:11]"
O        2.38452021      -0.37300650       1.26547026
C        1.47259323      -0.19075214      -0.54443285
C        0.23854692       0.19842067       0.04689916
C       -0.80529362       1.14037506      -0.57799612
C       -1.94439806       0.15692331      -0.19489836
C       -0.87094297      -0.80403065       0.29200200
O       -0.82606697      -1.86104475       0.85492408
H        2.32660697      -1.33088021       1.38483895
H        1.76147444      -1.23727104      -0.59331646
H        1.80229206       0.34652000      -1.43125981
H        1.19559949       0.29737936       1.68515066
H       -0.86533654       2.13034538      -0.13021037
H       -0.71559824       1.27019055      -1.65692932
H       -2.55283380      -0.25151248      -1.00220975
H       -2.60116313       0.50834343       0.60196792
