13
Frame=0 idx=007480 GeodesicLength=0.0 rxn_smarts="[C:1]([O:2][c:3]1[c:4]([H:11])[n:5][c:6]([H:12])[n:7]1[H:13])([H:8])([H:9])[H:10]>>[C-:1]([O+:2]=[C:3]1[C:4]([H:9])([H:11])[N:5]=[C:6]([H:12])[N:7]1[H:13])([H:8])[H:10]"
C       -2.15193360      -0.15340082      -0.24657229
O       -1.04014946      -1.07160969      -0.14122250
C        0.07551451      -0.46905182      -0.18064510
C        0.17349599       0.96654715      -0.21229075
N        1.47325749       1.27492701       0.31481816
C        2.02252739       0.15639623       0.59502343
N        1.25144173      -0.96053068       0.28896339
H       -2.19742961       0.24509214      -1.26257338
H       -0.90813773       1.09668001       0.35343092
H       -3.03980957      -0.73822237      -0.01814274
H       -0.07256162       1.51920925      -1.11757896
H        3.01188805       0.03369134       1.01481508
H        1.40189647      -1.89972780       0.61197470
13
Frame=1 idx=007480 GeodesicLength=0.09362574865318724 rxn_smarts="[C:1]([O:2][c:3]1[c:4]([H:11])[n:5][c:6]([H:12])[n:7]1[H:13])([H:8])([H:9])[H:10]>>[C-:1]([O+:2]=[C:3]1[C:4]([H:9])([H:11])[N:5]=[C:6]([H:12])[N:7]1[H:13])([H:8])[H:10]"
C       -2.15353894      -0.15485675      -0.24260553
O       -1.03962240      -1.07006069      -0.13815132
C        0.07829922      -0.46830682      -0.18027281
C        0.17558490       0.96737566      -0.20500823
N        1.47572601       1.27406625       0.31961645
C        2.02989648       0.15468997       0.58829772
N        1.24842051      -0.95980346       0.30442071
H       -2.19606512       0.26771939      -1.24924436
H       -0.94079752       1.09578126       0.35863109
H       -3.03888801      -0.75866662      -0.05608174
H       -0.06373798       1.51677156      -1.11457404
H        3.03392571       0.02963868       0.97083402
H        1.39079713      -1.89434845       0.64413801
13
Frame=2 idx=007480 GeodesicLength=0.18724132471592136 rxn_smarts="[C:1]([O:2][c:3]1[c:4]([H:11])[n:5][c:6]([H:12])[n:7]1[H:13])([H:8])([H:9])[H:10]>>[C-:1]([O+:2]=[C:3]1[C:4]([H:9])([H:11])[N:5]=[C:6]([H:12])[N:7]1[H:13])([H:8])[H:10]"
C       -2.15523479      -0.15658026      -0.23924990
O       -1.03913573      -1.06846470      -0.13378388
C        0.08100737      -0.46751073      -0.17913619
C        0.17781113       0.96820588      -0.19742440
N        1.47878120       1.27305028       0.32375512
C        2.03758422       0.15278067       0.58081710
N        1.24554698      -0.95884985       0.31987551
H       -2.19417635       0.28934531      -1.23620478
H       -0.97417469       1.09448984       0.36503506
H       -3.03691467      -0.77779843      -0.09547655
H       -0.05566755       1.51458694      -1.11078790
H        3.05467901       0.02495918       0.92595754
H        1.37989385      -1.88821412       0.67662328
13
Frame=3 idx=007480 GeodesicLength=0.2808421152753266 rxn_smarts="[C:1]([O:2][c:3]1[c:4]([H:11])[n:5][c:6]([H:12])[n:7]1[H:13])([H:8])([H:9])[H:10]>>[C-:1]([O+:2]=[C:3]1[C:4]([H:9])([H:11])[N:5]=[C:6]([H:12])[N:7]1[H:13])([H:8])[H:10]"
C       -2.15701576      -0.15848157      -0.23623517
O       -1.03870976      -1.06676844      -0.12797304
C        0.08362848      -0.46666518      -0.17740917
C        0.18026314       0.96902798      -0.18991362
N        1.48262286       1.27186425       0.32654788
C        2.04549786       0.15066021       0.57257762
N        1.24298752      -0.95769127       0.33479358
H       -2.19197456       0.31000605      -1.22323754
H       -1.00817891       1.09286820       0.37257510
H       -3.03377634      -0.79556319      -0.13572708
H       -0.04841505       1.51252113      -1.10665449
H        3.07350983       0.01970665       0.88223547
H        1.36956068      -1.88148482       0.70842046
13
Frame=4 idx=007480 GeodesicLength=0.3744205331003499 rxn_smarts="[C:1]([O:2][c:3]1[c:4]([H:11])[n:5][c:6]([H:12])[n:7]1[H:13])([H:8])([H:9])[H:10]>>[C-:1]([O+:2]=[C:3]1[C:4]([H:9])([H:11])[N:5]=[C:6]([H:12])[N:7]1[H:13])([H:8])[H:10]"
C       -2.15889584      -0.16049340      -0.23340416
O       -1.03838128      -1.06492176      -0.12066169
C        0.08613374      -0.46576719      -0.17520397
C        0.18299371       0.96983946      -0.18274267
N        1.48734377       1.27051451       0.32756047
C        2.05353598       0.14833180       0.56367380
N        1.24082262      -0.95635634       0.34887214
H       -2.18961330       0.32977985      -1.21021442
H       -1.04280874       1.09094685       0.38123551
H       -3.02940443      -0.81196478      -0.17644173
H       -0.04201087       1.51047202      -1.10250032
H        3.09026168       0.01394345       0.84094066
H        1.36002297      -1.87432448       0.73888639
13
Frame=5 idx=007480 GeodesicLength=0.46799486821752806 rxn_smarts="[C:1]([O:2][c:3]1[c:4]([H:11])[n:5][c:6]([H:12])[n:7]1[H:13])([H:8])([H:9])[H:10]>>[C-:1]([O+:2]=[C:3]1[C:4]([H:9])([H:11])[N:5]=[C:6]([H:12])[N:7]1[H:13])([H:8])[H:10]"
C       -2.16089912      -0.16261763      -0.23095198
O       -1.03818810      -1.06290163      -0.11190564
C        0.08848217      -0.46479517      -0.17235139
C        0.18598767       0.97065978      -0.17577926
N        1.49279344       1.26904391       0.32717386
C        2.06153303       0.14583128       0.55465493
N        1.23893745      -0.95483025       0.36251094
H       -2.18700156       0.34876385      -1.19732395
H       -1.07831341       1.08868839       0.39107595
H       -3.02373615      -0.82712108      -0.21788734
H       -0.03631261       1.50841699      -1.09826838
H        3.10556886       0.00761271       0.80063319
H        1.35114833      -1.86675116       0.76841908
13
Frame=6 idx=007480 GeodesicLength=0.5615437935263737 rxn_smarts="[C:1]([O:2][c:3]1[c:4]([H:11])[n:5][c:6]([H:12])[n:7]1[H:13])([H:8])([H:9])[H:10]>>[C-:1]([O+:2]=[C:3]1[C:4]([H:9])([H:11])[N:5]=[C:6]([H:12])[N:7]1[H:13])([H:8])[H:10]"
C       -2.16302910      -0.16481586      -0.22874211
O       -1.03814550      -1.06066301      -0.10176147
C        0.09066323      -0.46374360      -0.16900217
C        0.18928581       0.97149184      -0.16925535
N        1.49902999       1.26745040       0.32503588
C        2.06952991       0.14314322       0.54528851
N        1.23737374      -0.95314233       0.37548225
H       -2.18429406       0.36709339      -1.18439953
H       -1.11471246       1.08605163       0.40216538
H       -3.01668533      -0.84107404      -0.25977221
H       -0.03137043       1.50631450      -1.09420756
H        3.11931789       0.00076588       0.76248874
H        1.34303632      -1.85887203       0.79667965
13
Frame=7 idx=007480 GeodesicLength=0.655085236303385 rxn_smarts="[C:1]([O:2][c:3]1[c:4]([H:11])[n:5][c:6]([H:12])[n:7]1[H:13])([H:8])([H:9])[H:10]>>[C-:1]([O+:2]=[C:3]1[C:4]([H:9])([H:11])[N:5]=[C:6]([H:12])[N:7]1[H:13])([H:8])[H:10]"
C       -2.16528808      -0.16710171      -0.22686963
O       -1.03825913      -1.05818637      -0.09036327
C        0.09266637      -0.46259581      -0.16511298
C        0.19289411       0.97235026      -0.16313471
N        1.50596865       1.26574637       0.32132817
C        2.07750223       0.14026966       0.53568831
N        1.23605012      -0.95128262       0.38802635
H       -2.18148454       0.38492347      -1.17146446
H       -1.15220264       1.08294328       0.41461343
H       -3.00814327      -0.85393280      -0.30225231
H       -0.02710344       1.50416711      -1.09030904
H        3.13184778      -0.00663799       0.72582623
H        1.33555184      -1.85066288       0.82402391
13
Frame=8 idx=007480 GeodesicLength=0.7485946292343352 rxn_smarts="[C:1]([O:2][c:3]1[c:4]([H:11])[n:5][c:6]([H:12])[n:7]1[H:13])([H:8])([H:9])[H:10]>>[C-:1]([O+:2]=[C:3]1[C:4]([H:9])([H:11])[N:5]=[C:6]([H:12])[N:7]1[H:13])([H:8])[H:10]"
C       -2.16767113      -0.16948311      -0.22534466
O       -1.03852946      -1.05544850      -0.07785073
C        0.09449203      -0.46133781      -0.16072757
C        0.19682870       0.97324915      -0.15748170
N        1.51358270       1.26392950       0.31602667
C        2.08546651       0.13719858       0.52578638
N        1.23493195      -0.94924802       0.40021364
H       -2.17863139       0.40240871      -1.15843416
H       -1.19091941       1.07924079       0.42854651
H       -2.99799853      -0.86576062      -0.34534841
H       -0.02348581       1.50198067      -1.08665104
H        3.14331395      -0.01462204       0.69064167
H        1.32861991      -1.84210729       0.85062339
13
Frame=9 idx=007480 GeodesicLength=0.8421107498079525 rxn_smarts="[C:1]([O:2][c:3]1[c:4]([H:11])[n:5][c:6]([H:12])[n:7]1[H:13])([H:8])([H:9])[H:10]>>[C-:1]([O+:2]=[C:3]1[C:4]([H:9])([H:11])[N:5]=[C:6]([H:12])[N:7]1[H:13])([H:8])[H:10]"
C       -2.17015677      -0.17198958      -0.22425703
O       -1.03894261      -1.05243882      -0.06438123
C        0.09614605      -0.45995335      -0.15579569
C        0.20110764       0.97419405      -0.15225043
N        1.52180394       1.26199060       0.30931739
C        2.09340479       0.13392477       0.51568180
N        1.23393426      -0.94700727       0.41230920
H       -2.17571779       0.41973354      -1.14526204
H       -1.23109346       1.07479577       0.44410123
H       -2.98606577      -0.87663786      -0.38929833
H       -0.02041978       1.49974106      -1.08320574
H        3.15392571      -0.02325308       0.65611802
H        1.32207378      -1.83309984       0.87692284
13
Frame=10 idx=007480 GeodesicLength=0.9355947530667127 rxn_smarts="[C:1]([O:2][c:3]1[c:4]([H:11])[n:5][c:6]([H:12])[n:7]1[H:13])([H:8])([H:9])[H:10]>>[C-:1]([O+:2]=[C:3]1[C:4]([H:9])([H:11])[N:5]=[C:6]([H:12])[N:7]1[H:13])([H:8])[H:10]"
C       -2.17273346      -0.17462318      -0.22354159
O       -1.03948792      -1.04913770      -0.05009886
C        0.09764124      -0.45842870      -0.15042716
C        0.20576600       0.97519878      -0.14762108
N        1.53065560       1.25991959       0.30098133
C        2.10133380       0.13043690       0.50526309
N        1.23306408      -0.94455393       0.42424361
H       -2.17287518       0.43703773      -1.13175838
H       -1.27283889       1.06944399       0.46140085
H       -2.97224863      -0.88653421      -0.43396001
H       -0.01789761       1.49743177      -1.08016975
H        3.16369899      -0.03252842       0.62285278
H        1.31592198      -1.82366263       0.90283517
13
Frame=11 idx=007480 GeodesicLength=1.0290565395311684 rxn_smarts="[C:1]([O:2][c:3]1[c:4]([H:11])[n:5][c:6]([H:12])[n:7]1[H:13])([H:8])([H:9])[H:10]>>[C-:1]([O+:2]=[C:3]1[C:4]([H:9])([H:11])[N:5]=[C:6]([H:12])[N:7]1[H:13])([H:8])[H:10]"
C       -2.17537654      -0.17740576      -0.22320806
O       -1.04014317      -1.04553870      -0.03517704
C        0.09899471      -0.45674882      -0.14465259
C        0.21083465       0.97626731      -0.14367332
N        1.54012122       1.25769490       0.29098179
C        2.10925056       0.12672540       0.49453297
N        1.23228263      -0.94185740       0.43612509
H       -2.17016557       0.45450102      -1.11775178
H       -1.31636057       1.06296630       0.48060090
H       -2.95638329      -0.89542431      -0.47942073
H       -0.01586159       1.49502141      -1.07763824
H        3.17273391      -0.04248493       0.59070372
H        1.31007305      -1.81371642       0.92857729
13
Frame=12 idx=007480 GeodesicLength=1.1225024615371317 rxn_smarts="[C:1]([O:2][c:3]1[c:4]([H:11])[n:5][c:6]([H:12])[n:7]1[H:13])([H:8])([H:9])[H:10]>>[C-:1]([O+:2]=[C:3]1[C:4]([H:9])([H:11])[N:5]=[C:6]([H:12])[N:7]1[H:13])([H:8])[H:10]"
C       -2.17806069      -0.18035590      -0.22325093
O       -1.04088178      -1.04164073      -0.01979873
C        0.10022951      -0.45489846      -0.13851722
C        0.21634830       0.97740108      -0.14052534
N        1.55019553       1.25528867       0.27922459
C        2.11715391       0.12278239       0.48348958
N        1.23156287      -0.93888023       0.44803625
H       -2.16767125       0.47230238      -1.10302371
H       -1.36187641       1.05509423       0.50186710
H       -2.93830843      -0.90322298      -0.52573827
H       -0.01425513       1.49246286      -1.07574785
H        3.18110703      -0.05315167       0.55967187
H        1.30445652      -1.80318165       0.95431267
13
Frame=13 idx=007480 GeodesicLength=1.2159179046344117 rxn_smarts="[C:1]([O:2][c:3]1[c:4]([H:11])[n:5][c:6]([H:12])[n:7]1[H:13])([H:8])([H:9])[H:10]>>[C-:1]([O+:2]=[C:3]1[C:4]([H:9])([H:11])[N:5]=[C:6]([H:12])[N:7]1[H:13])([H:8])[H:10]"
C       -2.18074929      -0.18350613      -0.22368222
O       -1.04166738      -1.03747251      -0.00418390
C        0.10137650      -0.45286333      -0.13205771
C        0.22234380       0.97859943      -0.13828508
N        1.56087743       1.25266882       0.26562659
C        2.12504642       0.11860167       0.47213825
N        1.23087202      -0.93556996       0.46010209
H       -2.16546876       0.49063949      -1.08732575
H       -1.40962223       1.04547094       0.52541826
H       -2.91784578      -0.90979071      -0.57305124
H       -0.01301710       1.48971203      -1.07462853
H        3.18889224      -0.06458134       0.52959572
H        1.29896211      -1.79190839       0.98033351
13
Frame=14 idx=007480 GeodesicLength=1.3093198871674863 rxn_smarts="[C:1]([O:2][c:3]1[c:4]([H:11])[n:5][c:6]([H:12])[n:7]1[H:13])([H:8])([H:9])[H:10]>>[C-:1]([O+:2]=[C:3]1[C:4]([H:9])([H:11])[N:5]=[C:6]([H:12])[N:7]1[H:13])([H:8])[H:10]"
C       -2.18341244      -0.18686969      -0.22448324
O       -1.04246218      -1.03305246       0.01145609
C        0.10246995      -0.45062930      -0.12532967
C        0.22886530       0.97985288      -0.13713236
N        1.57217649       1.24978938       0.25001198
C        2.13292890       0.11418105       0.46048824
N        1.23019320      -0.93186529       0.47240372
H       -2.16366338       0.50971173      -1.07032666
H       -1.45987011       1.03367815       0.55145827
H       -2.89481482      -0.91489895      -0.62143463
H       -0.01208314       1.48667459      -1.07448837
H        3.19614098      -0.07679856       0.50058216
H        1.29353126      -1.77977351       1.00679446
13
Frame=15 idx=007480 GeodesicLength=1.4027054793507996 rxn_smarts="[C:1]([O:2][c:3]1[c:4]([H:11])[n:5][c:6]([H:12])[n:7]1[H:13])([H:8])([H:9])[H:10]>>[C-:1]([O+:2]=[C:3]1[C:4]([H:9])([H:11])[N:5]=[C:6]([H:12])[N:7]1[H:13])([H:8])[H:10]"
C       -2.18601326      -0.19047114      -0.22564741
O       -1.04322273      -1.02843740       0.02686401
C        0.10355124      -0.44818535      -0.11838866
C        0.23596438       0.98114803      -0.13725725
N        1.58411541       1.24659758       0.23218894
C        2.14081058       0.10952286       0.44854888
N        1.22950451      -0.92768606       0.48505966
H       -2.16235925       0.52974258      -1.05163687
H       -1.51291086       1.01916443       0.58025910
H       -2.86902624      -0.91823001      -0.67104599
H       -0.01138386       1.48324962      -1.07555502
H        3.20290794      -0.08984452       0.47262825
H        1.28806214      -1.76657063       1.03398237
13
Frame=16 idx=007480 GeodesicLength=1.4960836953237846 rxn_smarts="[C:1]([O:2][c:3]1[c:4]([H:11])[n:5][c:6]([H:12])[n:7]1[H:13])([H:8])([H:9])[H:10]>>[C-:1]([O+:2]=[C:3]1[C:4]([H:9])([H:11])[N:5]=[C:6]([H:12])[N:7]1[H:13])([H:8])[H:10]"
C       -2.18850797      -0.19432221      -0.22716612
O       -1.04389263      -1.02369291       0.04176010
C        0.10466976      -0.44551932      -0.11129392
C        0.24369903       0.98246131      -0.13890169
N        1.59671969       1.24302073       0.21190593
C        2.14869729       0.10463473       0.43634538
N        1.22878590      -0.92292841       0.49819978
H       -2.16166804       0.55096474      -1.03077463
H       -1.56908270       1.00124191       0.61209785
H       -2.84027530      -0.91933467      -0.72203629
H       -0.01084159       1.47929113      -1.07811583
H        3.20923573      -0.10375714       0.44580496
H        1.28246085      -1.75205990       1.06217450
