18
Frame=0 idx=000735 GeodesicLength=0.0 rxn_smarts="[C:1]([C:2]([C:3]([C:4]([O:5][C:6]([H:16])([H:17])[H:18])([H:14])[H:15])([H:12])[H:13])([H:10])[H:11])([H:7])([H:8])[H:9]>>[C:1]([H:7])([H:8])([H:9])[H:12].[C:2](=[C:3]([C:4]([O:5][C:6]([H:16])([H:17])[H:18])([H:14])[H:15])[H:13])([H:10])[H:11]"
C       -2.21126626       0.88191312       0.11817507
C       -1.43130614      -0.80386263      -0.65855826
C       -0.31752861      -1.36543170       0.07115412
C        1.04155079      -0.82662044      -0.12582895
O        1.22614072       0.40934803       0.58445761
C        2.49833695       0.95924194       0.38462916
H       -2.68232992       0.72692609       1.09030680
H       -2.95953967       1.04759165      -0.65292275
H       -1.48232514       1.69154030       0.14726944
H       -1.20279458      -0.32544250      -1.60592717
H       -2.36936933      -1.34349096      -0.63045515
H       -1.15216183      -0.16489238       0.36695235
H       -0.52412207      -2.06158421       0.87125657
H        1.79243770      -1.54877386       0.22098265
H        1.24739573      -0.62787522      -1.19117725
H        2.55073602       1.89189427       0.94592384
H        2.68601512       1.17373216      -0.67722384
H        3.29013057       0.28578628       0.74098574
18
Frame=1 idx=000735 GeodesicLength=0.11743374160933043 rxn_smarts="[C:1]([C:2]([C:3]([C:4]([O:5][C:6]([H:16])([H:17])[H:18])([H:14])[H:15])([H:12])[H:13])([H:10])[H:11])([H:7])([H:8])[H:9]>>[C:1]([H:7])([H:8])([H:9])[H:12].[C:2](=[C:3]([C:4]([O:5][C:6]([H:16])([H:17])[H:18])([H:14])[H:15])[H:13])([H:10])[H:11]"
C       -2.23145359       0.88488796       0.10248384
C       -1.43653271      -0.81858943      -0.64941851
C       -0.31590842      -1.34616537       0.09070575
C        1.04174682      -0.81233890      -0.13362253
O        1.25106372       0.39920923       0.60743992
C        2.52221133       0.94702227       0.39452771
H       -2.72713118       0.72704096       1.06190030
H       -2.96431214       1.04935156      -0.68408601
H       -1.52162388       1.71069201       0.14823344
H       -1.21716662      -0.36209157      -1.61010252
H       -2.35975532      -1.38380661      -0.61852294
H       -1.14755768      -0.13416047       0.38764337
H       -0.50739015      -2.03691087       0.89960411
H        1.79511278      -1.55079369       0.17171768
H        1.22257876      -0.58583946      -1.19774194
H        2.59386624       1.86174546       0.98249411
H        2.68498736       1.19282105      -0.66459494
H        3.31726469       0.25792589       0.71133916
18
Frame=2 idx=000735 GeodesicLength=0.234042459189712 rxn_smarts="[C:1]([C:2]([C:3]([C:4]([O:5][C:6]([H:16])([H:17])[H:18])([H:14])[H:15])([H:12])[H:13])([H:10])[H:11])([H:7])([H:8])[H:9]>>[C:1]([H:7])([H:8])([H:9])[H:12].[C:2](=[C:3]([C:4]([O:5][C:6]([H:16])([H:17])[H:18])([H:14])[H:15])[H:13])([H:10])[H:11]"
C       -2.25182952       0.88725915       0.08675441
C       -1.44168344      -0.83350097      -0.64034347
C       -0.31460648      -1.32555613       0.11025926
C        1.04136054      -0.79702795      -0.14087054
O        1.27663700       0.38880576       0.62982574
C        2.54687076       0.93404893       0.40395213
H       -2.77192763       0.72499240       1.03250633
H       -2.96888157       1.05042183      -0.71507676
H       -1.56320689       1.72985872       0.14962049
H       -1.23080277      -0.39895554      -1.61345085
H       -2.34875440      -1.42483795      -0.60642951
H       -1.14296365      -0.10156923       0.40810498
H       -0.49083437      -2.01129317       0.92725115
H        1.79534611      -1.55113155       0.12270343
H        1.19749050      -0.54249874      -1.20233232
H        2.63893057       1.82968784       1.01778498
H        2.68523280       1.21139689      -0.65077992
H        3.34362245       0.22989972       0.68052047
18
Frame=3 idx=000735 GeodesicLength=0.35002070425301945 rxn_smarts="[C:1]([C:2]([C:3]([C:4]([O:5][C:6]([H:16])([H:17])[H:18])([H:14])[H:15])([H:12])[H:13])([H:10])[H:11])([H:7])([H:8])[H:9]>>[C:1]([H:7])([H:8])([H:9])[H:12].[C:2](=[C:3]([C:4]([O:5][C:6]([H:16])([H:17])[H:18])([H:14])[H:15])[H:13])([H:10])[H:11]"
C       -2.27234124       0.88898848       0.07108234
C       -1.44668093      -0.84859262      -0.63142055
C       -0.31369278      -1.30349886       0.12980486
C        1.04037161      -0.78067138      -0.14750573
O        1.30275127       0.37821618       0.65150646
C        2.57224456       0.92030139       0.41282831
H       -2.81652927       0.72067112       1.00222342
H       -2.97328727       1.05075384      -0.74570923
H       -1.60720997       1.74895155       0.15143007
H       -1.24349840      -0.43581308      -1.61599722
H       -2.33617716      -1.46659258      -0.59438860
H       -1.13835833      -0.06695301       0.42841119
H       -0.47456513      -1.98470856       0.95413904
H        1.79304321      -1.54979099       0.07411495
H        1.17221029      -0.49791523      -1.20490940
H        2.68575452       1.79579184       1.05153033
H        2.68693249       1.22919824      -0.63590144
H        3.36903256       0.20166367       0.64876120
18
Frame=4 idx=000735 GeodesicLength=0.4655732680814397 rxn_smarts="[C:1]([C:2]([C:3]([C:4]([O:5][C:6]([H:16])([H:17])[H:18])([H:14])[H:15])([H:12])[H:13])([H:10])[H:11])([H:7])([H:8])[H:9]>>[C:1]([H:7])([H:8])([H:9])[H:12].[C:2](=[C:3]([C:4]([O:5][C:6]([H:16])([H:17])[H:18])([H:14])[H:15])[H:13])([H:10])[H:11]"
C       -2.29288958       0.89006366       0.05550682
C       -1.45144196      -0.86391694      -0.62272373
C       -0.31325167      -1.27988394       0.14935855
C        1.03874250      -0.76324904      -0.15345178
O        1.32929920       0.36748546       0.67247676
C        2.59823491       0.90571697       0.42111810
H       -2.86069410       0.71406142       0.97112581
H       -2.97754821       1.05027988      -0.77585443
H       -1.65370868       1.76787841       0.15352376
H       -1.25507120      -0.47254853      -1.61779844
H       -2.32180933      -1.50912108      -0.58252539
H       -1.13370599      -0.03010406       0.44862456
H       -0.45868961      -1.95709408       0.98026906
H        1.78807010      -1.54678833       0.02607561
H        1.14680855      -0.45211481      -1.20539869
H        2.73421560       1.75993316       1.08370276
H        2.69004760       1.24623154      -0.62001588
H        3.39339189       0.17317031       0.61598655
18
Frame=5 idx=000735 GeodesicLength=0.5809465530191058 rxn_smarts="[C:1]([C:2]([C:3]([C:4]([O:5][C:6]([H:16])([H:17])[H:18])([H:14])[H:15])([H:12])[H:13])([H:10])[H:11])([H:7])([H:8])[H:9]>>[C:1]([H:7])([H:8])([H:9])[H:12].[C:2](=[C:3]([C:4]([O:5][C:6]([H:16])([H:17])[H:18])([H:14])[H:15])[H:13])([H:10])[H:11]"
C       -2.31334822       0.89044866       0.04018667
C       -1.45587341      -0.87948573      -0.61441875
C       -0.31343215      -1.25462124       0.16886187
C        1.03645735      -0.74483139      -0.15864854
O        1.35616020       0.35661151       0.69264635
C        2.62470666       0.89027765       0.42873548
H       -2.90413896       0.70504056       0.93938030
H       -2.98164479       1.04902256      -0.80527465
H       -1.70275854       1.78650776       0.15595958
H       -1.26528821      -0.50886586      -1.61895439
H       -2.30542825      -1.55240672      -0.57113167
H       -1.12898038       0.00917335       0.46887142
H       -0.44341573      -1.92841669       1.00555452
H        1.78040598      -1.54214512      -0.02111011
H        1.12142326      -0.40529105      -1.20377179
H        2.78400965       1.72233815       1.11392440
H        2.69465936       1.26219822      -0.60329968
H        3.41648619       0.14444539       0.58248900
18
Frame=6 idx=000735 GeodesicLength=0.6961710435898714 rxn_smarts="[C:1]([C:2]([C:3]([C:4]([O:5][C:6]([H:16])([H:17])[H:18])([H:14])[H:15])([H:12])[H:13])([H:10])[H:11])([H:7])([H:8])[H:9]>>[C:1]([H:7])([H:8])([H:9])[H:12].[C:2](=[C:3]([C:4]([O:5][C:6]([H:16])([H:17])[H:18])([H:14])[H:15])[H:13])([H:10])[H:11]"
C       -2.33350817       0.89017378       0.02516977
C       -1.45990408      -0.89540722      -0.60660631
C       -0.31437419      -1.22764168       0.18831805
C        1.03347870      -0.72544348      -0.16301846
O        1.38316397       0.34559431       0.71203666
C        2.65145620       0.87399203       0.43563107
H       -2.94650612       0.69369867       0.90710210
H       -2.98549055       1.04700449      -0.83384973
H       -1.75423714       1.80467252       0.15857208
H       -1.27399512      -0.54469706      -1.61958580
H       -2.28679993      -1.59650245      -0.56028644
H       -1.12414050       0.05104656       0.48920354
H       -0.42889281      -1.89863417       1.03000395
H        1.76997822      -1.53589493      -0.06724277
H        1.09612323      -0.35754268      -1.19998632
H        2.83490466       1.68281713       1.14228058
H        2.70055328       1.27723417      -0.58580572
H        3.43819035       0.11553001       0.54806373
18
Frame=7 idx=000735 GeodesicLength=0.8113715454411948 rxn_smarts="[C:1]([C:2]([C:3]([C:4]([O:5][C:6]([H:16])([H:17])[H:18])([H:14])[H:15])([H:12])[H:13])([H:10])[H:11])([H:7])([H:8])[H:9]>>[C:1]([H:7])([H:8])([H:9])[H:12].[C:2](=[C:3]([C:4]([O:5][C:6]([H:16])([H:17])[H:18])([H:14])[H:15])[H:13])([H:10])[H:11]"
C       -2.35314609       0.88924346       0.01060927
C       -1.46344766      -0.91176422      -0.59946795
C       -0.31626884      -1.19886226       0.20765290
C        1.02977542      -0.70517344      -0.16650522
O        1.41013379       0.33441028       0.73058231
C        2.67827464       0.85687124       0.44174286
H       -2.98746928       0.68001280       0.87447486
H       -2.98897218       1.04430966      -0.86136369
H       -1.80804924       1.82216920       0.16141692
H       -1.28100827      -0.57982088      -1.61985948
H       -2.26567703      -1.64143358      -0.55021185
H       -1.11913140       0.09570987       0.50973438
H       -0.41535409      -1.86768016       1.05355599
H        1.75678804      -1.52809708      -0.11201025
H        1.07104222      -0.30910478      -1.19405708
H        2.88655861       1.64151877       1.16849843
H        2.70766808       1.29116499      -0.56769181
H        3.45828327       0.08652613       0.51289943
18
Frame=8 idx=000735 GeodesicLength=0.9265200258550774 rxn_smarts="[C:1]([C:2]([C:3]([C:4]([O:5][C:6]([H:16])([H:17])[H:18])([H:14])[H:15])([H:12])[H:13])([H:10])[H:11])([H:7])([H:8])[H:9]>>[C:1]([H:7])([H:8])([H:9])[H:12].[C:2](=[C:3]([C:4]([O:5][C:6]([H:16])([H:17])[H:18])([H:14])[H:15])[H:13])([H:10])[H:11]"
C       -2.37202004       0.88771411      -0.00339576
C       -1.46640671      -0.92866405      -0.59311295
C       -0.31929507      -1.16824089       0.22678001
C        1.02532367      -0.68411022      -0.16908654
O        1.43687524       0.32298756       0.74827751
C        2.70491958       0.83891920       0.44703374
H       -3.02663063       0.66410592       0.84167181
H       -2.99198717       1.04097549      -0.88766280
H       -1.86403269       1.83881021       0.16436176
H       -1.28623206      -0.61414395      -1.61990955
H       -2.24174894      -1.68722191      -0.54098729
H       -1.11389668       0.14336268       0.53055726
H       -0.40299694      -1.83546865       1.07618690
H        1.74084687      -1.51881499      -0.15517261
H        1.04628662      -0.26017033      -1.18602655
H        2.93860550       1.59838635       1.19256714
H        2.71578988       1.30403925      -0.54899697
H        3.47659958       0.05753422       0.47691489
18
Frame=9 idx=000735 GeodesicLength=1.0415737303796861 rxn_smarts="[C:1]([C:2]([C:3]([C:4]([O:5][C:6]([H:16])([H:17])[H:18])([H:14])[H:15])([H:12])[H:13])([H:10])[H:11])([H:7])([H:8])[H:9]>>[C:1]([H:7])([H:8])([H:9])[H:12].[C:2](=[C:3]([C:4]([O:5][C:6]([H:16])([H:17])[H:18])([H:14])[H:15])[H:13])([H:10])[H:11]"
C       -2.39006700       0.88568316      -0.01660741
C       -1.46860967      -0.94599094      -0.58785307
C       -0.32359658      -1.13578506       0.24548163
C        1.02020986      -0.66249150      -0.17078581
O        1.46321360       0.31126583       0.76500401
C        2.73125518       0.82020189       0.45134341
H       -3.06403481       0.64581619       0.80875427
H       -2.99440190       1.03714632      -0.91257810
H       -1.92233693       1.85443091       0.16799135
H       -1.28957400      -0.64720016      -1.61985075
H       -2.21485095      -1.73353550      -0.53305138
H       -1.10836311       0.19402128       0.55201075
H       -0.39207963      -1.80188623       1.09778507
H        1.72258163      -1.50820105      -0.19600909
H        1.02208116      -0.21151755      -1.17609771
H        2.99064260       1.55393714       1.21390510
H        2.72491407       1.31534180      -0.53005805
H        3.49301648       0.02876346       0.44061578
18
Frame=10 idx=000735 GeodesicLength=1.1562919961509117 rxn_smarts="[C:1]([C:2]([C:3]([C:4]([O:5][C:6]([H:16])([H:17])[H:18])([H:14])[H:15])([H:12])[H:13])([H:10])[H:11])([H:7])([H:8])[H:9]>>[C:1]([H:7])([H:8])([H:9])[H:12].[C:2](=[C:3]([C:4]([O:5][C:6]([H:16])([H:17])[H:18])([H:14])[H:15])[H:13])([H:10])[H:11]"
C       -2.40672612       0.88322495      -0.02900112
C       -1.47004773      -0.96415990      -0.58359600
C       -0.32933789      -1.10152131       0.26364716
C        1.01425578      -0.64029299      -0.17166189
O        1.48876642       0.29928468       0.78079611
C        2.75682398       0.80075141       0.45483251
H       -3.09879673       0.62568282       0.77602647
H       -2.99597531       1.03285771      -0.93593095
H       -1.98210060       1.86879045       0.17165162
H       -1.29114484      -0.67943152      -1.61989265
H       -2.18465549      -1.78076140      -0.52598729
H       -1.10241510       0.24793573       0.57392654
H       -0.38266305      -1.76684096       1.11837560
H        1.70171477      -1.49632627      -0.23493061
H        0.99835510      -0.16282001      -1.16440889
H        3.04210291       1.50786866       1.23309535
H        2.73460474       1.32558144      -0.51071998
H        3.50723917       0.00017653       0.40377802
18
Frame=11 idx=000735 GeodesicLength=1.2705448624739288 rxn_smarts="[C:1]([C:2]([C:3]([C:4]([O:5][C:6]([H:16])([H:17])[H:18])([H:14])[H:15])([H:12])[H:13])([H:10])[H:11])([H:7])([H:8])[H:9]>>[C:1]([H:7])([H:8])([H:9])[H:12].[C:2](=[C:3]([C:4]([O:5][C:6]([H:16])([H:17])[H:18])([H:14])[H:15])[H:13])([H:10])[H:11]"
C       -2.42158338       0.88047586      -0.04038903
C       -1.47063352      -0.98338029      -0.58046471
C       -0.33670458      -1.06555936       0.28103564
C        1.00740020      -0.61769232      -0.17178998
O        1.51316497       0.28702091       0.79559872
C        2.78121635       0.78067210       0.45750761
H       -3.13045742       0.60398714       0.74370859
H       -2.99637664       1.02831501      -0.95753239
H       -2.04269539       1.88170112       0.17540445
H       -1.29101072      -0.71088074      -1.62021040
H       -2.15086212      -1.82894386      -0.51979138
H       -1.09591636       0.30514549       0.59637580
H       -0.37495517      -1.73025346       1.13788299
H        1.67837009      -1.48333296      -0.27174864
H        0.97517215      -0.11442381      -1.15121737
H        3.09233909       1.46039168       1.25011779
H        2.74452265       1.33476786      -0.49106959
H        3.51900980      -0.02801038       0.36658190
18
Frame=12 idx=000735 GeodesicLength=1.3839601013055385 rxn_smarts="[C:1]([C:2]([C:3]([C:4]([O:5][C:6]([H:16])([H:17])[H:18])([H:14])[H:15])([H:12])[H:13])([H:10])[H:11])([H:7])([H:8])[H:9]>>[C:1]([H:7])([H:8])([H:9])[H:12].[C:2](=[C:3]([C:4]([O:5][C:6]([H:16])([H:17])[H:18])([H:14])[H:15])[H:13])([H:10])[H:11]"
C       -2.43426759       0.87760904      -0.05057125
C       -1.47034502      -1.00378425      -0.57849769
C       -0.34580495      -1.02812138       0.29736483
C        0.99962506      -0.59492856      -0.17129503
O        1.53606270       0.27443510       0.80926423
C        2.80403719       0.76015494       0.45937035
H       -3.15876040       0.58103898       0.71187782
H       -2.99508859       1.02391615      -0.97729029
H       -2.10339118       1.89294091       0.17955036
H       -1.28928811      -0.74158125      -1.62090876
H       -2.11337116      -1.87804733      -0.51440357
H       -1.08879745       0.36545053       0.61948098
H       -0.36912460      -1.69220496       1.15616156
H        1.65281498      -1.46942310      -0.30629758
H        0.95258387      -0.06676749      -1.13679370
H        3.14064863       1.41200700       1.26484840
H        2.75434709       1.34280268      -0.47128100
H        3.52811953      -0.05549702       0.32942034
18
Frame=13 idx=000735 GeodesicLength=1.4966886541867213 rxn_smarts="[C:1]([C:2]([C:3]([C:4]([O:5][C:6]([H:16])([H:17])[H:18])([H:14])[H:15])([H:12])[H:13])([H:10])[H:11])([H:7])([H:8])[H:9]>>[C:1]([H:7])([H:8])([H:9])[H:12].[C:2](=[C:3]([C:4]([O:5][C:6]([H:16])([H:17])[H:18])([H:14])[H:15])[H:13])([H:10])[H:11]"
C       -2.44430069       0.87493096      -0.05942791
C       -1.46909438      -1.02564399      -0.57769494
C       -0.35677815      -0.98956747       0.31230817
C        0.99087612      -0.57226570      -0.17036569
O        1.55703687       0.26141053       0.82184356
C        2.82484501       0.73938156       0.46044886
H       -3.18339371       0.55728466       0.68050605
H       -2.99149041       1.01995719      -0.99520824
H       -2.16349337       1.90253517       0.18422780
H       -1.28631049      -0.77183542      -1.62204981
H       -2.07191125      -1.92799250      -0.50960132
H       -1.08087797       0.42870918       0.64352662
H       -0.36530128      -1.65272777       1.17315475
H        1.62541464      -1.45482774      -0.33845863
H        0.93051382      -0.02025830      -1.12157505
H        3.18636287       1.36283175       1.27750147
H        2.76346097       1.35000211      -0.45132752
H        3.53444139      -0.08192421       0.29219184
18
Frame=14 idx=000735 GeodesicLength=1.6083624654691733 rxn_smarts="[C:1]([C:2]([C:3]([C:4]([O:5][C:6]([H:16])([H:17])[H:18])([H:14])[H:15])([H:12])[H:13])([H:10])[H:11])([H:7])([H:8])[H:9]>>[C:1]([H:7])([H:8])([H:9])[H:12].[C:2](=[C:3]([C:4]([O:5][C:6]([H:16])([H:17])[H:18])([H:14])[H:15])[H:13])([H:10])[H:11]"
C       -2.45126964       0.87264865      -0.06677779
C       -1.46696120      -1.04917569      -0.57789143
C       -0.36964994      -0.95032132       0.32559625
C        0.98108944      -0.54992920      -0.16919778
O        1.57567762       0.24799746       0.83314891
C        2.84317211       0.71861028       0.46082419
H       -3.20411452       0.53326230       0.64962397
H       -2.98493016       1.01701061      -1.01121952
H       -2.22183543       1.91030942       0.18963358
H       -1.28230202      -0.80189450      -1.62365870
H       -2.02640782      -1.97885824      -0.50510926
H       -1.07210842       0.49446495       0.66850629
H       -0.36352141      -1.61211256       1.18870504
H        1.59634743      -1.43972322      -0.36847243
H        0.90888122       0.02486099      -1.10587581
H        3.22867312       1.31349060       1.28812201
H        2.77150303       1.35635608      -0.43136091
H        3.53775661      -0.10699662       0.25540339
18
Frame=15 idx=000735 GeodesicLength=1.719140041540528 rxn_smarts="[C:1]([C:2]([C:3]([C:4]([O:5][C:6]([H:16])([H:17])[H:18])([H:14])[H:15])([H:12])[H:13])([H:10])[H:11])([H:7])([H:8])[H:9]>>[C:1]([H:7])([H:8])([H:9])[H:12].[C:2](=[C:3]([C:4]([O:5][C:6]([H:16])([H:17])[H:18])([H:14])[H:15])[H:13])([H:10])[H:11]"
C       -2.45470603       0.87109327      -0.07253029
C       -1.46398230      -1.07466347      -0.57887321
C       -0.38443183      -0.91100227       0.33695556
C        0.97020800      -0.52823537      -0.16801981
O        1.59158739       0.23410671       0.84316680
C        2.85853598       0.69816022       0.46055938
H       -3.22078971       0.50960796       0.61898558
H       -2.97450503       1.01566781      -1.02544559
H       -2.27729329       1.91634583       0.19596527
H       -1.27765630      -0.83220844      -1.62566428
H       -1.97689575      -2.03055808      -0.50052233
H       -1.06236193       0.56216231       0.69470104
H       -0.36376423      -1.57077211       1.20269996
H        1.56599103      -1.42435625      -0.39651145
H        0.88748141       0.06823343      -1.09009671
H        3.26685936       1.26437589       1.29695524
H        2.77773734       1.36225420      -0.41135084
H        3.53798588      -0.13021167       0.21902568
18
Frame=16 idx=000735 GeodesicLength=1.8293721261981624 rxn_smarts="[C:1]([C:2]([C:3]([C:4]([O:5][C:6]([H:16])([H:17])[H:18])([H:14])[H:15])([H:12])[H:13])([H:10])[H:11])([H:7])([H:8])[H:9]>>[C:1]([H:7])([H:8])([H:9])[H:12].[C:2](=[C:3]([C:4]([O:5][C:6]([H:16])([H:17])[H:18])([H:14])[H:15])[H:13])([H:10])[H:11]"
C       -2.45424107       0.87060819      -0.07658201
C       -1.46025396      -1.10234984      -0.58036165
C       -0.40107086      -0.87233955       0.34612466
C        0.95818213      -0.50750062      -0.16708147
O        1.60441882       0.21968572       0.85184039
C        2.87053345       0.67837109       0.45970705
H       -3.23345963       0.48695304       0.58824322
H       -2.95929434       1.01660651      -1.03800831
H       -2.32879318       1.92084610       0.20344770
H       -1.27281037      -0.86319992      -1.62792980
H       -1.92340275      -2.08298760      -0.49551272
H       -1.05157944       0.63108279       0.72254430
H       -0.36593210      -1.52926799       1.21499612
H        1.53475988      -1.40894598      -0.42283530
H        0.86603608       0.10951729      -1.07461514
H        3.30023370       1.21613743       1.30410944
H        2.78156917       1.36789689      -0.39138179
H        3.53510447      -0.15111356       0.18329532
