14
Frame=0 idx=005647 GeodesicLength=0.0 rxn_smarts="[C:1](#[C:2][C:3]([C:4]1([H:10])[C:5]([H:11])([H:12])[C:6]1([H:13])[H:14])([H:8])[H:9])[H:7]>>[C:1](=[C:2]=[C:3]([H:8])[H:9])([C:6]([C:4](=[C:5]([H:11])[H:12])[H:10])([H:13])[H:14])[H:7]"
C        1.45461041      -1.15661555      -0.71199873
C        1.73324737      -0.64355529       0.39929707
C        0.89203988       0.23698912       1.17090632
C       -0.20557600       0.66719691       0.02379739
C       -1.59952921       0.74494076       0.25216907
C       -0.32458551      -0.45632321      -0.94525773
H        1.76502890      -1.83749441      -1.48254200
H        0.40282827      -0.27963272       1.99937467
H        1.36184973       1.14339369       1.55002280
H        0.18932175       1.55944679      -0.46083477
H       -2.18540452       1.63657122       0.05850935
H       -2.10818096      -0.07483872       0.74405431
H       -0.86338652      -1.33902666      -0.61302286
H       -0.51226363      -0.20105188      -1.98447492
14
Frame=1 idx=005647 GeodesicLength=0.09138991577448419 rxn_smarts="[C:1](#[C:2][C:3]([C:4]1([H:10])[C:5]([H:11])([H:12])[C:6]1([H:13])[H:14])([H:8])[H:9])[H:7]>>[C:1](=[C:2]=[C:3]([H:8])[H:9])([C:6]([C:4](=[C:5]([H:11])[H:12])[H:10])([H:13])[H:14])[H:7]"
C        1.46073285      -1.15623068      -0.71330113
C        1.73545091      -0.64365048       0.39928898
C        0.90596112       0.23377804       1.18097874
C       -0.21421225       0.67270500       0.02153296
C       -1.60915654       0.74221825       0.24035368
C       -0.33925913      -0.45152107      -0.94627561
H        1.78072064      -1.84232541      -1.47518495
H        0.41935698      -0.28410081       2.01004888
H        1.38366821       1.13646553       1.55897345
H        0.18355995       1.56454598      -0.46122549
H       -2.19445309       1.63355408       0.04425320
H       -2.11665775      -0.06945038       0.74671782
H       -0.87430220      -1.33849382      -0.61920607
H       -0.52140971      -0.19749422      -1.98695448
14
Frame=2 idx=005647 GeodesicLength=0.18277961226474235 rxn_smarts="[C:1](#[C:2][C:3]([C:4]1([H:10])[C:5]([H:11])([H:12])[C:6]1([H:13])[H:14])([H:8])[H:9])[H:7]>>[C:1](=[C:2]=[C:3]([H:8])[H:9])([C:6]([C:4](=[C:5]([H:11])[H:12])[H:10])([H:13])[H:14])[H:7]"
C        1.46712244      -1.15572666      -0.71472163
C        1.73776050      -0.64352714       0.39913595
C        0.92018820       0.23040609       1.19121329
C       -0.22319482       0.67821938       0.01913729
C       -1.61902170       0.73965319       0.22848579
C       -0.35418486      -0.44680632      -0.94726828
H        1.79692597      -1.84708883      -1.46755152
H        0.43621552      -0.28899449       2.02071851
H        1.40576467       1.12929667       1.56810114
H        0.17760351       1.56959751      -0.46168253
H       -2.20358583       1.63079917       0.02997630
H       -2.12551141      -0.06360993       0.74913294
H       -0.88532540      -1.33803146      -0.62525100
H       -0.53075679      -0.19418719      -1.98942625
14
Frame=3 idx=005647 GeodesicLength=0.27417662495218154 rxn_smarts="[C:1](#[C:2][C:3]([C:4]1([H:10])[C:5]([H:11])([H:12])[C:6]1([H:13])[H:14])([H:8])[H:9])[H:7]>>[C:1](=[C:2]=[C:3]([H:8])[H:9])([C:6]([C:4](=[C:5]([H:11])[H:12])[H:10])([H:13])[H:14])[H:7]"
C        1.47377853      -1.15511164      -0.71625282
C        1.74016725      -0.64318791       0.39884352
C        0.93473873       0.22686284       1.20162211
C       -0.23253012       0.68374219       0.01660055
C       -1.62913159       0.73725524       0.21656185
C       -0.36937573      -0.44218851      -0.94823038
H        1.81366853      -1.85172937      -1.45965802
H        0.45341308      -0.29432298       2.03138891
H        1.42816616       1.12187002       1.57741926
H        0.17145655       1.57459511      -0.46221681
H       -2.21281316       1.62830663       0.01564339
H       -2.13475099      -0.05730256       0.75130276
H       -0.89647423      -1.33764019      -0.63113834
H       -0.54031302      -0.19114885      -1.99188597
14
Frame=4 idx=005647 GeodesicLength=0.36558434705121073 rxn_smarts="[C:1](#[C:2][C:3]([C:4]1([H:10])[C:5]([H:11])([H:12])[C:6]1([H:13])[H:14])([H:8])[H:9])[H:7]>>[C:1](=[C:2]=[C:3]([H:8])[H:9])([C:6]([C:4](=[C:5]([H:11])[H:12])[H:10])([H:13])[H:14])[H:7]"
C        1.48069850      -1.15439810      -0.71788354
C        1.74266137      -0.64263836       0.39841987
C        0.94962971       0.22313779       1.21221867
C       -0.24222409       0.68927491       0.01391269
C       -1.63949354       0.73503445       0.20457652
C       -0.38484588      -0.43767897      -0.94915532
H        1.83097595      -1.85617843      -1.45152915
H        0.47095814      -0.30009461       2.04206706
H        1.45090300       1.11416706       1.58694201
H        0.16512438       1.57953026      -0.46284156
H       -2.22214431       1.62607729       0.00121675
H       -2.14438619      -0.05051028       0.75322987
H       -0.90776948      -1.33732171      -0.63684558
H       -0.55008756      -0.18840131      -1.99432829
14
Frame=5 idx=005647 GeodesicLength=0.45700985546012973 rxn_smarts="[C:1](#[C:2][C:3]([C:4]1([H:10])[C:5]([H:11])([H:12])[C:6]1([H:13])[H:14])([H:8])[H:9])[H:7]>>[C:1](=[C:2]=[C:3]([H:8])[H:9])([C:6]([C:4](=[C:5]([H:11])[H:12])[H:10])([H:13])[H:14])[H:7]"
C        1.48788326      -1.15359308      -0.71960414
C        1.74523224      -0.64187918       0.39787192
C        0.96488075       0.21921907       1.22301685
C       -0.25228432       0.69482034       0.01106193
C       -1.65011571       0.73300064       0.19252361
C       -0.40060846      -0.43328720      -0.95003747
H        1.84887161      -1.86037832      -1.44318453
H        0.48885800      -0.30631837       2.05275895
H        1.47400651       1.10616711       1.59668404
H        0.15861044       1.58439660      -0.46357008
H       -2.23158905       1.62411306      -0.01333785
H       -2.15442793      -0.04321815       0.75491711
H       -0.91922919      -1.33707706      -0.64235138
H       -0.56008815      -0.18596544      -1.99674896
14
Frame=6 idx=005647 GeodesicLength=0.54845495164386 rxn_smarts="[C:1](#[C:2][C:3]([C:4]1([H:10])[C:5]([H:11])([H:12])[C:6]1([H:13])[H:14])([H:8])[H:9])[H:7]>>[C:1](=[C:2]=[C:3]([H:8])[H:9])([C:6]([C:4](=[C:5]([H:11])[H:12])[H:10])([H:13])[H:14])[H:7]"
C        1.49532787      -1.15271438      -0.72139786
C        1.74786572      -0.64092092       0.39721369
C        0.98051122       0.21509280       1.23403246
C       -0.26271642       0.70037982       0.00803669
C       -1.66100674       0.73116522       0.18039527
C       -0.41668022      -0.42902783      -0.95086739
H        1.86739312      -1.86423792      -1.43466296
H        0.50711934      -0.31300172       2.06347391
H        1.49750972       1.09784751       1.60665791
H        0.15192271       1.58918227      -0.46441979
H       -2.24115472       1.62241679      -0.02806138
H       -2.16488715      -0.03540089       0.75636544
H       -0.93087827      -1.33690978      -0.64762603
H       -0.57032620      -0.18387098      -1.99913998
14
Frame=7 idx=005647 GeodesicLength=0.6399283037903215 rxn_smarts="[C:1](#[C:2][C:3]([C:4]1([H:10])[C:5]([H:11])([H:12])[C:6]1([H:13])[H:14])([H:8])[H:9])[H:7]>>[C:1](=[C:2]=[C:3]([H:8])[H:9])([C:6]([C:4](=[C:5]([H:11])[H:12])[H:10])([H:13])[H:14])[H:7]"
C        1.50303550      -1.15176207      -0.72325616
C        1.75055108      -0.63975913       0.39645168
C        0.99654314       0.21074555       1.24528102
C       -0.27352949       0.70595913       0.00482244
C       -1.67217774       0.72953704       0.16818327
C       -0.43307458      -0.42490789      -0.95164005
H        1.88656191      -1.86770872      -1.42597982
H        0.52575026      -0.32015765       2.07421889
H        1.52144970       1.08918251       1.61688238
H        0.14506152       1.59388349      -0.46540682
H       -2.25085367       1.62098955      -0.04298695
H       -2.17577387      -0.02704215       0.75757493
H       -0.94273362      -1.33681996      -0.65264699
H       -0.58081015      -0.18213969      -2.00149781
14
Frame=8 idx=005647 GeodesicLength=0.7314286389844104 rxn_smarts="[C:1](#[C:2][C:3]([C:4]1([H:10])[C:5]([H:11])([H:12])[C:6]1([H:13])[H:14])([H:8])[H:9])[H:7]>>[C:1](=[C:2]=[C:3]([H:8])[H:9])([C:6]([C:4](=[C:5]([H:11])[H:12])[H:10])([H:13])[H:14])[H:7]"
C        1.51099945      -1.15075742      -0.72515757
C        1.75327042      -0.63840821       0.39560447
C        1.01299715       0.20616023       1.25678119
C       -0.28472971       0.71155937       0.00140526
C       -1.68363740       0.72813064       0.15587665
C       -0.44981046      -0.42094461      -0.95234318
H        1.90642460      -1.87067881      -1.41718650
H        0.54475765      -0.32779478       2.08500551
H        1.54586254       1.08014448       1.62737106
H        0.13803696       1.59848506      -0.46655350
H       -2.26069191       1.61983682      -0.05816041
H       -2.18710147      -0.01811004       0.75854670
H       -0.95482427      -1.33681325      -0.65737746
H       -0.59155356      -0.18080947      -2.00381223
14
Frame=9 idx=005647 GeodesicLength=0.8229450055671226 rxn_smarts="[C:1](#[C:2][C:3]([C:4]1([H:10])[C:5]([H:11])([H:12])[C:6]1([H:13])[H:14])([H:8])[H:9])[H:7]>>[C:1](=[C:2]=[C:3]([H:8])[H:9])([C:6]([C:4](=[C:5]([H:11])[H:12])[H:10])([H:13])[H:14])[H:7]"
C        1.51922677      -1.14969794      -0.72709457
C        1.75601322      -0.63686553       0.39467915
C        1.02989551       0.20132483       1.26854810
C       -0.29632546       0.71718624      -0.00222478
C       -1.69539889       0.72695250       0.14346800
C       -0.46690049      -0.41714314      -0.95297260
H        1.92700077      -1.87310701      -1.40829708
H        0.56415074      -0.33592505       2.09583856
H        1.57078250       1.07071006       1.63813889
H        0.13084829       1.60298309      -0.46787287
H       -2.27067876       1.61896079      -0.07361089
H       -2.19888335      -0.00858785       0.75927519
H       -0.96716624      -1.33689122      -0.66179491
H       -0.60256460      -0.17989975      -2.00608018
14
Frame=10 idx=005647 GeodesicLength=0.9144894669834347 rxn_smarts="[C:1](#[C:2][C:3]([C:4]1([H:10])[C:5]([H:11])([H:12])[C:6]1([H:13])[H:14])([H:8])[H:9])[H:7]>>[C:1](=[C:2]=[C:3]([H:8])[H:9])([C:6]([C:4](=[C:5]([H:11])[H:12])[H:10])([H:13])[H:14])[H:7]"
C        1.52771462      -1.14859186      -0.72904839
C        1.75875917      -0.63513491       0.39369321
C        1.04726291       0.19621750       1.28060294
C       -0.30832743       0.72284503      -0.00608784
C       -1.70747433       0.72601668       0.13094366
C       -0.48436582      -0.41351882      -0.95351615
H        1.94833612      -1.87488875      -1.39935281
H        0.58393430      -0.34456174       2.10673099
H        1.59626501       1.06083659       1.64920524
H        0.12350117       1.60736617      -0.46939159
H       -2.28082585       1.61836371      -0.08938661
H       -2.21113307       0.00155902       0.75975778
H       -0.97978790      -1.33705701      -0.66585922
H       -0.61385888      -0.17945162      -2.00829123
14
Frame=11 idx=005647 GeodesicLength=1.0060597950232077 rxn_smarts="[C:1](#[C:2][C:3]([C:4]1([H:10])[C:5]([H:11])([H:12])[C:6]1([H:13])[H:14])([H:8])[H:9])[H:7]>>[C:1](=[C:2]=[C:3]([H:8])[H:9])([C:6]([C:4](=[C:5]([H:11])[H:12])[H:10])([H:13])[H:14])[H:7]"
C        1.53645791      -1.14745453      -0.73099587
C        1.76148603      -0.63322909       0.39266806
C        1.06512505       0.19081772       1.29296670
C       -0.32074401       0.72853995      -0.01020285
C       -1.71987797       0.72533633       0.11828573
C       -0.50222682      -0.41008719      -0.95396147
H        1.97047919      -1.87590854      -1.39040222
H        0.60411616      -0.35371774       2.11769599
H        1.62235472       1.05048655       1.66058556
H        0.11600380       1.61161986      -0.47113754
H       -2.29114014       1.61805346      -0.10553192
H       -2.22386433       0.01236506       0.75999376
H       -0.99271846      -1.33731433      -0.66952908
H       -0.62545113      -0.17950752      -2.01043484
14
Frame=12 idx=005647 GeodesicLength=1.0976551507520549 rxn_smarts="[C:1](#[C:2][C:3]([C:4]1([H:10])[C:5]([H:11])([H:12])[C:6]1([H:13])[H:14])([H:8])[H:9])[H:7]>>[C:1](=[C:2]=[C:3]([H:8])[H:9])([C:6]([C:4](=[C:5]([H:11])[H:12])[H:10])([H:13])[H:14])[H:7]"
C        1.54547161      -1.14626176      -0.73293695
C        1.76418170      -0.63113532       0.39161005
C        1.08351231       0.18510476       1.30565718
C       -0.33358881       0.73428127      -0.01458679
C       -1.73262453       0.72492078       0.10548599
C       -0.52049973      -0.40685165      -0.95430358
H        1.99344913      -1.87613572      -1.38144452
H        0.62471002      -0.36341758       2.12873671
H        1.64909434       1.03962328       1.67230185
H        0.10835151       1.61574317      -0.47312978
H       -2.30163617       1.61802929      -0.12208183
H       -2.23709247       0.02385357       0.75997275
H       -1.00597347      -1.33766266      -0.67277494
H       -0.63735544      -0.18009145      -2.01250616
14
Frame=13 idx=005647 GeodesicLength=1.189273335674585 rxn_smarts="[C:1](#[C:2][C:3]([C:4]1([H:10])[C:5]([H:11])([H:12])[C:6]1([H:13])[H:14])([H:8])[H:9])[H:7]>>[C:1](=[C:2]=[C:3]([H:8])[H:9])([C:6]([C:4](=[C:5]([H:11])[H:12])[H:10])([H:13])[H:14])[H:7]"
C        1.55474989      -1.14502899      -0.73484379
C        1.76681737      -0.62886611       0.39054468
C        1.10245357       0.17905020       1.31869854
C       -0.34687230       0.74007395      -0.01926118
C       -1.74572959       0.72478615       0.09252440
C       -0.53920894      -0.40383089      -0.95452601
H        2.01730680      -1.87542669      -1.37253653
H        0.64571981      -0.37367524       2.13986981
H        1.67654398       1.02819333       1.68436853
H        0.10055189       1.61971868      -0.47540338
H       -2.31232134       1.61829878      -0.13909017
H       -2.25083340       0.03607051       0.75969057
H       -1.01958807      -1.33810752      -0.67554490
H       -0.64958966      -0.18125616      -2.01449057
14
Frame=14 idx=005647 GeodesicLength=1.280912457619117 rxn_smarts="[C:1](#[C:2][C:3]([C:4]1([H:10])[C:5]([H:11])([H:12])[C:6]1([H:13])[H:14])([H:8])[H:9])[H:7]>>[C:1](=[C:2]=[C:3]([H:8])[H:9])([C:6]([C:4](=[C:5]([H:11])[H:12])[H:10])([H:13])[H:14])[H:7]"
C        1.56429332      -1.14375667      -0.73669734
C        1.76936707      -0.62642683       0.38949253
C        1.12198042       0.17262488       1.33211479
C       -0.36060768       0.74592613      -0.02424864
C       -1.75921147       0.72494740       0.07938248
C       -0.55837949      -0.40103908      -0.95461364
H        2.04211077      -1.87366226      -1.36371875
H        0.66715216      -0.38451065       2.15110822
H        1.70476669       1.01613957       1.69680404
H        0.09260950       1.62353346      -0.47799055
H       -2.32320607       1.61886742      -0.15660912
H       -2.26510521       0.04906210       0.75913696
H       -1.03359457      -1.33865329      -0.67778656
H       -0.66217544      -0.18305219      -2.01637443
14
Frame=15 idx=005647 GeodesicLength=1.3725652566981381 rxn_smarts="[C:1](#[C:2][C:3]([C:4]1([H:10])[C:5]([H:11])([H:12])[C:6]1([H:13])[H:14])([H:8])[H:9])[H:7]>>[C:1](=[C:2]=[C:3]([H:8])[H:9])([C:6]([C:4](=[C:5]([H:11])[H:12])[H:10])([H:13])[H:14])[H:7]"
C        1.57410397      -1.14244312      -0.73847712
C        1.77180205      -0.62382367       0.38847629
C        1.14212788       0.16579538       1.34592936
C       -0.37480824       0.75184627      -0.02957203
C       -1.77308841       0.72542103       0.06604174
C       -0.57803729      -0.39849160      -0.95454994
H        2.06792081      -1.87071557      -1.35503244
H        0.68901454      -0.39594572       2.16246560
H        1.73382442       1.00340141       1.70962466
H        0.08452887       1.62717342      -0.48092639
H       -2.33429942       1.61974146      -0.17469346
H       -2.27992832       0.06287736       0.75830003
H       -1.04802591      -1.33930449      -0.67944371
H       -0.67513494      -0.18553215      -2.01814260
14
Frame=16 idx=005647 GeodesicLength=1.4642262567149773 rxn_smarts="[C:1](#[C:2][C:3]([C:4]1([H:10])[C:5]([H:11])([H:12])[C:6]1([H:13])[H:14])([H:8])[H:9])[H:7]>>[C:1](=[C:2]=[C:3]([H:8])[H:9])([C:6]([C:4](=[C:5]([H:11])[H:12])[H:10])([H:13])[H:14])[H:7]"
C        1.58417761      -1.14109451      -0.74015497
C        1.77408639      -0.62106979       0.38752530
C        1.16293054       0.15852210       1.36017017
C       -0.38948860       0.75784239      -0.03525870
C       -1.78738056       0.72622808       0.05247874
C       -0.59821392      -0.39620883      -0.95431294
H        2.09482231      -1.86641710      -1.34653799
H        0.71131154      -0.40800403       2.17396016
H        1.76378935       0.98990362       1.72284585
H        0.07631772       1.63061796      -0.48425537
H       -2.34560834       1.62093133      -0.19340844
H       -2.29532433       0.07758002       0.75716916
H       -1.06292376      -1.34006709      -0.68044605
H       -0.68849595      -0.18876416      -2.01977493
