13
Frame=0 idx=009877 GeodesicLength=0.0 rxn_smarts="[C:1]([C@@:2]([O:3][C:4](=[O:5])[H:12])([C:6]#[C:7][H:13])[H:11])([H:8])([H:9])[H:10]>>[C:1]([C:2](=[C:6]=[C:7]([C:4]1([H:12])[O:3][O:5]1)[H:13])[H:11])([H:8])([H:9])[H:10]"
C       -1.47342177      -1.28981542       0.04973329
C       -0.60035384      -0.36153854       0.83592891
O        1.39151827      -0.45166211       0.16838075
C        1.52968182       0.67463011      -0.62259752
O        2.78369806       0.72110097      -0.31104483
C       -0.36260602       0.92092748       0.48402738
C        0.44796850       1.73323697      -0.07633146
H       -1.59406543      -0.94971904      -0.97760465
H       -2.46053806      -1.36507429       0.51271731
H       -1.03388922      -2.28743638       0.04589592
H       -0.37262595      -0.64340567       1.85953881
H        1.28622557       0.50948195      -1.68685558
H        0.45840809       2.78927392      -0.28178830
13
Frame=1 idx=009877 GeodesicLength=0.10812841525649287 rxn_smarts="[C:1]([C@@:2]([O:3][C:4](=[O:5])[H:12])([C:6]#[C:7][H:13])[H:11])([H:8])([H:9])[H:10]>>[C:1]([C:2](=[C:6]=[C:7]([C:4]1([H:12])[O:3][O:5]1)[H:13])[H:11])([H:8])([H:9])[H:10]"
C       -1.48551525      -1.29688254       0.06097181
C       -0.59182975      -0.36725977       0.82292431
O        1.38345914      -0.46737175       0.11934420
C        1.55555555       0.68044922      -0.62833319
O        2.79752679       0.70237095      -0.27004937
C       -0.37545759       0.91923663       0.46624856
C        0.43111245       1.74336672      -0.07898353
H       -1.62090431      -0.96671536      -0.96778931
H       -2.46537934      -1.35979389       0.54063676
H       -1.05148700      -2.29706483       0.06173125
H       -0.36161967      -0.63713370       1.84948517
H        1.35299231       0.54482006      -1.70498696
H        0.43154668       2.80197827      -0.27119971
13
Frame=2 idx=009877 GeodesicLength=0.2160500893905991 rxn_smarts="[C:1]([C@@:2]([O:3][C:4](=[O:5])[H:12])([C:6]#[C:7][H:13])[H:11])([H:8])([H:9])[H:10]>>[C:1]([C:2](=[C:6]=[C:7]([C:4]1([H:12])[O:3][O:5]1)[H:13])[H:11])([H:8])([H:9])[H:10]"
C       -1.49758220      -1.30395687       0.07287681
C       -0.58319255      -0.37267848       0.80878584
O        1.37385741      -0.48260337       0.06621427
C        1.58217681       0.68635475      -0.63323327
O        2.80915929       0.67938710      -0.22664944
C       -0.38904306       0.91766990       0.44733992
C        0.41322693       1.75372036      -0.08240450
H       -1.64918958      -0.98405053      -0.95688760
H       -2.46921036      -1.35468777       0.57015146
H       -1.06854687      -2.30642000       0.07811140
H       -0.34860886      -0.63062229       1.83772400
H        1.42334983       0.58328501      -1.72050385
H        0.40360322       2.81460219      -0.26152504
13
Frame=3 idx=009877 GeodesicLength=0.32362311313405856 rxn_smarts="[C:1]([C@@:2]([O:3][C:4](=[O:5])[H:12])([C:6]#[C:7][H:13])[H:11])([H:8])([H:9])[H:10]>>[C:1]([C:2](=[C:6]=[C:7]([C:4]1([H:12])[O:3][O:5]1)[H:13])[H:11])([H:8])([H:9])[H:10]"
C       -1.50937908      -1.31092494       0.08540336
C       -0.57442530      -0.37767451       0.79348593
O        1.36256462      -0.49691140       0.00887326
C        1.60938027       0.69217238      -0.63710886
O        2.81798211       0.65145098      -0.18120132
C       -0.40340446       0.91636884       0.42751423
C        0.39413930       1.76433007      -0.08674875
H       -1.67868746      -1.00150783      -0.94481390
H       -2.47173634      -1.34979184       0.60116684
H       -1.08469369      -2.31531921       0.09487298
H       -0.33344889      -0.62389643       1.82411668
H        1.49716733       0.62454158      -1.73263108
H        0.37454159       2.82716234      -0.25292938
13
Frame=4 idx=009877 GeodesicLength=0.4311686531101193 rxn_smarts="[C:1]([C@@:2]([O:3][C:4](=[O:5])[H:12])([C:6]#[C:7][H:13])[H:11])([H:8])([H:9])[H:10]>>[C:1]([C:2](=[C:6]=[C:7]([C:4]1([H:12])[O:3][O:5]1)[H:13])[H:11])([H:8])([H:9])[H:10]"
C       -1.52064539      -1.31770488       0.09843313
C       -0.56550090      -0.38207599       0.77707321
O        1.34955633      -0.50980311      -0.05255448
C        1.63699381       0.69763859      -0.63976534
O        2.82350476       0.61783784      -0.13429223
C       -0.41859410       0.91559966       0.40712091
C        0.37362942       1.77537063      -0.09214546
H       -1.70916379      -1.01888271      -0.93159197
H       -2.47270303      -1.34518837       0.63346834
H       -1.09946726      -2.32367524       0.11174835
H       -0.31600720      -0.61691979       1.80865028
H        1.57409044       0.66793202      -1.74063173
H        0.34430691       2.83987135      -0.24551303
13
Frame=5 idx=009877 GeodesicLength=0.5382469112325602 rxn_smarts="[C:1]([C@@:2]([O:3][C:4](=[O:5])[H:12])([C:6]#[C:7][H:13])[H:11])([H:8])([H:9])[H:10]>>[C:1]([C:2](=[C:6]=[C:7]([C:4]1([H:12])[O:3][O:5]1)[H:13])[H:11])([H:8])([H:9])[H:10]"
C       -1.53128933      -1.32431705       0.11216968
C       -0.55635624      -0.38576065       0.75914274
O        1.33428785      -0.52088901      -0.11920731
C        1.66497448       0.70275106      -0.64093052
O        2.82451357       0.57770889      -0.08528817
C       -0.43487371       0.91543787       0.38565541
C        0.35146525       1.78670218      -0.09937620
H       -1.74115838      -1.03618213      -0.91679847
H       -2.47156644      -1.34113343       0.66781808
H       -1.11256938      -2.33138507       0.12866474
H       -0.29573281      -0.60949298       1.79080344
H        1.65517209       0.71378866      -1.74353511
H        0.31313307       2.85277165      -0.23911832
13
Frame=6 idx=009877 GeodesicLength=0.6451964642425819 rxn_smarts="[C:1]([C@@:2]([O:3][C:4](=[O:5])[H:12])([C:6]#[C:7][H:13])[H:11])([H:8])([H:9])[H:10]>>[C:1]([C:2](=[C:6]=[C:7]([C:4]1([H:12])[O:3][O:5]1)[H:13])[H:11])([H:8])([H:9])[H:10]"
C       -1.54043022      -1.33022208       0.12578336
C       -0.54701372      -0.38847948       0.74073500
O        1.31764910      -0.52922914      -0.18807044
C        1.69258740       0.70665047      -0.64051067
O        2.82126476       0.53101089      -0.03757148
C       -0.45176639       0.91646464       0.36554180
C        0.32776884       1.79868312      -0.10720439
H       -1.77249366      -1.05216912      -0.90127572
H       -2.46817648      -1.33741611       0.70213258
H       -1.12301324      -2.33798521       0.14456208
H       -0.27362898      -0.60212663       1.77165985
H        1.73694395       0.75892921      -1.74077234
H        0.28030864       2.86588943      -0.23500962
13
Frame=7 idx=009877 GeodesicLength=0.7514657710938565 rxn_smarts="[C:1]([C@@:2]([O:3][C:4](=[O:5])[H:12])([C:6]#[C:7][H:13])[H:11])([H:8])([H:9])[H:10]>>[C:1]([C:2](=[C:6]=[C:7]([C:4]1([H:12])[O:3][O:5]1)[H:13])[H:11])([H:8])([H:9])[H:10]"
C       -1.54777827      -1.33527089       0.13910538
C       -0.53749332      -0.39016172       0.72201094
O        1.29971640      -0.53421023      -0.25817209
C        1.71962967       0.70909107      -0.63834666
O        2.81351885       0.47794215       0.00763117
C       -0.46907410       0.91866925       0.34736588
C        0.30269821       1.81128385      -0.11529201
H       -1.80259301      -1.06643847      -0.88498036
H       -2.46229943      -1.33424432       0.73602059
H       -1.13054934      -2.34315320       0.15904564
H       -0.25016955      -0.59489843       1.75124867
H        1.81853555       0.80236895      -1.73192961
H        0.24585835       2.87902200      -0.23370752
13
Frame=8 idx=009877 GeodesicLength=0.8583378016697202 rxn_smarts="[C:1]([C@@:2]([O:3][C:4](=[O:5])[H:12])([C:6]#[C:7][H:13])[H:11])([H:8])([H:9])[H:10]>>[C:1]([C:2](=[C:6]=[C:7]([C:4]1([H:12])[O:3][O:5]1)[H:13])[H:11])([H:8])([H:9])[H:10]"
C       -1.55322098      -1.33950664       0.15192708
C       -0.52782868      -0.39062594       0.70320351
O        1.28080107      -0.53562983      -0.32876148
C        1.74614016       0.70972857      -0.63440071
O        2.80159998       0.41851781       0.04952379
C       -0.48692068       0.92235985       0.33147693
C        0.27609336       1.82487004      -0.12336881
H       -1.83141357      -1.07895119      -0.86825587
H       -2.45391637      -1.33178897       0.76927611
H       -1.13484401      -2.34705512       0.17175309
H       -0.22554812      -0.58757720       1.73004159
H        1.89943800       0.84305723      -1.71724951
H        0.20961984       2.89260138      -0.23516573
13
Frame=9 idx=009877 GeodesicLength=0.9645245073253029 rxn_smarts="[C:1]([C@@:2]([O:3][C:4](=[O:5])[H:12])([C:6]#[C:7][H:13])[H:11])([H:8])([H:9])[H:10]>>[C:1]([C:2](=[C:6]=[C:7]([C:4]1([H:12])[O:3][O:5]1)[H:13])[H:11])([H:8])([H:9])[H:10]"
C       -1.55674758      -1.34302539       0.16443801
C       -0.51804633      -0.38975755       0.68387356
O        1.26056218      -0.53307900      -0.40044255
C        1.77201147       0.70867395      -0.62852032
O        2.78436109       0.35293463       0.08842091
C       -0.50546006       0.92748611       0.31721849
C        0.24824510       1.83907668      -0.13195519
H       -1.85958298      -1.08978982      -0.85053235
H       -2.44250796      -1.33055264       0.80273551
H       -1.13577026      -2.34959973       0.18243708
H       -0.19959667      -0.57983120       1.70747193
H        1.98044299       0.88086531      -1.69599442
H        0.17208902       2.90659866      -0.23915067
13
Frame=10 idx=009877 GeodesicLength=1.071080190808459 rxn_smarts="[C:1]([C@@:2]([O:3][C:4](=[O:5])[H:12])([C:6]#[C:7][H:13])[H:11])([H:8])([H:9])[H:10]>>[C:1]([C:2](=[C:6]=[C:7]([C:4]1([H:12])[O:3][O:5]1)[H:13])[H:11])([H:8])([H:9])[H:10]"
C       -1.55795062      -1.34539677       0.17557557
C       -0.50827451      -0.38764865       0.66575064
O        1.24082133      -0.52676935      -0.46825638
C        1.79703368       0.70514335      -0.62132593
O        2.76489651       0.28365118       0.12037650
C       -0.52380866       0.93419136       0.30740251
C        0.21960727       1.85448747      -0.13817004
H       -1.88416524      -1.09815322      -0.83366782
H       -2.42925619      -1.32971534       0.83324220
H       -1.13343929      -2.35068187       0.19069981
H       -0.17451194      -0.57235849       1.68587512
H        2.05692529       0.91233052      -1.67069571
H        0.13212238       2.92091981      -0.24680648
13
Frame=11 idx=009877 GeodesicLength=1.1775215121662352 rxn_smarts="[C:1]([C@@:2]([O:3][C:4](=[O:5])[H:12])([C:6]#[C:7][H:13])[H:11])([H:8])([H:9])[H:10]>>[C:1]([C:2](=[C:6]=[C:7]([C:4]1([H:12])[O:3][O:5]1)[H:13])[H:11])([H:8])([H:9])[H:10]"
C       -1.55711661      -1.34681122       0.18562012
C       -0.49853261      -0.38431830       0.64848965
O        1.22129847      -0.51673075      -0.53290795
C        1.82150466       0.69932643      -0.61275000
O        2.74298423       0.21100287       0.14607765
C       -0.54200730       0.94219864       0.30124190
C        0.19028141       1.87099179      -0.14216939
H       -1.90591326      -1.10443323      -0.81722417
H       -2.41414858      -1.32955378       0.86154401
H       -1.12821979      -2.35036741       0.19674345
H       -0.15011573      -0.56488829       1.66481341
H        2.13008855       0.93821590      -1.64148523
H        0.08989656       2.93536737      -0.25799345
13
Frame=12 idx=009877 GeodesicLength=1.2841712324503531 rxn_smarts="[C:1]([C@@:2]([O:3][C:4](=[O:5])[H:12])([C:6]#[C:7][H:13])[H:11])([H:8])([H:9])[H:10]>>[C:1]([C:2](=[C:6]=[C:7]([C:4]1([H:12])[O:3][O:5]1)[H:13])[H:11])([H:8])([H:9])[H:10]"
C       -1.55443728      -1.34730756       0.19457728
C       -0.48882540      -0.37976919       0.63218974
O        1.20222039      -0.50314618      -0.59426164
C        1.84570806       0.69116875      -0.60289866
O        2.71915493       0.13552629       0.16560697
C       -0.56004654       0.95141560       0.29868663
C        0.16024921       1.88870226      -0.14356209
H       -1.92504816      -1.10875412      -0.80133158
H       -2.39745922      -1.33002374       0.88772035
H       -1.12034596      -2.34873926       0.20059733
H       -0.12645597      -0.55732929       1.64453455
H        2.20024448       0.95849002      -1.60905062
H        0.04504147       2.94976643      -0.27280823
13
Frame=13 idx=009877 GeodesicLength=1.3911409420227345 rxn_smarts="[C:1]([C@@:2]([O:3][C:4](=[O:5])[H:12])([C:6]#[C:7][H:13])[H:11])([H:8])([H:9])[H:10]>>[C:1]([C:2](=[C:6]=[C:7]([C:4]1([H:12])[O:3][O:5]1)[H:13])[H:11])([H:8])([H:9])[H:10]"
C       -1.54993245      -1.34720233       0.20266499
C       -0.47929931      -0.37374490       0.61636148
O        1.18347759      -0.48615764      -0.65283947
C        1.86966979       0.68057394      -0.59209061
O        2.69270246       0.05762417       0.17974949
C       -0.57840662       0.96184098       0.29824242
C        0.12898274       1.90761369      -0.14388004
H       -1.94196075      -1.11207607      -0.78584073
H       -2.37900561      -1.33133022       0.91229279
H       -1.10960283      -2.34603212       0.20287471
H       -0.10354247      -0.54868496       1.62469824
H        2.26830166       0.97280178      -1.57393056
H       -0.00138420       2.96477370      -0.28830270
13
Frame=14 idx=009877 GeodesicLength=1.4982746836614769 rxn_smarts="[C:1]([C@@:2]([O:3][C:4](=[O:5])[H:12])([C:6]#[C:7][H:13])[H:11])([H:8])([H:9])[H:10]>>[C:1]([C:2](=[C:6]=[C:7]([C:4]1([H:12])[O:3][O:5]1)[H:13])[H:11])([H:8])([H:9])[H:10]"
C       -1.54376064      -1.34629841       0.20971948
C       -0.46986025      -0.36643693       0.60159124
O        1.16549131      -0.46597347      -0.70775624
C        1.89367335       0.66747947      -0.58040423
O        2.66480099      -0.02195158       0.18779178
C       -0.59659505       0.97326986       0.30090012
C        0.09675428       1.92785395      -0.14159986
H       -1.95602958      -1.11406019      -0.77121962
H       -2.35947349      -1.33302173       0.93456424
H       -1.09655066      -2.34214702       0.20359012
H       -0.08170891      -0.53950857       1.60598279
H        2.33370712       0.98119414      -1.53699220
H       -0.05044847       2.97960048      -0.30616763
13
Frame=15 idx=009877 GeodesicLength=1.6060557783021012 rxn_smarts="[C:1]([C@@:2]([O:3][C:4](=[O:5])[H:12])([C:6]#[C:7][H:13])[H:11])([H:8])([H:9])[H:10]>>[C:1]([C:2](=[C:6]=[C:7]([C:4]1([H:12])[O:3][O:5]1)[H:13])[H:11])([H:8])([H:9])[H:10]"
C       -1.53588444      -1.34487153       0.21595183
C       -0.46064569      -0.35756042       0.58740720
O        1.14824017      -0.44274643      -0.75964753
C        1.91778374       0.65166455      -0.56811253
O        2.63466940      -0.10308317       0.19062000
C       -0.61522655       0.98574647       0.30518447
C        0.06270789       1.94940487      -0.13854811
H       -1.96772862      -1.11557589      -0.75732869
H       -2.33860919      -1.33532166       0.95513572
H       -1.08075687      -2.33724417       0.20324440
H       -0.06086378      -0.52878190       1.58808805
H        2.39752295       0.98327141      -1.49863198
H       -0.10120901       2.99509787      -0.32336283
13
Frame=16 idx=009877 GeodesicLength=1.7134753378176073 rxn_smarts="[C:1]([C@@:2]([O:3][C:4](=[O:5])[H:12])([C:6]#[C:7][H:13])[H:11])([H:8])([H:9])[H:10]>>[C:1]([C:2](=[C:6]=[C:7]([C:4]1([H:12])[O:3][O:5]1)[H:13])[H:11])([H:8])([H:9])[H:10]"
C       -1.52642712      -1.34252848       0.22125859
C       -0.45135025      -0.34736300       0.57434325
O        1.13173374      -0.41618460      -0.80801250
C        1.94220648       0.63314325      -0.55481539
O        2.60284702      -0.18571330       0.18740186
C       -0.63340871       0.99900823       0.31258416
C        0.02766855       1.97234834      -0.13240310
H       -1.97665266      -1.11569077      -0.74416714
H       -2.31673325      -1.33787689       0.97353266
H       -1.06296783      -2.33094476       0.20142893
H       -0.04086058      -0.51750572       1.57124090
H        2.45943005       0.97977758      -1.45863288
H       -0.15548544       3.00953012      -0.34375934
