14
Frame=0 idx=006283 GeodesicLength=0.0 rxn_smarts="[C:1]([C@@:2]1([H:10])[C:3]([H:11])([H:12])[O:4][C:5]([H:13])([H:14])[O:6]1)([H:7])([H:8])[H:9]>>[C:1]([C:2](=[C:3]([H:11])[H:12])[O:6][C:5]([O:4][H:10])([H:13])[H:14])([H:7])([H:8])[H:9]"
C       -1.84162726       0.01872460       0.56041621
C       -0.43992090      -0.01910706       0.01597058
C        0.16127138      -1.17466771      -0.54411777
O        1.98392036      -0.18553631       0.25557363
C        1.68126108       0.95743533      -0.28668743
O        0.10826268       1.14874462      -0.32685429
H       -2.14340820      -0.95264121       0.95325201
H       -1.90910449       0.76587786       1.34910938
H       -2.53153419       0.29732829      -0.23674635
H        0.31519815      -0.47583808       0.84636116
H       -0.13266722      -2.13905952      -0.14444919
H        0.83912191      -1.17221746      -1.38280958
H        1.97173897       1.84159728       0.29331678
H        1.93748778       1.08935935      -1.35233520
14
Frame=1 idx=006283 GeodesicLength=0.08891606498723868 rxn_smarts="[C:1]([C@@:2]1([H:10])[C:3]([H:11])([H:12])[O:4][C:5]([H:13])([H:14])[O:6]1)([H:7])([H:8])[H:9]>>[C:1]([C:2](=[C:3]([H:11])[H:12])[O:6][C:5]([O:4][H:10])([H:13])[H:14])([H:7])([H:8])[H:9]"
C       -1.84361116       0.01800678       0.55561671
C       -0.43462905      -0.02149361       0.03429578
C        0.16556576      -1.17284659      -0.53710309
O        1.98178784      -0.18887818       0.25146736
C        1.67299372       0.95927614      -0.29112553
O        0.11144098       1.14948219      -0.31548978
H       -2.15292984      -0.95416154       0.94039325
H       -1.92168993       0.76305185       1.34553733
H       -2.52078687       0.30130063      -0.25088403
H        0.34627090      -0.46936268       0.87343491
H       -0.12681523      -2.14006332      -0.14294854
H        0.81781242      -1.16894739      -1.39607528
H        1.97725566       1.83784778       0.28985187
H        1.92733480       1.08678794      -1.35697098
14
Frame=2 idx=006283 GeodesicLength=0.17778389447436588 rxn_smarts="[C:1]([C@@:2]1([H:10])[C:3]([H:11])([H:12])[O:4][C:5]([H:13])([H:14])[O:6]1)([H:7])([H:8])[H:9]>>[C:1]([C:2](=[C:3]([H:11])[H:12])[O:6][C:5]([O:4][H:10])([H:13])[H:14])([H:7])([H:8])[H:9]"
C       -1.84547528       0.01726618       0.55056591
C       -0.42934850      -0.02402824       0.05290052
C        0.16981313      -1.17099210      -0.53007836
O        1.97985031      -0.19231696       0.24721316
C        1.66463173       0.96108897      -0.29545082
O        0.11454771       1.15011703      -0.30381515
H       -2.16241700      -0.95568380       0.92694383
H       -1.93429098       0.76001589       1.34172826
H       -2.50957672       0.30543635      -0.26515652
H        0.37810200      -0.46252567       0.90060636
H       -0.12086075      -2.14101450      -0.14135313
H        0.79557586      -1.16558504      -1.40880027
H        1.98272518       1.83396784       0.28626124
H        1.91672330       1.08425402      -1.36156503
14
Frame=3 idx=006283 GeodesicLength=0.266642403653543 rxn_smarts="[C:1]([C@@:2]1([H:10])[C:3]([H:11])([H:12])[O:4][C:5]([H:13])([H:14])[O:6]1)([H:7])([H:8])[H:9]>>[C:1]([C:2](=[C:3]([H:11])[H:12])[O:6][C:5]([O:4][H:10])([H:13])[H:14])([H:7])([H:8])[H:9]"
C       -1.84719662       0.01650481       0.54526508
C       -0.42409811      -0.02671928       0.07174308
C        0.17400213      -1.16910340      -0.52308230
O        1.97804814      -0.19585253       0.24283433
C        1.65615110       0.96286880      -0.29964474
O        0.11757755       1.15064167      -0.29185648
H       -2.17182847      -0.95720101       0.91290206
H       -1.94686658       0.75677106       1.33767602
H       -2.49789287       0.30973715      -0.27953031
H        0.41071442      -0.45528232       0.92784507
H       -0.11480439      -2.14190955      -0.13968814
H        0.77241336      -1.16214859      -1.42093374
H        1.98811949       1.82995172       0.28255250
H        1.90566085       1.08174148      -1.36608244
14
Frame=4 idx=006283 GeodesicLength=0.3555097833890437 rxn_smarts="[C:1]([C@@:2]1([H:10])[C:3]([H:11])([H:12])[O:4][C:5]([H:13])([H:14])[O:6]1)([H:7])([H:8])[H:9]>>[C:1]([C:2](=[C:3]([H:11])[H:12])[O:6][C:5]([O:4][H:10])([H:13])[H:14])([H:7])([H:8])[H:9]"
C       -1.84875847       0.01572441       0.53971917
C       -0.41889720      -0.02957574       0.09077936
C        0.17811397      -1.16718108      -0.51615891
O        1.97633242      -0.19949001       0.23836200
C        1.64753590       0.96460867      -0.30368876
O        0.12052332       1.15104969      -0.27964240
H       -2.18113158      -0.95870463       0.89827989
H       -1.95938028       0.75332048       1.33337850
H       -2.48574355       0.31420387      -0.29396388
H        0.44412214      -0.44757867       0.95511940
H       -0.10865124      -2.14274896      -0.13798281
H        0.74836023      -1.15865960      -1.43244152
H        1.99341043       1.82579623       0.27873562
H        1.89416390       1.07923534      -1.37049565
14
Frame=5 idx=006283 GeodesicLength=0.444432020778149 rxn_smarts="[C:1]([C@@:2]1([H:10])[C:3]([H:11])([H:12])[O:4][C:5]([H:13])([H:14])[O:6]1)([H:7])([H:8])[H:9]>>[C:1]([C:2](=[C:3]([H:11])[H:12])[O:6][C:5]([O:4][H:10])([H:13])[H:14])([H:7])([H:8])[H:9]"
C       -1.85014249       0.01492837       0.53393104
C       -0.41376751      -0.03260974       0.10996219
C        0.18213473      -1.16523014      -0.50934422
O        1.97464308      -0.20322828       0.23382297
C        1.63876650       0.96630134      -0.30756539
O        0.12338219       1.15133015      -0.26719421
H       -2.19028709      -0.96018523       0.88307886
H       -1.97179471       0.74966871       1.32883408
H       -2.47313170       0.31884471      -0.30841990
H        0.47835281      -0.43936623       0.98239460
H       -0.10240845      -2.14353732      -0.13626592
H        0.72344137      -1.15513930      -1.44328274
H        1.99856948       1.82150100       0.27481646
H        1.88224179       1.07672195      -1.37476781
14
Frame=6 idx=006283 GeodesicLength=0.5334045478774172 rxn_smarts="[C:1]([C@@:2]1([H:10])[C:3]([H:11])([H:12])[O:4][C:5]([H:13])([H:14])[O:6]1)([H:7])([H:8])[H:9]>>[C:1]([C:2](=[C:3]([H:11])[H:12])[O:6][C:5]([O:4][H:10])([H:13])[H:14])([H:7])([H:8])[H:9]"
C       -1.85134259       0.01411602       0.52791545
C       -0.40872987      -0.03582657       0.12923253
C        0.18604334      -1.16324947      -0.50269181
O        1.97294522      -0.20707830       0.22926489
C        1.62984012       0.96793723      -0.31125548
O        0.12614537       1.15148320      -0.25454837
H       -2.19926874      -0.96163699       0.86733417
H       -1.98408007       0.74582076       1.32405197
H       -2.46009525       0.32365064      -0.32284986
H        0.51340635      -0.43057433       1.00963499
H       -0.09608954      -2.14427401      -0.13458235
H        0.69772096      -1.15161502      -1.45343667
H        2.00357138       1.81706624       0.27080816
H        1.86993333       1.07418059      -1.37887762
14
Frame=7 idx=006283 GeodesicLength=0.6224362387268392 rxn_smarts="[C:1]([C@@:2]1([H:10])[C:3]([H:11])([H:12])[O:4][C:5]([H:13])([H:14])[O:6]1)([H:7])([H:8])[H:9]>>[C:1]([C:2](=[C:3]([H:11])[H:12])[O:6][C:5]([O:4][H:10])([H:13])[H:14])([H:7])([H:8])[H:9]"
C       -1.85234720       0.01328922       0.52168380
C       -0.40380611      -0.03923790       0.14853575
C        0.18982090      -1.16124433      -0.49624822
O        1.97118716      -0.21104236       0.22472853
C        1.62074484       0.96950843      -0.31474096
O        0.12880869       1.15149950      -0.24173630
H       -2.20804530      -0.96305112       0.85106724
H       -1.99619936       0.74178325       1.31903807
H       -2.44665761       0.32862475      -0.33720675
H        0.54929078      -0.42113950       1.03680051
H       -0.08970730      -2.14496442      -0.13297217
H        0.67125685      -1.14811248      -1.46287729
H        2.00838921       1.81249303       0.26672153
H        1.85726443       1.07159394      -1.38279373
14
Frame=8 idx=006283 GeodesicLength=0.7115441080808181 rxn_smarts="[C:1]([C@@:2]1([H:10])[C:3]([H:11])([H:12])[O:4][C:5]([H:13])([H:14])[O:6]1)([H:7])([H:8])[H:9]>>[C:1]([C:2](=[C:3]([H:11])[H:12])[O:6][C:5]([O:4][H:10])([H:13])[H:14])([H:7])([H:8])[H:9]"
C       -1.85315718       0.01244876       0.51525338
C       -0.39902254      -0.04284952       0.16780118
C        0.19344704      -1.15921805      -0.49006194
O        1.96933119      -0.21512905       0.22026231
C        1.61147847       0.97100527      -0.31800219
O        0.13136605       1.15137850      -0.22879106
H       -2.21659169      -0.96442183       0.83431567
H       -2.00812239       0.73756318       1.31380763
H       -2.43286920       0.33376369      -0.35144154
H        0.58601232      -0.41098839       1.06385507
H       -0.08328087      -2.14561152      -0.13147840
H        0.64413224      -1.14466608      -1.47160060
H        2.01300210       1.80778205       0.26257306
H        1.84427446       1.06894299      -1.38649259
14
Frame=9 idx=006283 GeodesicLength=0.8005949349112305 rxn_smarts="[C:1]([C@@:2]1([H:10])[C:3]([H:11])([H:12])[O:4][C:5]([H:13])([H:14])[O:6]1)([H:7])([H:8])[H:9]>>[C:1]([C:2](=[C:3]([H:11])[H:12])[O:6][C:5]([O:4][H:10])([H:13])[H:14])([H:7])([H:8])[H:9]"
C       -1.85377509       0.01159585       0.50865421
C       -0.39439223      -0.04667910       0.18701565
C        0.19689002      -1.15718353      -0.48415026
O        1.96734900      -0.21934750       0.21594514
C        1.60204672       0.97241133      -0.32103197
O        0.13381293       1.15110159      -0.21573274
H       -2.22490803      -0.96573100       0.81712230
H       -2.01983714       0.73317552       1.30838688
H       -2.41876902       0.33906503      -0.36550212
H        0.62355304      -0.40005972       1.09073596
H       -0.07687069      -2.14623843      -0.13016449
H        0.61651814      -1.14127881      -1.47965853
H        2.01738381       1.80297308       0.25834914
H        1.83099855       1.06619569      -1.38996916
14
Frame=10 idx=006283 GeodesicLength=0.889719053026635 rxn_smarts="[C:1]([C@@:2]1([H:10])[C:3]([H:11])([H:12])[O:4][C:5]([H:13])([H:14])[O:6]1)([H:7])([H:8])[H:9]>>[C:1]([C:2](=[C:3]([H:11])[H:12])[O:6][C:5]([O:4][H:10])([H:13])[H:14])([H:7])([H:8])[H:9]"
C       -1.85419544       0.01072874       0.50189910
C       -0.38994834      -0.05072091       0.20605408
C        0.20014877      -1.15513712      -0.47858674
O        1.96516881      -0.22369894       0.21181768
C        1.59244065       0.97372175      -0.32380670
O        0.13614364       1.15068038      -0.20262940
H       -2.23294657      -0.96698678       0.79952602
H       -2.03128396       0.72861923       1.30279068
H       -2.40440723       0.34451971      -0.37934037
H        0.66191789      -0.38826451       1.11743499
H       -0.07045542      -2.14683093      -0.12906204
H        0.58840391      -1.13799187      -1.48701717
H        2.02151407       1.79802962       0.25409257
H        1.81749920       1.06333163      -1.39317271
14
Frame=11 idx=006283 GeodesicLength=0.9789089843987432 rxn_smarts="[C:1]([C@@:2]1([H:10])[C:3]([H:11])([H:12])[O:4][C:5]([H:13])([H:14])[O:6]1)([H:7])([H:8])[H:9]>>[C:1]([C:2](=[C:3]([H:11])[H:12])[O:6][C:5]([O:4][H:10])([H:13])[H:14])([H:7])([H:8])[H:9]"
C       -1.85441958       0.00984608       0.49501185
C       -0.38571283      -0.05498449       0.22485078
C        0.20320602      -1.15308654      -0.47341635
O        1.96274395      -0.22818948       0.20794922
C        1.58266186       0.97492480      -0.32631358
O        0.13835315       1.15010732      -0.18952754
H       -2.24069074      -0.96818570       0.78156609
H       -2.04242888       0.72389759       1.29704893
H       -2.38983545       0.35012767      -0.39290414
H        0.70109775      -0.37551284       1.14393039
H       -0.06405907      -2.14739830      -0.12822717
H        0.55988046      -1.13482054      -1.49370071
H        2.02537104       1.79295548       0.24981210
H        1.80383233       1.06031897      -1.39607987
14
Frame=12 idx=006283 GeodesicLength=1.0681328347943062 rxn_smarts="[C:1]([C@@:2]1([H:10])[C:3]([H:11])([H:12])[O:4][C:5]([H:13])([H:14])[O:6]1)([H:7])([H:8])[H:9]>>[C:1]([C:2](=[C:3]([H:11])[H:12])[O:6][C:5]([O:4][H:10])([H:13])[H:14])([H:7])([H:8])[H:9]"
C       -1.85446007       0.00894674       0.48801472
C       -0.38170803      -0.05947325       0.24334201
C        0.20605031      -1.15103731      -0.46866899
O        1.96004344      -0.23282523       0.20439705
C        1.57271816       0.97601038      -0.32854236
O        0.14043762       1.14938345      -0.17645869
H       -2.24813544      -0.96932459       0.76328301
H       -2.05325251       0.71901299       1.29119205
H       -2.37510816       0.35588539      -0.40615328
H        0.74109107      -0.36173150       1.17019708
H       -0.05770745      -2.14794672      -0.12770247
H        0.53103826      -1.13178543      -1.49974528
H        2.02894545       1.78775103       0.24552120
H        1.79004735       1.05713404      -1.39867605
14
Frame=13 idx=006283 GeodesicLength=1.1573866503222905 rxn_smarts="[C:1]([C@@:2]1([H:10])[C:3]([H:11])([H:12])[O:4][C:5]([H:13])([H:14])[O:6]1)([H:7])([H:8])[H:9]>>[C:1]([C:2](=[C:3]([H:11])[H:12])[O:6][C:5]([O:4][H:10])([H:13])[H:14])([H:7])([H:8])[H:9]"
C       -1.85432845       0.00802641       0.48093269
C       -0.37795276      -0.06419591       0.26146724
C        0.20866604      -1.14899685      -0.46438827
O        1.95702441      -0.23761357       0.20124345
C        1.56261744       0.97696444      -0.33048121
O        0.14239452       1.14850157      -0.16346359
H       -2.25527498      -0.97040449       0.74472184
H       -2.06373188       0.71396658       1.28525270
H       -2.36028404       0.36178789      -0.41904331
H        0.78190770      -0.34681564       1.19621358
H       -0.05142884      -2.14848546      -0.12755004
H        0.50195805      -1.12889242      -1.50519201
H        2.03222461       1.78242049       0.24122573
H        1.77620818       1.05373696      -1.40093880
14
Frame=14 idx=006283 GeodesicLength=1.246634369903297 rxn_smarts="[C:1]([C@@:2]1([H:10])[C:3]([H:11])([H:12])[O:4][C:5]([H:13])([H:14])[O:6]1)([H:7])([H:8])[H:9]>>[C:1]([C:2](=[C:3]([H:11])[H:12])[O:6][C:5]([O:4][H:10])([H:13])[H:14])([H:7])([H:8])[H:9]"
C       -1.85404450       0.00708350       0.47378838
C       -0.37446861      -0.06915619       0.27917221
C        0.21104077      -1.14696950      -0.46060139
O        1.95365756      -0.24256141       0.19855623
C        1.55237204       0.97777446      -0.33212277
O        0.14422033       1.14746291      -0.15056651
H       -2.26211534      -0.97142413       0.72592092
H       -2.07385796       0.70875772       1.27926475
H       -2.34542187       0.36783415      -0.43153965
H        0.82356757      -0.33069060       1.22194949
H       -0.04525201      -2.14901986      -0.12781343
H        0.47273074      -1.12615744      -1.51008718
H        2.03520464       1.77696783       0.23693571
H        1.76236664       1.05009857      -1.40285675
14
Frame=15 idx=006283 GeodesicLength=1.3358697736319889 rxn_smarts="[C:1]([C@@:2]1([H:10])[C:3]([H:11])([H:12])[O:4][C:5]([H:13])([H:14])[O:6]1)([H:7])([H:8])[H:9]>>[C:1]([C:2](=[C:3]([H:11])[H:12])[O:6][C:5]([O:4][H:10])([H:13])[H:14])([H:7])([H:8])[H:9]"
C       -1.85363055       0.00611409       0.46660352
C       -0.37127555      -0.07436185       0.29640771
C        0.21316036      -1.14496047      -0.45734171
O        1.94990643      -0.24767645       0.19641897
C        1.54199325       0.97842541      -0.33345756
O        0.14591355       1.14626298      -0.13779035
H       -2.26866683      -0.97238520       0.70691840
H       -2.08362418       0.70338464       1.27326255
H       -2.33058010       0.37402241      -0.44361064
H        0.86611295      -0.31326075       1.24737206
H       -0.03920770      -2.14955693      -0.12854604
H        0.44343534      -1.12358707      -1.51447935
H        2.03788387       1.77139831       0.23265600
H        1.74857916       1.04618087      -1.40441357
14
Frame=16 idx=006283 GeodesicLength=1.425085373552235 rxn_smarts="[C:1]([C@@:2]1([H:10])[C:3]([H:11])([H:12])[O:4][C:5]([H:13])([H:14])[O:6]1)([H:7])([H:8])[H:9]>>[C:1]([C:2](=[C:3]([H:11])[H:12])[O:6][C:5]([O:4][H:10])([H:13])[H:14])([H:7])([H:8])[H:9]"
C       -1.85311224       0.00511426       0.45939601
C       -0.36839199      -0.07982079       0.31313695
C        0.21501457      -1.14297450      -0.45463227
O        1.94573622      -0.25296277       0.19491452
C        1.53149170       0.97890343      -0.33447775
O        0.14747413       1.14489715      -0.12514465
H       -2.27495038      -0.97329105       0.68773988
H       -2.09303442       0.69784307       1.26727712
H       -2.31580976       0.38035464      -0.45523438
H        0.90960938      -0.29444095       1.27243880
H       -0.03332518      -2.15010298      -0.12979379
H        0.41413658      -1.12118235      -1.51841300
H        2.04026709       1.76571693       0.22838564
H        1.73489431       1.04194591      -1.40559308
