13
Frame=0 idx=003711 GeodesicLength=0.0 rxn_smarts="[C:1](/[C:2](=[N:3]/[O:4][H:10])[C:5]([O:6][H:13])([H:11])[H:12])([H:7])([H:8])[H:9]>>[C:1](/[C:2](=[N:3]\[O:4][H:10])[H:13])([H:7])([H:8])[H:9].[C:5](=[O:6])([H:11])[H:12]"
C       -0.71050678       1.35860257       0.07356393
C       -0.15685920      -0.01497281      -0.32182299
N       -0.98185217      -1.06751183      -0.38530405
O       -0.73658033      -1.94875268       0.59365126
C        1.32857154      -0.20071549       0.16642731
O        1.80515420       0.16486169      -1.02958616
H       -1.60927403       1.59140139      -0.49479427
H       -0.94644821       1.35003554       1.13811829
H        0.05822171       2.10058887      -0.13348293
H       -1.26674452      -2.72010712       0.36335753
H        1.50667124      -1.24576218       0.45985364
H        1.55787386       0.47318232       1.00591819
H        0.15177263       0.15914971      -1.43589970
13
Frame=1 idx=003711 GeodesicLength=0.11478298421876214 rxn_smarts="[C:1](/[C:2](=[N:3]/[O:4][H:10])[C:5]([O:6][H:13])([H:11])[H:12])([H:7])([H:8])[H:9]>>[C:1](/[C:2](=[N:3]\[O:4][H:10])[H:13])([H:7])([H:8])[H:9].[C:5](=[O:6])([H:11])[H:12]"
C       -0.72071062       1.35958982       0.07757150
C       -0.17147658      -0.01151563      -0.32248936
N       -0.99508591      -1.05942652      -0.38402059
O       -0.73666093      -1.94776831       0.58906455
C        1.34432352      -0.20433369       0.16526762
O        1.81246902       0.15280284      -1.03413480
H       -1.61708504       1.60078746      -0.49101762
H       -0.95639560       1.35139412       1.14218437
H        0.05051515       2.10048006      -0.12636927
H       -1.27245442      -2.71604492       0.36290437
H        1.53374109      -1.24513854       0.46700566
H        1.56021605       0.47411752       1.00392162
H        0.16860429       0.14505579      -1.44988806
13
Frame=2 idx=003711 GeodesicLength=0.2295295622985075 rxn_smarts="[C:1](/[C:2](=[N:3]/[O:4][H:10])[C:5]([O:6][H:13])([H:11])[H:12])([H:7])([H:8])[H:9]>>[C:1](/[C:2](=[N:3]\[O:4][H:10])[H:13])([H:7])([H:8])[H:9].[C:5](=[O:6])([H:11])[H:12]"
C       -0.73108626       1.36078219       0.08171613
C       -0.18656002      -0.00776541      -0.32360381
N       -1.00863714      -1.05118235      -0.38286687
O       -0.73681899      -1.94647376       0.58419344
C        1.36033691      -0.20809097       0.16416816
O        1.81985508       0.14026643      -1.03867162
H       -1.62508914       1.61061874      -0.48683770
H       -0.96637367       1.35269946       1.14641822
H        0.04280175       2.10037586      -0.11915581
H       -1.27781852      -2.71194128       0.36225282
H        1.56155038      -1.24425490       0.47455963
H        1.56227216       0.47506123       1.00177645
H        0.18556747       0.12990477      -1.46394903
13
Frame=3 idx=003711 GeodesicLength=0.34427391504294713 rxn_smarts="[C:1](/[C:2](=[N:3]/[O:4][H:10])[C:5]([O:6][H:13])([H:11])[H:12])([H:7])([H:8])[H:9]>>[C:1](/[C:2](=[N:3]\[O:4][H:10])[H:13])([H:7])([H:8])[H:9].[C:5](=[O:6])([H:11])[H:12]"
C       -0.74164761       1.36218709       0.08600514
C       -0.20214019      -0.00369579      -0.32520733
N       -1.02251368      -1.04277159      -0.38185877
O       -0.73704150      -1.94483924       0.57902600
C        1.37663098      -0.21199445       0.16313441
O        1.82731061       0.12724290      -1.04318745
H       -1.63329830       1.62091784      -0.48223258
H       -0.97638866       1.35392999       1.15082837
H        0.03507179       2.10027984      -0.11181771
H       -1.28284158      -2.70776161       0.36140882
H        1.59016395      -1.24308501       0.48251540
H        1.56401514       0.47598555       0.99947731
H        0.20267907       0.11360448      -1.47809161
13
Frame=4 idx=003711 GeodesicLength=0.45903656823128786 rxn_smarts="[C:1](/[C:2](=[N:3]/[O:4][H:10])[C:5]([O:6][H:13])([H:11])[H:12])([H:7])([H:8])[H:9]>>[C:1](/[C:2](=[N:3]\[O:4][H:10])[H:13])([H:7])([H:8])[H:9].[C:5](=[O:6])([H:11])[H:12]"
C       -0.75240867       1.36381263       0.09044555
C       -0.21824864       0.00072238      -0.32734811
N       -1.03672447      -1.03418400      -0.38101409
O       -0.73732274      -1.94282443       0.57355486
C        1.39322455      -0.21605252       0.16217035
O        1.83483217       0.11372078      -1.04767393
H       -1.64172398       1.63171116      -0.47717767
H       -0.98644716       1.35505984       1.15542248
H        0.02731615       2.10019657      -0.10432549
H       -1.28752098      -2.70347376       0.36037182
H        1.61965354      -1.24159181       0.49087229
H        1.56541585       0.47685688       0.99701943
H        0.21995438       0.09604629      -1.49231750
13
Frame=5 idx=003711 GeodesicLength=0.5738512111244898 rxn_smarts="[C:1](/[C:2](=[N:3]/[O:4][H:10])[C:5]([O:6][H:13])([H:11])[H:12])([H:7])([H:8])[H:9]>>[C:1](/[C:2](=[N:3]\[O:4][H:10])[H:13])([H:7])([H:8])[H:9].[C:5](=[O:6])([H:11])[H:12]"
C       -0.76338521       1.36566240       0.09504471
C       -0.23491777       0.00551865      -0.33007911
N       -1.05127282      -1.02541326      -0.38035918
O       -0.73765364      -1.94038789       0.56777332
C        1.41014032      -0.22027193       0.16128025
O        1.84241958       0.09969500      -1.05212094
H       -1.65037842       1.64302395      -0.47164956
H       -0.99655962       1.35605495       1.16020672
H        0.01952389       2.10012802      -0.09664833
H       -1.29186043      -2.69903300       0.35916106
H        1.65008936      -1.23974640       0.49961952
H        1.56644090       0.47763579       0.99440020
H        0.23741386       0.07713372      -1.50662865
13
Frame=6 idx=003711 GeodesicLength=0.6887095644311221 rxn_smarts="[C:1](/[C:2](=[N:3]/[O:4][H:10])[C:5]([O:6][H:13])([H:11])[H:12])([H:7])([H:8])[H:9]>>[C:1](/[C:2](=[N:3]\[O:4][H:10])[H:13])([H:7])([H:8])[H:9].[C:5](=[O:6])([H:11])[H:12]"
C       -0.77459286       1.36774232       0.09980568
C       -0.25218360       0.01072870      -0.33347892
N       -1.06616823      -1.01644571      -0.37992471
O       -0.73804048      -1.93746365       0.56168574
C        1.42739991      -0.22466718       0.16046629
O        1.85007121       0.08515324      -1.05651879
H       -1.65927494       1.65488899      -0.46561359
H       -1.00673261       1.35686576       1.16518427
H        0.01168594       2.10007447      -0.08874823
H       -1.29584026      -2.69439192       0.35778033
H        1.68155680      -1.23749681       0.50875115
H        1.56704875       0.47827162       0.99161740
H        0.25507039       0.05674014      -1.52100663
13
Frame=7 idx=003711 GeodesicLength=0.8036242859917717 rxn_smarts="[C:1](/[C:2](=[N:3]/[O:4][H:10])[C:5]([O:6][H:13])([H:11])[H:12])([H:7])([H:8])[H:9]>>[C:1](/[C:2](=[N:3]\[O:4][H:10])[H:13])([H:7])([H:8])[H:9].[C:5](=[O:6])([H:11])[H:12]"
C       -0.78604803       1.37005358       0.10473203
C       -0.27008141       0.01639017      -0.33762357
N       -1.08141246      -1.00727071      -0.37975002
O       -0.73848230      -1.93398644       0.55529915
C        1.44502873      -0.22924608       0.15973330
O        1.85778442       0.07008971      -1.06085746
H       -1.66842644       1.66733970      -0.45904127
H       -1.01697825       1.35744289       1.17035455
H        0.00379104       2.10003604      -0.08058694
H       -1.29944640      -2.68950557       0.35625530
H        1.71413284      -1.23480778       0.51824872
H        1.56719597       0.47870358       0.98867075
H        0.27294228       0.03476091      -1.53543451
13
Frame=8 idx=003711 GeodesicLength=0.9185784666077175 rxn_smarts="[C:1](/[C:2](=[N:3]/[O:4][H:10])[C:5]([O:6][H:13])([H:11])[H:12])([H:7])([H:8])[H:9]>>[C:1](/[C:2](=[N:3]\[O:4][H:10])[H:13])([H:7])([H:8])[H:9].[C:5](=[O:6])([H:11])[H:12]"
C       -0.79776657       1.37259952       0.10982511
C       -0.28865163       0.02254976      -0.34261278
N       -1.09701430      -0.99786888      -0.37988035
O       -0.73899710      -1.92986781       0.54863466
C        1.46305173      -0.23402796       0.15908333
O        1.86555341       0.05448479      -1.06512812
H       -1.67784585       1.68041347      -0.45188928
H       -1.02730450       1.35772000       1.17571313
H       -0.00416976       2.10000841      -0.07212099
H       -1.30263752      -2.68431962       0.35458720
H        1.74791413      -1.23161376       0.52810268
H        1.56682996       0.47886192       0.98555734
H        0.29103798       0.01106017      -1.54987193
13
Frame=9 idx=003711 GeodesicLength=1.0332534640960371 rxn_smarts="[C:1](/[C:2](=[N:3]/[O:4][H:10])[C:5]([O:6][H:13])([H:11])[H:12])([H:7])([H:8])[H:9]>>[C:1](/[C:2](=[N:3]\[O:4][H:10])[H:13])([H:7])([H:8])[H:9].[C:5](=[O:6])([H:11])[H:12]"
C       -0.80975887       1.37533189       0.11504019
C       -0.30797468       0.02928406      -0.34877125
N       -1.11296953      -0.98820107      -0.38042827
O       -0.73966317      -1.92484246       0.54181240
C        1.48151404      -0.23908356       0.15851664
O        1.87335883       0.03831015      -1.06931305
H       -1.68753306       1.69417050      -0.44409335
H       -1.03771203       1.35745540       1.18119595
H       -0.01218947       2.09995063      -0.06327340
H       -1.30527465      -2.67869966       0.35285463
H        1.78309016      -1.22781001       0.53824506
H        1.56578962       0.47856874       0.98230038
H        0.30932281      -0.01443460      -1.56408593
13
Frame=10 idx=003711 GeodesicLength=1.1479526482394051 rxn_smarts="[C:1](/[C:2](=[N:3]/[O:4][H:10])[C:5]([O:6][H:13])([H:11])[H:12])([H:7])([H:8])[H:9]>>[C:1](/[C:2](=[N:3]\[O:4][H:10])[H:13])([H:7])([H:8])[H:9].[C:5](=[O:6])([H:11])[H:12]"
C       -0.82204085       1.37828964       0.12040528
C       -0.32806691       0.03661204      -0.35596850
N       -1.12928943      -0.97826462      -0.38137758
O       -0.74043409      -1.91897799       0.53477380
C        1.50042450      -0.24437790       0.15804844
O        1.88118400       0.02153409      -1.07341192
H       -1.69750444       1.70861650      -0.43563837
H       -1.04820990       1.35676097       1.18683746
H       -0.02028697       2.09987855      -0.05405909
H       -1.30738591      -2.67267658       0.35097033
H        1.81967037      -1.22336132       0.54870443
H        1.56412058       0.47781781       0.97888318
H        0.32781904      -0.04185117      -1.57816747
13
Frame=11 idx=003711 GeodesicLength=1.2627257714914737 rxn_smarts="[C:1](/[C:2](=[N:3]/[O:4][H:10])[C:5]([O:6][H:13])([H:11])[H:12])([H:7])([H:8])[H:9]>>[C:1](/[C:2](=[N:3]\[O:4][H:10])[H:13])([H:7])([H:8])[H:9].[C:5](=[O:6])([H:11])[H:12]"
C       -0.83462613       1.38147056       0.12591107
C       -0.34898729       0.04457782      -0.36427766
N       -1.14598237      -0.96804124      -0.38276958
O       -0.74132437      -1.91218259       0.52755060
C        1.51981524      -0.24992932       0.15768696
O        1.88900585       0.00412124      -1.07741081
H       -1.70776530       1.72378429      -0.42648898
H       -1.05880321       1.35558642       1.19262320
H       -0.02846494       2.09977633      -0.04445847
H       -1.30890976      -2.66620067       0.34891651
H        1.85776234      -1.21818731       0.55945196
H        1.56176252       0.47650495       0.97531843
H        0.34651741      -0.07128048      -1.59205320
13
Frame=12 idx=003711 GeodesicLength=1.3775512436656137 rxn_smarts="[C:1](/[C:2](=[N:3]/[O:4][H:10])[C:5]([O:6][H:13])([H:11])[H:12])([H:7])([H:8])[H:9]>>[C:1](/[C:2](=[N:3]\[O:4][H:10])[H:13])([H:7])([H:8])[H:9].[C:5](=[O:6])([H:11])[H:12]"
C       -0.84752734       1.38486803       0.13154356
C       -0.37079350       0.05323551      -0.37379569
N       -1.16305440      -0.95750415      -0.38465834
O       -0.74235551      -1.90434353       0.52018380
C        1.53971722      -0.25576014       0.15744071
O        1.89679336      -0.01397653      -1.08129996
H       -1.71831818       1.73970829      -0.41660449
H       -1.06949810       1.35386515       1.19853002
H       -0.03672591       2.09962597      -0.03444712
H       -1.30976073      -2.65921158       0.34666628
H        1.89748267      -1.21219737       0.57045696
H        1.55864939       0.47451364       0.97161835
H        0.36539104      -0.10282329      -1.60563408
13
Frame=13 idx=003711 GeodesicLength=1.4924287224868116 rxn_smarts="[C:1](/[C:2](=[N:3]/[O:4][H:10])[C:5]([O:6][H:13])([H:11])[H:12])([H:7])([H:8])[H:9]>>[C:1](/[C:2](=[N:3]\[O:4][H:10])[H:13])([H:7])([H:8])[H:9].[C:5](=[O:6])([H:11])[H:12]"
C       -0.86075505       1.38847858       0.13728178
C       -0.39355084       0.06264025      -0.38459971
N       -1.18051446      -0.94662481      -0.38708509
O       -0.74354542      -1.89534769       0.51273289
C        1.56016513      -0.26189191       0.15732244
O        1.90450352      -0.03282114      -1.08506693
H       -1.72916219       1.75642176      -0.40594981
H       -1.08029663       1.35154863       1.20452680
H       -0.04506695       2.09940149      -0.02401852
H       -1.30983122      -2.65167367       0.34416376
H        1.93894478      -1.20530588       0.58169169
H        1.55471073       0.47171330       0.96779376
H        0.38439862      -0.13653893      -1.61879305
13
Frame=14 idx=003711 GeodesicLength=1.6073618877427105 rxn_smarts="[C:1](/[C:2](=[N:3]/[O:4][H:10])[C:5]([O:6][H:13])([H:11])[H:12])([H:7])([H:8])[H:9]>>[C:1](/[C:2](=[N:3]\[O:4][H:10])[H:13])([H:7])([H:8])[H:9].[C:5](=[O:6])([H:11])[H:12]"
C       -0.87431550       1.39231144       0.14309921
C       -0.41734150       0.07284838      -0.39675166
N       -1.19839258      -0.93536646      -0.39007133
O       -0.74493404      -1.88506969       0.50527885
C        1.58118737      -0.26836298       0.15735209
O        1.91207323      -0.05250821      -1.08869357
H       -1.74028470       1.77396988      -0.39449239
H       -1.09119550       1.34861917       1.21057615
H       -0.05347111       2.09907227      -0.01318252
H       -1.30894097      -2.64357951       0.34127907
H        1.98228979      -1.19737412       0.59312753
H        1.54986619       0.46793732       0.96386964
H        0.40345933      -0.17249748      -1.63139106
13
Frame=15 idx=003711 GeodesicLength=1.7223344507113016 rxn_smarts="[C:1](/[C:2](=[N:3]/[O:4][H:10])[C:5]([O:6][H:13])([H:11])[H:12])([H:7])([H:8])[H:9]>>[C:1](/[C:2](=[N:3]\[O:4][H:10])[H:13])([H:7])([H:8])[H:9].[C:5](=[O:6])([H:11])[H:12]"
C       -0.88821118       1.39637995       0.14896456
C       -0.44225342       0.08391952      -0.41029123
N       -1.21672250      -0.92368714      -0.39362293
O       -0.74656201      -1.87337964       0.49792581
C        1.60281021      -0.27521247       0.15755174
O        1.91942092      -0.07315564      -1.09216008
H       -1.75166451       1.79240056      -0.38221263
H       -1.10219016       1.34508077       1.21663331
H       -0.06191546       2.09860503      -0.00196562
H       -1.30686393      -2.63495028       0.33783263
H        2.02765213      -1.18826359       0.60473586
H        1.54403228       0.46300373       0.95986972
H        0.42246764      -0.21074078      -1.64326113
13
Frame=16 idx=003711 GeodesicLength=1.8373297504361707 rxn_smarts="[C:1](/[C:2](=[N:3]/[O:4][H:10])[C:5]([O:6][H:13])([H:11])[H:12])([H:7])([H:8])[H:9]>>[C:1](/[C:2](=[N:3]\[O:4][H:10])[H:13])([H:7])([H:8])[H:9].[C:5](=[O:6])([H:11])[H:12]"
C       -0.90243976       1.40071444       0.15483522
C       -0.46839928       0.09591112      -0.42523204
N       -1.23556209      -0.91153716      -0.39770923
O       -0.74849068      -1.86013212       0.49081604
C        1.62505493      -0.28249363       0.15795319
O        1.92643613      -0.09492700      -1.09543822
H       -1.76326654       1.81177627      -0.36910018
H       -1.11326591       1.34097919       1.22264569
H       -0.07035842       2.09796188       0.00957465
H       -1.30327495      -2.62585340       0.33353615
H        2.07518560      -1.17778963       0.61648723
H        1.53711166       0.45668870       0.95583177
H        0.44126930      -0.25129865      -1.65420027
