11
Frame=0 idx=006226 GeodesicLength=0.0 rxn_smarts="[O:1]=[C:2]1[C:3]([H:7])([H:8])[C:4]([H:9])=[C:5]([H:10])[N:6]1[H:11]>>[O:1]=[C:2]1[C@:5]([C:4](=[C:3]([H:7])[H:8])[H:9])([H:10])[N:6]1[H:11]"
O       -1.17625187       2.14539251       0.92491946
C       -0.33380184       1.45352383       0.50581387
C       -1.16784956      -0.90639757      -0.51843824
C        0.14384935      -1.12787320      -0.25372863
C        1.01722016      -0.22909640       0.38316103
N        0.87870994       1.18585648       0.22139095
H       -1.69021280      -1.49163784      -1.26567982
H       -1.77354647      -0.23567337       0.07397306
H        0.59480188      -2.06391595      -0.58627778
H        1.97489184      -0.53160874       0.78242586
H        1.53218939       1.80143027      -0.26755978
11
Frame=1 idx=006226 GeodesicLength=0.0723567671268844 rxn_smarts="[O:1]=[C:2]1[C:3]([H:7])([H:8])[C:4]([H:9])=[C:5]([H:10])[N:6]1[H:11]>>[O:1]=[C:2]1[C@:5]([C:4](=[C:3]([H:7])[H:8])[H:9])([H:10])[N:6]1[H:11]"
O       -1.17108681       2.13286376       0.91121101
C       -0.33680272       1.42641515       0.49452203
C       -1.16095089      -0.88078686      -0.51863976
C        0.14680478      -1.12936601      -0.24231247
C        1.01312974      -0.22792260       0.40043055
N        0.88763166       1.18586140       0.21466171
H       -1.67716025      -1.43422654      -1.29416942
H       -1.78435522      -0.27812148       0.12695469
H        0.59813695      -2.05693997      -0.59494284
H        1.96561584      -0.53055007       0.81211842
H        1.51903694       1.79277321      -0.30983392
11
Frame=2 idx=006226 GeodesicLength=0.1446801215376598 rxn_smarts="[O:1]=[C:2]1[C:3]([H:7])([H:8])[C:4]([H:9])=[C:5]([H:10])[N:6]1[H:11]>>[O:1]=[C:2]1[C@:5]([C:4](=[C:3]([H:7])[H:8])[H:9])([H:10])[N:6]1[H:11]"
O       -1.16627039       2.11969304       0.89930530
C       -0.33921067       1.39964880       0.48568470
C       -1.15475213      -0.85695199      -0.51621070
C        0.14998070      -1.13052810      -0.23279244
C        1.00939082      -0.22637592       0.41563447
N        0.89579614       1.18590667       0.20710598
H       -1.66497443      -1.37872233      -1.31763753
H       -1.79312145      -0.31697266       0.16985245
H        0.60088468      -2.05115268      -0.60166848
H        1.95662458      -0.52878373       0.83981274
H        1.50565215       1.78423890      -0.34908647
11
Frame=3 idx=006226 GeodesicLength=0.21720596829673797 rxn_smarts="[O:1]=[C:2]1[C:3]([H:7])([H:8])[C:4]([H:9])=[C:5]([H:10])[N:6]1[H:11]>>[O:1]=[C:2]1[C@:5]([C:4](=[C:3]([H:7])[H:8])[H:9])([H:10])[N:6]1[H:11]"
O       -1.16155727       2.10622660       0.88735751
C       -0.34097963       1.37329192       0.47804524
C       -1.14908593      -0.83468322      -0.51176249
C        0.15347972      -1.13103626      -0.22572684
C        1.00571607      -0.22452719       0.42887691
N        0.90344491       1.18593629       0.19895375
H       -1.65410380      -1.32515002      -1.33615324
H       -1.79985581      -0.35394055       0.20660434
H        0.60338020      -2.04555276      -0.60837967
H        1.94667785      -0.52662881       0.86705337
H        1.49288369       1.77606400      -0.38486888
11
Frame=4 idx=006226 GeodesicLength=0.28970927500927124 rxn_smarts="[O:1]=[C:2]1[C:3]([H:7])([H:8])[C:4]([H:9])=[C:5]([H:10])[N:6]1[H:11]>>[O:1]=[C:2]1[C@:5]([C:4](=[C:3]([H:7])[H:8])[H:9])([H:10])[N:6]1[H:11]"
O       -1.15668181       2.09235954       0.87802737
C       -0.34228819       1.34747411       0.47230831
C       -1.14357635      -0.81328986      -0.50664328
C        0.15677913      -1.13166499      -0.21857631
C        1.00220005      -0.22244183       0.44114229
N        0.91036448       1.18588263       0.19016922
H       -1.64271102      -1.27303293      -1.35228728
H       -1.80617449      -0.38804265       0.23611825
H        0.60516471      -2.04123922      -0.61246506
H        1.93762830      -0.52371085       0.89164913
H        1.47929519       1.76770607      -0.41944265
11
Frame=5 idx=006226 GeodesicLength=0.3621585823977135 rxn_smarts="[O:1]=[C:2]1[C:3]([H:7])([H:8])[C:4]([H:9])=[C:5]([H:10])[N:6]1[H:11]>>[O:1]=[C:2]1[C@:5]([C:4](=[C:3]([H:7])[H:8])[H:9])([H:10])[N:6]1[H:11]"
O       -1.15192532       2.07865233       0.86868386
C       -0.34321636       1.32239048       0.46694572
C       -1.13856663      -0.79311531      -0.50054736
C        0.16036793      -1.13181883      -0.21337972
C        0.99878123      -0.22016178       0.45196148
N        0.91688880       1.18579898       0.18084754
H       -1.63261110      -1.22291604      -1.36496725
H       -1.81138755      -0.42094143       0.26191902
H        0.60679522      -2.03746412      -0.61639669
H        1.92805622      -0.52052049       0.91570396
H        1.46681756       1.76009621      -0.45077056
11
Frame=6 idx=006226 GeodesicLength=0.434721835945996 rxn_smarts="[O:1]=[C:2]1[C:3]([H:7])([H:8])[C:4]([H:9])=[C:5]([H:10])[N:6]1[H:11]>>[O:1]=[C:2]1[C@:5]([C:4](=[C:3]([H:7])[H:8])[H:9])([H:10])[N:6]1[H:11]"
O       -1.14703027       2.06496241       0.86038265
C       -0.34369198       1.29783000       0.46279346
C       -1.13371600      -0.77378262      -0.49389545
C        0.16385310      -1.13197024      -0.20838382
C        0.99541995      -0.21773515       0.46207560
N        0.92295481       1.18557952       0.17121901
H       -1.62233077      -1.17378539      -1.37573571
H       -1.81620750      -0.45236126       0.28349556
H        0.60807664      -2.03421710      -0.61932969
H        1.91871550      -0.51681643       0.93840710
H        1.45395652       1.75229626      -0.48102870
11
Frame=7 idx=006226 GeodesicLength=0.5073254196165345 rxn_smarts="[O:1]=[C:2]1[C:3]([H:7])([H:8])[C:4]([H:9])=[C:5]([H:10])[N:6]1[H:11]>>[O:1]=[C:2]1[C@:5]([C:4](=[C:3]([H:7])[H:8])[H:9])([H:10])[N:6]1[H:11]"
O       -1.14215881       2.05150560       0.85263462
C       -0.34384265       1.27389586       0.45934840
C       -1.12915011      -0.75532628      -0.48669753
C        0.16742127      -1.13203679      -0.20404778
C        0.99220306      -0.21521806       0.47140668
N        0.92866803       1.18522265       0.16122823
H       -1.61238203      -1.12566781      -1.38457711
H       -1.82059758      -0.48272403       0.30201244
H        0.60928216      -2.03141525      -0.62190189
H        1.90933194      -0.51278154       0.96053043
H        1.44122472       1.74454565      -0.50993647
11
Frame=8 idx=006226 GeodesicLength=0.5800211721990368 rxn_smarts="[O:1]=[C:2]1[C:3]([H:7])([H:8])[C:4]([H:9])=[C:5]([H:10])[N:6]1[H:11]>>[O:1]=[C:2]1[C@:5]([C:4](=[C:3]([H:7])[H:8])[H:9])([H:10])[N:6]1[H:11]"
O       -1.13720511       2.03826843       0.84535008
C       -0.34364993       1.25052643       0.45658016
C       -1.12478543      -0.73768661      -0.47901291
C        0.17101982      -1.13206033      -0.20018188
C        0.98907776      -0.21263069       0.48006893
N        0.93403856       1.18470218       0.15092587
H       -1.60256016      -1.07830505      -1.39172015
H       -1.82457967      -0.51222397       0.31783432
H        0.61039202      -2.02892983      -0.62420712
H        1.89980318      -0.50840321       0.98215006
H        1.42844894       1.73674265      -0.53778737
11
Frame=9 idx=006226 GeodesicLength=0.6528724166234021 rxn_smarts="[O:1]=[C:2]1[C:3]([H:7])([H:8])[C:4]([H:9])=[C:5]([H:10])[N:6]1[H:11]>>[O:1]=[C:2]1[C@:5]([C:4](=[C:3]([H:7])[H:8])[H:9])([H:10])[N:6]1[H:11]"
O       -1.13211448       2.02524163       0.83837945
C       -0.34311755       1.22768596       0.45437279
C       -1.12058370      -0.72082376      -0.47087329
C        0.17463851      -1.13203869      -0.19674239
C        0.98600847      -0.20999224       0.48812353
N        0.93909898       1.18400662       0.14034035
H       -1.59283599      -1.03156718      -1.39723261
H       -1.82814506      -0.54105879       0.33132707
H        0.61143124      -2.02662031      -0.62641491
H        1.88998396      -0.50370286       1.00342050
H        1.41563562       1.72886962      -0.56470048
11
Frame=10 idx=006226 GeodesicLength=0.725878795997562 rxn_smarts="[O:1]=[C:2]1[C:3]([H:7])([H:8])[C:4]([H:9])=[C:5]([H:10])[N:6]1[H:11]>>[O:1]=[C:2]1[C@:5]([C:4](=[C:3]([H:7])[H:8])[H:9])([H:10])[N:6]1[H:11]"
O       -1.12695698       2.01247581       0.83183743
C       -0.34229555       1.20536355       0.45278472
C       -1.11652010      -0.70462509      -0.46238840
C        0.17828392      -1.13202805      -0.19355406
C        0.98305617      -0.20733428       0.49569170
N        0.94386292       1.18311079       0.12950249
H       -1.58309357      -0.98528732      -1.40136877
H       -1.83144352      -0.56921531       0.34261586
H        0.61247272      -2.02450375      -0.62848516
H        1.88004069      -0.49870429       1.02436904
H        1.40259330       1.72074794      -0.59100485
11
Frame=11 idx=006226 GeodesicLength=0.7989980492886773 rxn_smarts="[O:1]=[C:2]1[C:3]([H:7])([H:8])[C:4]([H:9])=[C:5]([H:10])[N:6]1[H:11]>>[O:1]=[C:2]1[C@:5]([C:4](=[C:3]([H:7])[H:8])[H:9])([H:10])[N:6]1[H:11]"
O       -1.12169423       1.99999906       0.82564476
C       -0.34120044       1.18357571       0.45166463
C       -1.11261578      -0.68903940      -0.45364607
C        0.18195007      -1.13197920      -0.19069752
C        0.98020804      -0.20464720       0.50278443
N        0.94839781       1.18204429       0.11846485
H       -1.57349173      -0.93975928      -1.40409233
H       -1.83450876      -0.59676653       0.35189102
H        0.61348740      -2.02255018      -0.63048846
H        1.86993388      -0.49342583       1.04500126
H        1.38953373       1.71254856      -0.61652657
11
Frame=12 idx=006226 GeodesicLength=0.8722033036620283 rxn_smarts="[O:1]=[C:2]1[C:3]([H:7])([H:8])[C:4]([H:9])=[C:5]([H:10])[N:6]1[H:11]>>[O:1]=[C:2]1[C@:5]([C:4](=[C:3]([H:7])[H:8])[H:9])([H:10])[N:6]1[H:11]"
O       -1.11631204       1.98782529       0.81984244
C       -0.33986474       1.16232520       0.45096822
C       -1.10884247      -0.67396714      -0.44473924
C        0.18561426      -1.13187355      -0.18812122
C        0.97744259      -0.20193296       0.50946114
N        0.95271083       1.18082308       0.10729384
H       -1.56401546      -0.89515718      -1.40547073
H       -1.83739822      -0.62368023       0.35918380
H        0.61443354      -2.02077640      -0.63232747
H        1.85975544      -0.48790254       1.06514884
H        1.37647629       1.70431641      -0.64123960
11
Frame=13 idx=006226 GeodesicLength=0.9455208384609235 rxn_smarts="[O:1]=[C:2]1[C:3]([H:7])([H:8])[C:4]([H:9])=[C:5]([H:10])[N:6]1[H:11]>>[O:1]=[C:2]1[C@:5]([C:4](=[C:3]([H:7])[H:8])[H:9])([H:10])[N:6]1[H:11]"
O       -1.11070256       1.97591387       0.81451334
C       -0.33826846       1.14156512       0.45075588
C       -1.10511384      -0.65933265      -0.43571884
C        0.18921140      -1.13172898      -0.18568192
C        0.97472484      -0.19918250       0.51574131
N        0.95676419       1.17946316       0.09602661
H       -1.55443556      -0.85146174      -1.40561906
H       -1.84013115      -0.64993871       0.36443077
H        0.61518717      -2.01921084      -0.63382958
H        1.84953609      -0.48211356       1.08462055
H        1.36322789       1.69602684      -0.66523906
11
Frame=14 idx=006226 GeodesicLength=1.0188495095643106 rxn_smarts="[O:1]=[C:2]1[C:3]([H:7])([H:8])[C:4]([H:9])=[C:5]([H:10])[N:6]1[H:11]>>[O:1]=[C:2]1[C@:5]([C:4](=[C:3]([H:7])[H:8])[H:9])([H:10])[N:6]1[H:11]"
O       -1.10499345       1.96437468       0.80936783
C       -0.33649440       1.12136508       0.45071863
C       -1.10156313      -0.64514598      -0.42658819
C        0.19282765      -1.13144002      -0.18367844
C        0.97205211      -0.19640520       0.52165309
N        0.96067632       1.17798403       0.08473297
H       -1.54528482      -0.80904854      -1.40444844
H       -1.84264634      -0.67566246       0.36806288
H        0.61586554      -2.01780481      -0.63524561
H        1.83923532      -0.47617286       1.10358898
H        1.35032520       1.68795607      -0.68816369
11
Frame=15 idx=006226 GeodesicLength=1.0921911752885318 rxn_smarts="[O:1]=[C:2]1[C:3]([H:7])([H:8])[C:4]([H:9])=[C:5]([H:10])[N:6]1[H:11]>>[O:1]=[C:2]1[C@:5]([C:4](=[C:3]([H:7])[H:8])[H:9])([H:10])[N:6]1[H:11]"
O       -1.09916408       1.95317970       0.80454673
C       -0.33455519       1.10167885       0.45097552
C       -1.09814010      -0.63133201      -0.41739269
C        0.19641765      -1.13105058      -0.18192301
C        0.96943768      -0.19360190       0.52724991
N        0.96441867       1.17639270       0.07343628
H       -1.53633820      -0.76782347      -1.40217841
H       -1.84504856      -0.70078595       0.36998924
H        0.61639790      -2.01662428      -0.63637191
H        1.82902050      -0.47007449       1.12187574
H        1.33755373       1.68004143      -0.71020740
11
Frame=16 idx=006226 GeodesicLength=1.1655337782390471 rxn_smarts="[O:1]=[C:2]1[C:3]([H:7])([H:8])[C:4]([H:9])=[C:5]([H:10])[N:6]1[H:11]>>[O:1]=[C:2]1[C@:5]([C:4](=[C:3]([H:7])[H:8])[H:9])([H:10])[N:6]1[H:11]"
O       -1.09320827       1.94232431       0.80003816
C       -0.33246946       1.08248743       0.45150474
C       -1.09483893      -0.61786310      -0.40813902
C        0.19996869      -1.13055867      -0.18038529
C        0.96687102      -0.19077137       0.53255692
N        0.96799405       1.17470006       0.06216143
H       -1.52757824      -0.72780080      -1.39889966
H       -1.84734833      -0.72531914       0.37027400
H        0.61675338      -2.01568535      -0.63715676
H        1.81893919      -0.46383806       1.13942450
H        1.32491692       1.67232470      -0.73137901
