17
Frame=0 idx=010924 GeodesicLength=0.0 rxn_smarts="[O:1]([C:2]([C@@:3]1([H:11])[C:4]([H:12])([H:13])[C:5]([H:14])([H:15])[C:6]([H:16])([H:17])[O:7]1)([H:9])[H:10])[H:8]>>[O:1]([C:2]([C:3](=[O+:7][C-:6]([C:5]([C:4]([H:12])([H:13])[H:16])([H:14])[H:15])[H:17])[H:11])([H:9])[H:10])[H:8]"
O        2.82484908      -0.38546912      -1.43141448
C        2.12125779      -0.52492055      -0.20311748
C        0.68348524      -0.14627927      -0.30110967
C       -1.32608104      -0.79085667       0.81451373
C       -1.87593495       0.30935680      -0.11667321
C       -0.88935139       1.32214350       0.39487705
O        0.40451998       1.10650209       0.00269519
H        2.79503507       0.53851972      -1.68805975
H        2.59614162       0.05222999       0.59769134
H        2.19229529      -1.58292246       0.05462687
H        0.09271523      -0.62960731      -1.06998946
H       -1.98008716      -0.90436894       1.68063416
H       -1.07752264      -1.77903296       0.43638018
H       -2.89845758       0.60059702       0.12663360
H       -1.83720609       0.10326247      -1.19031480
H       -0.72863924       0.32717018       1.39092445
H       -1.09701920       2.38367544       0.50170222
17
Frame=1 idx=010924 GeodesicLength=0.05506120715177922 rxn_smarts="[O:1]([C:2]([C@@:3]1([H:11])[C:4]([H:12])([H:13])[C:5]([H:14])([H:15])[C:6]([H:16])([H:17])[O:7]1)([H:9])[H:10])[H:8]>>[O:1]([C:2]([C:3](=[O+:7][C-:6]([C:5]([C:4]([H:12])([H:13])[H:16])([H:14])[H:15])[H:17])[H:11])([H:9])[H:10])[H:8]"
O        2.83568181      -0.37598196      -1.41511321
C        2.11586661      -0.52795584      -0.19788493
C        0.67807808      -0.15300717      -0.31247681
C       -1.31333385      -0.79212856       0.81058017
C       -1.87766800       0.31097613      -0.10792914
C       -0.88574133       1.32709671       0.38749174
O        0.39977923       1.10810163      -0.02747561
H        2.79594743       0.54831720      -1.66967274
H        2.57882681       0.04499528       0.61316572
H        2.18869938      -1.58751073       0.05321677
H        0.09787701      -0.63732050      -1.08887412
H       -1.95056138      -0.91121949       1.68848649
H       -1.10218129      -1.78389390       0.41801091
H       -2.89763726       0.59829868       0.14978311
H       -1.85281058       0.10640044      -1.18222504
H       -0.71604657       0.33548139       1.40009149
H       -1.09477610       2.38935069       0.48082518
17
Frame=2 idx=010924 GeodesicLength=0.10996087739914122 rxn_smarts="[O:1]([C:2]([C@@:3]1([H:11])[C:4]([H:12])([H:13])[C:5]([H:14])([H:15])[C:6]([H:16])([H:17])[O:7]1)([H:9])[H:10])[H:8]>>[O:1]([C:2]([C:3](=[O+:7][C-:6]([C:5]([C:4]([H:12])([H:13])[H:16])([H:14])[H:15])[H:17])[H:11])([H:9])[H:10])[H:8]"
O        2.84611665      -0.36623087      -1.39853372
C        2.11034860      -0.53073966      -0.19268010
C        0.67266930      -0.15999306      -0.32390736
C       -1.30091127      -0.79358464       0.80612063
C       -1.87910180       0.31270078      -0.09923425
C       -0.88181516       1.33174974       0.38010247
O        0.39486286       1.10897737      -0.05749692
H        2.79628304       0.55808748      -1.65143222
H        2.56102099       0.03825266       0.62823038
H        2.18548220      -1.59163815       0.05205577
H        0.10336868      -0.64553707      -1.10760670
H       -1.92100738      -0.91808711       1.69556708
H       -1.12746274      -1.78791138       0.40058428
H       -2.89618769       0.59634529       0.17292093
H       -1.86813455       0.10978550      -1.17398331
H       -0.70327397       0.34336248       1.40906290
H       -1.09225776       2.39446064       0.46023013
17
Frame=3 idx=010924 GeodesicLength=0.16513516899585348 rxn_smarts="[O:1]([C:2]([C@@:3]1([H:11])[C:4]([H:12])([H:13])[C:5]([H:14])([H:15])[C:6]([H:16])([H:17])[O:7]1)([H:9])[H:10])[H:8]>>[O:1]([C:2]([C:3](=[O+:7][C-:6]([C:5]([C:4]([H:12])([H:13])[H:16])([H:14])[H:15])[H:17])[H:11])([H:9])[H:10])[H:8]"
O        2.85618787      -0.35627127      -1.38172680
C        2.10481341      -0.53334534      -0.18747519
C        0.66727922      -0.16726432      -0.33539682
C       -1.28881141      -0.79527548       0.80114123
C       -1.88034845       0.31457430      -0.09064857
C       -0.87764245       1.33624771       0.37273406
O        0.38974324       1.10925190      -0.08733267
H        2.79601336       0.56785984      -1.63338954
H        2.54290385       0.03198209       0.64300260
H        2.18281158      -1.59548846       0.05116060
H        0.10916132      -0.65433894      -1.12626709
H       -1.89139419      -0.92502450       1.70190845
H       -1.15325113      -1.79128193       0.38410176
H       -2.89426777       0.59481381       0.19597020
H       -1.88335020       0.11342285      -1.16572700
H       -0.69027720       0.35087083       1.41793633
H       -1.08957105       2.39926692       0.44000844
17
Frame=4 idx=010924 GeodesicLength=0.22033000970929603 rxn_smarts="[O:1]([C:2]([C@@:3]1([H:11])[C:4]([H:12])([H:13])[C:5]([H:14])([H:15])[C:6]([H:16])([H:17])[O:7]1)([H:9])[H:10])[H:8]>>[O:1]([C:2]([C:3](=[O+:7][C-:6]([C:5]([C:4]([H:12])([H:13])[H:16])([H:14])[H:15])[H:17])[H:11])([H:9])[H:10])[H:8]"
O        2.86587367      -0.34602868      -1.36464876
C        2.09917970      -0.53574561      -0.18228255
C        0.66188785      -0.17479873      -0.34695931
C       -1.27705899      -0.79715912       0.79564068
C       -1.88134022       0.31657115      -0.08214117
C       -0.87317341       1.34051166       0.36534121
O        0.38442724       1.10889336      -0.11704114
H        2.79514959       0.57766223      -1.61549560
H        2.52435336       0.02613530       0.65745970
H        2.18054261      -1.59899061       0.05048796
H        0.11527855      -0.66367619      -1.14482645
H       -1.86175175      -0.93201653       1.70747947
H       -1.17952429      -1.79392328       0.36862938
H       -2.89177656       0.59363988       0.21897132
H       -1.89836638       0.11731233      -1.15737152
H       -0.67707091       0.35797026       1.42665145
H       -1.08663005       2.40364259       0.42010530
17
Frame=5 idx=010924 GeodesicLength=0.2756159423000897 rxn_smarts="[O:1]([C:2]([C@@:3]1([H:11])[C:4]([H:12])([H:13])[C:5]([H:14])([H:15])[C:6]([H:16])([H:17])[O:7]1)([H:9])[H:10])[H:8]>>[O:1]([C:2]([C:3](=[O+:7][C-:6]([C:5]([C:4]([H:12])([H:13])[H:16])([H:14])[H:15])[H:17])[H:11])([H:9])[H:10])[H:8]"
O        2.87514398      -0.33548338      -1.34726310
C        2.09338490      -0.53795782      -0.17709214
C        0.65648637      -0.18258388      -0.35865249
C       -1.26559818      -0.79925253       0.78963820
C       -1.88208874       0.31868141      -0.07368514
C       -0.86840897       1.34455826       0.35788650
O        0.37890983       1.10792033      -0.14668504
H        2.79377997       0.58752010      -1.59763604
H        2.50528218       0.02063730       0.67163191
H        2.17856861      -1.60214730       0.05005237
H        0.12173032      -0.67350955      -1.16332544
H       -1.83195468      -0.93910301       1.71233119
H       -1.20622681      -1.79585350       0.35406798
H       -2.88871541       0.59281506       0.24200314
H       -1.91324978       0.12144854      -1.14889714
H       -0.66360343       0.36469320       1.43521056
H       -1.08344015       2.40761676       0.40041468
17
Frame=6 idx=010924 GeodesicLength=0.3311822887177835 rxn_smarts="[O:1]([C:2]([C@@:3]1([H:11])[C:4]([H:12])([H:13])[C:5]([H:14])([H:15])[C:6]([H:16])([H:17])[O:7]1)([H:9])[H:10])[H:8]>>[O:1]([C:2]([C:3](=[O+:7][C-:6]([C:5]([C:4]([H:12])([H:13])[H:16])([H:14])[H:15])[H:17])[H:11])([H:9])[H:10])[H:8]"
O        2.88405696      -0.32465755      -1.32956693
C        2.08750230      -0.54002666      -0.17189178
C        0.65108275      -0.19063657      -0.37049250
C       -1.25444383      -0.80156402       0.78312653
C       -1.88266741       0.32092787      -0.06529429
C       -0.86338828       1.34846100       0.35037403
O        0.37316468       1.10640143      -0.17627150
H        2.79190834       0.59745758      -1.57980953
H        2.48579410       0.01546337       0.68559312
H        2.17699122      -1.60506879       0.04983418
H        0.12849275      -0.68389034      -1.18182585
H       -1.80198641      -0.94630569       1.71645922
H       -1.23329910      -1.79716965       0.34043112
H       -2.88517809       0.59237184       0.26506192
H       -1.92812127       0.12583399      -1.14034199
H       -0.64984571       0.37107561       1.44364518
H       -1.08006299       2.41132659       0.38096907
17
Frame=7 idx=010924 GeodesicLength=0.38675228942039724 rxn_smarts="[O:1]([C:2]([C@@:3]1([H:11])[C:4]([H:12])([H:13])[C:5]([H:14])([H:15])[C:6]([H:16])([H:17])[O:7]1)([H:9])[H:10])[H:8]>>[O:1]([C:2]([C:3](=[O+:7][C-:6]([C:5]([C:4]([H:12])([H:13])[H:16])([H:14])[H:15])[H:17])[H:11])([H:9])[H:10])[H:8]"
O        2.89254105      -0.31347421      -1.31152421
C        2.08142817      -0.54191073      -0.16669152
C        0.64565189      -0.19893538      -0.38247197
C       -1.24363267      -0.80404539       0.77609483
C       -1.88296900       0.32328739      -0.05695133
C       -0.85804263       1.35211864       0.34275814
O        0.36720284       1.10428759      -0.20583160
H        2.78947968       0.60750088      -1.56200341
H        2.46574226       0.01059436       0.69929829
H        2.17565969      -1.60766113       0.04981744
H        0.13560242      -0.69475819      -1.20028886
H       -1.77189779      -0.95361655       1.71980760
H       -1.26071963      -1.79778553       0.32783250
H       -2.88100766       0.59224590       0.28815733
H       -1.94282108       0.13048661      -1.13162980
H       -0.63583814       0.37705689       1.45189508
H       -1.07637938       2.41460883       0.36173149
17
Frame=8 idx=010924 GeodesicLength=0.4425799535742959 rxn_smarts="[O:1]([C:2]([C@@:3]1([H:11])[C:4]([H:12])([H:13])[C:5]([H:14])([H:15])[C:6]([H:16])([H:17])[O:7]1)([H:9])[H:10])[H:8]>>[O:1]([C:2]([C:3](=[O+:7][C-:6]([C:5]([C:4]([H:12])([H:13])[H:16])([H:14])[H:15])[H:17])[H:11])([H:9])[H:10])[H:8]"
O        2.90061119      -0.30196409      -1.29313058
C        2.07519289      -0.54365792      -0.16147456
C        0.64020904      -0.20749596      -0.39462558
C       -1.23311304      -0.80674097       0.76857394
C       -1.88308382       0.32576455      -0.04863944
C       -0.85241983       1.35561995       0.33502593
O        0.36101031       1.10163342      -0.23539308
H        2.78659191       0.61765298      -1.54412117
H        2.44517563       0.00597007       0.71279665
H        2.17460502      -1.60999130       0.05001987
H        0.14305501      -0.70613110      -1.21874895
H       -1.74155522      -0.96107836       1.72243666
H       -1.28845021      -1.79777162       0.31606801
H       -2.87631757       0.59246623       0.31135274
H       -1.95753071       0.13538328      -1.12277587
H       -0.62150665       0.38272094       1.46000748
H       -1.07247395       2.41761989       0.34262797
17
Frame=9 idx=010924 GeodesicLength=0.4985492163939828 rxn_smarts="[O:1]([C:2]([C@@:3]1([H:11])[C:4]([H:12])([H:13])[C:5]([H:14])([H:15])[C:6]([H:16])([H:17])[O:7]1)([H:9])[H:10])[H:8]>>[O:1]([C:2]([C:3](=[O+:7][C-:6]([C:5]([C:4]([H:12])([H:13])[H:16])([H:14])[H:15])[H:17])[H:11])([H:9])[H:10])[H:8]"
O        2.90818107      -0.29007961      -1.27443489
C        2.06879458      -0.54523503      -0.15624831
C        0.63476575      -0.21634270      -0.40685565
C       -1.22295571      -0.80963694       0.76054797
C       -1.88294553       0.32836652      -0.04039365
C       -0.84648055       1.35891246       0.32718650
O        0.35461451       1.09839229      -0.26488286
H        2.78308402       0.62793024      -1.52628265
H        2.42412581       0.00161978       0.72603333
H        2.17385438      -1.61200516       0.05045513
H        0.15091424      -0.71799769      -1.23712842
H       -1.71110352      -0.96869406       1.72426752
H       -1.31651637      -1.79712692       0.30528256
H       -2.87102767       0.59304301       0.33454625
H       -1.97210536       0.14055953      -1.11379881
H       -0.60693535       0.38800815       1.46800115
H       -1.06826430       2.42028610       0.32370482
17
Frame=10 idx=010924 GeodesicLength=0.5547528382194241 rxn_smarts="[O:1]([C:2]([C@@:3]1([H:11])[C:4]([H:12])([H:13])[C:5]([H:14])([H:15])[C:6]([H:16])([H:17])[O:7]1)([H:9])[H:10])[H:8]>>[O:1]([C:2]([C:3](=[O+:7][C-:6]([C:5]([C:4]([H:12])([H:13])[H:16])([H:14])[H:15])[H:17])[H:11])([H:9])[H:10])[H:8]"
O        2.91527029      -0.27785335      -1.25546852
C        2.06229598      -0.54666378      -0.15100733
C        0.62933748      -0.22548913      -0.41913784
C       -1.21319173      -0.81274111       0.75202076
C       -1.88260698       0.33110393      -0.03222133
C       -0.84025609       1.36203897       0.31925072
O        0.34800851       1.09460328      -0.29426868
H        2.77896115       0.63831230      -1.50851804
H        2.40270565      -0.00245404       0.73901846
H        2.17348800      -1.61374447       0.05113503
H        0.15918607      -0.73037885      -1.25542405
H       -1.68056454      -0.97648667       1.72528664
H       -1.34488349      -1.79590097       0.29542779
H       -2.86521328       0.59399308       0.35771933
H       -1.98661299       0.14601768      -1.10471702
H       -0.59213275       0.39294864       1.47591669
H       -1.06379130       2.42269449       0.30498739
17
Frame=11 idx=010924 GeodesicLength=0.6111023811998284 rxn_smarts="[O:1]([C:2]([C@@:3]1([H:11])[C:4]([H:12])([H:13])[C:5]([H:14])([H:15])[C:6]([H:16])([H:17])[O:7]1)([H:9])[H:10])[H:8]>>[O:1]([C:2]([C:3](=[O+:7][C-:6]([C:5]([C:4]([H:12])([H:13])[H:16])([H:14])[H:15])[H:17])[H:11])([H:9])[H:10])[H:8]"
O        2.92183527      -0.26522253      -1.23617888
C        2.05562264      -0.54793971      -0.14574838
C        0.62389427      -0.23492202      -0.43150146
C       -1.20382683      -0.81601953       0.74298926
C       -1.88200075       0.33396619      -0.02411311
C       -0.83370557       1.36495348       0.31117207
O        0.34117572       1.09026365      -0.32359851
H        2.77417678       0.64885618      -1.49078463
H        2.38080336      -0.00629960       0.75177773
H        2.17340503      -1.61520482       0.05203344
H        0.16787274      -0.74324374      -1.27365901
H       -1.64993059      -0.98446186       1.72545939
H       -1.37349590      -1.79406246       0.28660242
H       -2.85876223       0.59527469       0.38089573
H       -2.00097990       0.15177486      -1.09548890
H       -0.57709750       0.39750815       1.48371875
H       -1.05898652       2.42477907       0.28642408
17
Frame=12 idx=010924 GeodesicLength=0.66760325325689 rxn_smarts="[O:1]([C:2]([C@@:3]1([H:11])[C:4]([H:12])([H:13])[C:5]([H:14])([H:15])[C:6]([H:16])([H:17])[O:7]1)([H:9])[H:10])[H:8]>>[O:1]([C:2]([C:3](=[O+:7][C-:6]([C:5]([C:4]([H:12])([H:13])[H:16])([H:14])[H:15])[H:17])[H:11])([H:9])[H:10])[H:8]"
O        2.92781589      -0.25216985      -1.21657723
C        2.04872398      -0.54905879      -0.14048150
C        0.61845845      -0.24463402      -0.44393489
C       -1.19482503      -0.81950904       0.73347230
C       -1.88113617       0.33693053      -0.01603957
C       -0.82682440       1.36765215       0.30291957
O        0.33415974       1.08534103      -0.35287751
H        2.76880924       0.65954712      -1.47298319
H        2.35835708      -0.00998244       0.76425995
H        2.17350952      -1.61630721       0.05315420
H        0.17703449      -0.75652961      -1.29176569
H       -1.61910500      -0.99264892       1.72481396
H       -1.40238152      -1.79156991       0.27867134
H       -2.85168632       0.59687331       0.40412571
H       -2.01524421       0.15780313      -1.08607285
H       -0.56181831       0.40173425       1.49140900
H       -1.05384743       2.42652830       0.26790641
17
Frame=13 idx=010924 GeodesicLength=0.724412064558535 rxn_smarts="[O:1]([C:2]([C@@:3]1([H:11])[C:4]([H:12])([H:13])[C:5]([H:14])([H:15])[C:6]([H:16])([H:17])[O:7]1)([H:9])[H:10])[H:8]>>[O:1]([C:2]([C:3](=[O+:7][C-:6]([C:5]([C:4]([H:12])([H:13])[H:16])([H:14])[H:15])[H:17])[H:11])([H:9])[H:10])[H:8]"
O        2.93325506      -0.23869613      -1.19664097
C        2.04165657      -0.55007047      -0.13519685
C        0.61302069      -0.25465020      -0.45647282
C       -1.18620848      -0.82319153       0.72345796
C       -1.88005369       0.34002158      -0.00801930
C       -0.81964491       1.37019075       0.29448390
O        0.32691263       1.07989382      -0.38212325
H        2.76282978       0.67045014      -1.45509481
H        2.33544435      -0.01354010       0.77655162
H        2.17390216      -1.61717980       0.05446312
H        0.18664145      -0.77029368      -1.30983441
H       -1.58807675      -1.00105189       1.72332454
H       -1.43148346      -1.78851733       0.27172200
H       -2.84402054       0.59881856       0.42740653
H       -2.02948047       0.16411810      -1.07650254
H       -0.54627497       0.40564852       1.49901804
H       -1.04841943       2.42804966       0.24945723
17
Frame=14 idx=010924 GeodesicLength=0.7814454707849046 rxn_smarts="[O:1]([C:2]([C@@:3]1([H:11])[C:4]([H:12])([H:13])[C:5]([H:14])([H:15])[C:6]([H:16])([H:17])[O:7]1)([H:9])[H:10])[H:8]>>[O:1]([C:2]([C:3](=[O+:7][C-:6]([C:5]([C:4]([H:12])([H:13])[H:16])([H:14])[H:15])[H:17])[H:11])([H:9])[H:10])[H:8]"
O        2.93808537      -0.22477145      -1.17638481
C        2.03438960      -0.55095780      -0.12989528
C        0.60757747      -0.26497304      -0.46907218
C       -1.17800785      -0.82704578       0.71295317
C       -1.87870632       0.34323106      -0.00005002
C       -0.81214137       1.37252585       0.28585249
O        0.31944325       1.07389694      -0.41131368
H        2.75617252       0.68156330      -1.43714001
H        2.31204449      -0.01697839       0.78862000
H        2.17454615      -1.61777382       0.05597235
H        0.19672517      -0.78450986      -1.32780542
H       -1.55688142      -1.00967994       1.72095406
H       -1.46078085      -1.78485837       0.26574474
H       -2.83569579       0.60108344       0.45072229
H       -2.04361201       0.17073901      -1.06675479
H       -0.53050764       0.40922689       1.50655099
H       -1.04265079       2.42928197       0.23104610
17
Frame=15 idx=010924 GeodesicLength=0.8386957397042145 rxn_smarts="[O:1]([C:2]([C@@:3]1([H:11])[C:4]([H:12])([H:13])[C:5]([H:14])([H:15])[C:6]([H:16])([H:17])[O:7]1)([H:9])[H:10])[H:8]>>[O:1]([C:2]([C:3](=[O+:7][C-:6]([C:5]([C:4]([H:12])([H:13])[H:16])([H:14])[H:15])[H:17])[H:11])([H:9])[H:10])[H:8]"
O        2.94225750      -0.21041941      -1.15591939
C        2.02699179      -0.55170029      -0.12458237
C        0.60216897      -0.27562082      -0.48161461
C       -1.17029294      -0.83110121       0.70195382
C       -1.87710307       0.34656610       0.00782822
C       -0.80431995       1.37465675       0.27706852
O        0.31179606       1.06734325      -0.44032922
H        2.74875025       0.69283086      -1.41928686
H        2.28831833      -0.02024372       0.80040149
H        2.17553364      -1.61804501       0.05772744
H        0.20735365      -0.79915473      -1.34557045
H       -1.52567059      -1.01856571       1.71763999
H       -1.49031121      -1.78061692       0.26077545
H       -2.82675761       0.60369041       0.47395487
H       -2.05758306       0.17768793      -1.05687673
H       -0.51460674       0.41244707       1.51407689
H       -1.03652501       2.43024545       0.21275293
17
Frame=16 idx=010924 GeodesicLength=0.8961140828962778 rxn_smarts="[O:1]([C:2]([C@@:3]1([H:11])[C:4]([H:12])([H:13])[C:5]([H:14])([H:15])[C:6]([H:16])([H:17])[O:7]1)([H:9])[H:10])[H:8]>>[O:1]([C:2]([C:3](=[O+:7][C-:6]([C:5]([C:4]([H:12])([H:13])[H:16])([H:14])[H:15])[H:17])[H:11])([H:9])[H:10])[H:8]"
O        2.94572264      -0.19566761      -1.13534580
C        2.01950812      -0.55228289      -0.11926071
C        0.59681565      -0.28659751      -0.49400051
C       -1.16312270      -0.83535552       0.69047029
C       -1.87523727       0.35002475       0.01558637
C       -0.79618948       1.37656968       0.26816566
O        0.30399694       1.06023722      -0.46906746
H        2.74049461       0.70419855      -1.40167318
H        2.26439811      -0.02329593       0.81185200
H        2.17691396      -1.61796185       0.05976596
H        0.21856380      -0.81419502      -1.36303601
H       -1.49456633      -1.02772077       1.71334537
H       -1.52005906      -1.77579121       0.25680006
H       -2.81722384       0.60662829       0.49700770
H       -2.07132393       0.18498385      -1.04690486
H       -0.49866104       0.41528855       1.52166100
H       -1.03003020       2.43093743       0.19463414
