16
Frame=0 idx=001518 GeodesicLength=0.0 rxn_smarts="[C:1]([C@:2]12[C:3]([H:10])([H:11])[C@@:4]1([H:12])[C:5]([H:13])([H:14])[C:6]2([H:15])[H:16])([H:7])([H:8])[H:9]>>[C:1]([C:2]1([C:3]([H:10])([H:11])[H:12])[C:4][C:5]([H:13])([H:14])[C:6]1([H:15])[H:16])([H:7])([H:8])[H:9]"
C        1.83181251      -0.30696655       0.37669722
C        0.37645215      -0.04240400       0.10195248
C       -0.07120621       1.42239221       0.11689160
C       -0.72265736      -0.05849565       1.13674920
C       -1.65297247      -0.60912059       0.02470675
C       -0.45320479      -0.82229248      -0.92356201
H        2.15290183       0.21589155       1.27960946
H        2.46318637       0.01434900      -0.45617951
H        1.99968186      -1.37412144       0.53405536
H        0.71224873       2.07456491       0.48996121
H       -0.55042520       1.76464616      -0.79630025
H       -0.85610343       1.49036441       0.96708418
H       -2.11720093      -1.52776386       0.38744863
H       -2.45301211       0.04800804      -0.31732107
H       -0.50329157      -0.41923665      -1.93763820
H       -0.15620938      -1.86981509      -0.98415504
16
Frame=1 idx=001518 GeodesicLength=0.056829743792704196 rxn_smarts="[C:1]([C@:2]12[C:3]([H:10])([H:11])[C@@:4]1([H:12])[C:5]([H:13])([H:14])[C:6]2([H:15])[H:16])([H:7])([H:8])[H:9]>>[C:1]([C:2]1([C:3]([H:10])([H:11])[H:12])[C:4][C:5]([H:13])([H:14])[C:6]1([H:15])[H:16])([H:7])([H:8])[H:9]"
C        1.83050879      -0.30809546       0.37532278
C        0.37673687      -0.03865320       0.09766279
C       -0.06895783       1.42514360       0.11587654
C       -0.72397400      -0.05276297       1.13064620
C       -1.65239578      -0.61588223       0.02734808
C       -0.45414649      -0.82223013      -0.92432161
H        2.15422183       0.21749568       1.27570781
H        2.46225151       0.00809463      -0.45924030
H        1.99410485      -1.37506931       0.53851682
H        0.71004476       2.07625700       0.50036139
H       -0.52887468       1.77348677      -0.80503239
H       -0.86842789       1.49392608       0.97405536
H       -2.11441540      -1.53493870       0.39158333
H       -2.45355368       0.04050018      -0.31438482
H       -0.51072127      -0.41894220      -1.93794088
H       -0.15240159      -1.86832973      -0.98616110
16
Frame=2 idx=001518 GeodesicLength=0.11365456210879016 rxn_smarts="[C:1]([C@:2]12[C:3]([H:10])([H:11])[C@@:4]1([H:12])[C:5]([H:13])([H:14])[C:6]2([H:15])[H:16])([H:7])([H:8])[H:9]>>[C:1]([C:2]1([C:3]([H:10])([H:11])[H:12])[C:4][C:5]([H:13])([H:14])[C:6]1([H:15])[H:16])([H:7])([H:8])[H:9]"
C        1.82914916      -0.30922583       0.37395941
C        0.37700316      -0.03487577       0.09331202
C       -0.06666895       1.42794077       0.11467884
C       -0.72534108      -0.04691841       1.12443902
C       -1.65175244      -0.62269810       0.03005654
C       -0.45513209      -0.82211708      -0.92512267
H        2.15548747       0.21911532       1.27178374
H        2.46128520       0.00176434      -0.46226448
H        1.98841307      -1.37597072       0.54303650
H        0.70771131       2.07789862       0.51069498
H       -0.50675515       1.78236610      -0.81369958
H       -0.88094137       1.49742637       0.98116475
H       -2.11143586      -1.54219080       0.39586697
H       -2.45413200       0.03281317      -0.31138466
H       -0.51827103      -0.41856969      -1.93822806
H       -0.14861940      -1.86675831      -0.98829333
16
Frame=3 idx=001518 GeodesicLength=0.1704628625881257 rxn_smarts="[C:1]([C@:2]12[C:3]([H:10])([H:11])[C@@:4]1([H:12])[C:5]([H:13])([H:14])[C:6]2([H:15])[H:16])([H:7])([H:8])[H:9]>>[C:1]([C:2]1([C:3]([H:10])([H:11])[H:12])[C:4][C:5]([H:13])([H:14])[C:6]1([H:15])[H:16])([H:7])([H:8])[H:9]"
C        1.82773309      -0.31035561       0.37260888
C        0.37725117      -0.03107367       0.08889875
C       -0.06434102       1.43078244       0.11328950
C       -0.72676096      -0.04096271       1.11812261
C       -1.65104095      -0.62956287       0.03283033
C       -0.45616249      -0.82195651      -0.92596516
H        2.15669004       0.22074325       1.26784718
H        2.46028971      -0.00462559      -0.46524181
H        1.98261192      -1.37682371       0.54760048
H        0.70524740       2.07949253       0.52092886
H       -0.48407132       1.79127177      -0.82228465
H       -0.89363345       1.50085768       0.98843871
H       -2.10826655      -1.54951073       0.40029712
H       -2.45474423       0.02495238      -0.30832411
H       -0.52593400      -0.41812373      -1.93849920
H       -0.14486836      -1.86510492      -0.99054749
16
Frame=4 idx=001518 GeodesicLength=0.2272405417469174 rxn_smarts="[C:1]([C@:2]12[C:3]([H:10])([H:11])[C@@:4]1([H:12])[C:5]([H:13])([H:14])[C:6]2([H:15])[H:16])([H:7])([H:8])[H:9]>>[C:1]([C:2]1([C:3]([H:10])([H:11])[H:12])[C:4][C:5]([H:13])([H:14])[C:6]1([H:15])[H:16])([H:7])([H:8])[H:9]"
C        1.82626022      -0.31148230       0.37127226
C        0.37748122      -0.02724906       0.08442153
C       -0.06197548       1.43366732       0.11169973
C       -0.72823573      -0.03489698       1.11169169
C       -1.65026023      -0.63647036       0.03566707
C       -0.45723808      -0.82175284      -0.92684852
H        2.15782066       0.22237234       1.26390808
H        2.45926708      -0.01105698      -0.46816282
H        1.97670781      -1.37762641       0.55219310
H        0.70265295       2.08104232       0.53102915
H       -0.46082998       1.80019068      -0.83076669
H       -0.90649372       1.50421134       0.99590469
H       -2.10491449      -1.55688750       0.40487051
H       -2.45538662       0.01692511      -0.30520890
H       -0.53370155      -0.41761139      -1.93875395
H       -0.14115404      -1.86337529      -0.99291693
16
Frame=5 idx=001518 GeodesicLength=0.2839680351637736 rxn_smarts="[C:1]([C@:2]12[C:3]([H:10])([H:11])[C@@:4]1([H:12])[C:5]([H:13])([H:14])[C:6]2([H:15])[H:16])([H:7])([H:8])[H:9]>>[C:1]([C:2]1([C:3]([H:10])([H:11])[H:12])[C:4][C:5]([H:13])([H:14])[C:6]1([H:15])[H:16])([H:7])([H:8])[H:9]"
C        1.82473084      -0.31260294       0.36995011
C        0.37769376      -0.02340399       0.07987882
C       -0.05957426       1.43659485       0.10990105
C       -0.72976767      -0.02872263       1.10514141
C       -1.64941020      -0.64341383       0.03856394
C       -0.45835894      -0.82151152      -0.92777214
H        2.15887105       0.22399621       1.25997658
H        2.45822006      -0.01751039      -0.47101952
H        1.97070829      -1.37837726       0.55679838
H        0.69992891       2.08255253       0.54096187
H       -0.43704014       1.80910961      -0.83912208
H       -0.91951051       1.50747684       1.00359137
H       -2.10139004      -1.56430927       0.40958343
H       -2.45605539       0.00874020      -0.30204706
H       -0.54156379      -0.41704190      -1.93899318
H       -0.13748197      -1.86157652      -0.99539300
16
Frame=6 idx=001518 GeodesicLength=0.3406618368692614 rxn_smarts="[C:1]([C@:2]12[C:3]([H:10])([H:11])[C@@:4]1([H:12])[C:5]([H:13])([H:14])[C:6]2([H:15])[H:16])([H:7])([H:8])[H:9]>>[C:1]([C:2]1([C:3]([H:10])([H:11])[H:12])[C:4][C:5]([H:13])([H:14])[C:6]1([H:15])[H:16])([H:7])([H:8])[H:9]"
C        1.82314621      -0.31371304       0.36864171
C        0.37788954      -0.01954314       0.07526774
C       -0.05713932       1.43955684       0.10787916
C       -0.73135880      -0.02244386       1.09846305
C       -1.64849067      -0.65038272       0.04151641
C       -0.45952346      -0.82124195      -0.92873458
H        2.15983280       0.22560865       1.25606011
H        2.45715239      -0.02396386      -0.47380234
H        1.96462400      -1.37907175       0.56139773
H        0.69707166       2.08402148       0.55069937
H       -0.41271926       1.81801938      -0.84733204
H       -0.93267058       1.51064999       1.01154313
H       -2.09770675      -1.57175504       0.41442870
H       -2.45674412       0.00041167      -0.29884697
H       -0.54950717      -0.41643143      -1.93921846
H       -0.13385647      -1.85972121      -0.99796270
16
Frame=7 idx=001518 GeodesicLength=0.39743596123681785 rxn_smarts="[C:1]([C@:2]12[C:3]([H:10])([H:11])[C@@:4]1([H:12])[C:5]([H:13])([H:14])[C:6]2([H:15])[H:16])([H:7])([H:8])[H:9]>>[C:1]([C:2]1([C:3]([H:10])([H:11])[H:12])[C:4][C:5]([H:13])([H:14])[C:6]1([H:15])[H:16])([H:7])([H:8])[H:9]"
C        1.82151106      -0.31481597       0.36734891
C        0.37807580      -0.01566181       0.07058217
C       -0.05464168       1.44256066       0.10561444
C       -0.73300277      -0.01604858       1.09164792
C       -1.64749269      -0.65735294       0.04451193
C       -0.46072998      -0.82094095      -0.92973583
H        2.16070798       0.22719952       1.25216855
H        2.45607755      -0.03041707      -0.47650321
H        1.95845917      -1.37971482       0.56598605
H        0.69407108       2.08546173       0.56027818
H       -0.38797162       1.82686239      -0.85547274
H       -0.94595702       1.51369756       1.01984105
H       -2.09386117      -1.57919392       0.41939714
H       -2.45743705      -0.00803724      -0.29561851
H       -0.55751534      -0.41578896      -1.93943262
H       -0.13029333      -1.85780959      -1.00061342
16
Frame=8 idx=001518 GeodesicLength=0.4541659361250055 rxn_smarts="[C:1]([C@:2]12[C:3]([H:10])([H:11])[C@@:4]1([H:12])[C:5]([H:13])([H:14])[C:6]2([H:15])[H:16])([H:7])([H:8])[H:9]>>[C:1]([C:2]1([C:3]([H:10])([H:11])[H:12])[C:4][C:5]([H:13])([H:14])[C:6]1([H:15])[H:16])([H:7])([H:8])[H:9]"
C        1.81981940      -0.31590639       0.36606912
C        0.37824790      -0.01176145       0.06582236
C       -0.05210353       1.44560824       0.10311247
C       -0.73470618      -0.00954053       1.08469361
C       -1.64642139      -0.66433714       0.04755942
C       -0.46197908      -0.82061379      -0.93077881
H        2.16149100       0.22878584       1.24829280
H        2.45498215      -0.03687160      -0.47913281
H        1.95220575      -1.38030093       0.57057061
H        0.69093051       2.08687634       0.56963889
H       -0.36269755       1.83566723      -0.86345150
H       -0.95938679       1.51661546       1.02846101
H       -2.08985976      -1.58664250       0.42449798
H       -2.45814417      -0.01661889      -0.29236468
H       -0.56559863      -0.41511474      -1.93963847
H       -0.12677963      -1.85584516      -1.00335199
16
Frame=9 idx=001518 GeodesicLength=0.5108780956788339 rxn_smarts="[C:1]([C@:2]12[C:3]([H:10])([H:11])[C@@:4]1([H:12])[C:5]([H:13])([H:14])[C:6]2([H:15])[H:16])([H:7])([H:8])[H:9]>>[C:1]([C:2]1([C:3]([H:10])([H:11])[H:12])[C:4][C:5]([H:13])([H:14])[C:6]1([H:15])[H:16])([H:7])([H:8])[H:9]"
C        1.81806705      -0.31698475       0.36480393
C        0.37840412      -0.00784190       0.06098062
C       -0.04952603       1.44869492       0.10035764
C       -0.73647508      -0.00291818       1.07758629
C       -1.64527031      -0.67133660       0.05065724
C       -0.46327395      -0.82025890      -0.93186916
H        2.16217620       0.23037326       1.24442976
H        2.45386610      -0.04333863      -0.48168836
H        1.94585019      -1.38082765       0.57516387
H        0.68763510       2.08826369       0.57877071
H       -0.33686436       1.84443816      -0.87126670
H       -0.97296195       1.51941137       1.03743652
H       -2.08567942      -1.59410048       0.42973829
H       -2.45886562      -0.02534874      -0.28907576
H       -0.57376538      -0.41440222      -1.93983649
H       -0.12331667      -1.85382334      -1.00618841
16
Frame=10 idx=001518 GeodesicLength=0.5675040449915236 rxn_smarts="[C:1]([C@:2]12[C:3]([H:10])([H:11])[C@@:4]1([H:12])[C:5]([H:13])([H:14])[C:6]2([H:15])[H:16])([H:7])([H:8])[H:9]>>[C:1]([C:2]1([C:3]([H:10])([H:11])[H:12])[C:4][C:5]([H:13])([H:14])[C:6]1([H:15])[H:16])([H:7])([H:8])[H:9]"
C        1.81625008      -0.31805498       0.36355298
C        0.37854406      -0.00389442       0.05605370
C       -0.04691111       1.45183857       0.09734685
C       -0.73830983       0.00383510       1.07032175
C       -1.64403284      -0.67835199       0.05381116
C       -0.46461612      -0.81986535      -0.93301075
H        2.16276456       0.23197406       1.24056840
H        2.45272306      -0.04984436      -0.48418130
H        1.93937722      -1.38129672       0.57978865
H        0.68417894       2.08963658       0.58767526
H       -0.31043389       1.85315619      -0.87889773
H       -0.98669875       1.52204957       1.04675292
H       -2.08130005      -1.60157681       0.43512689
H       -2.45960521      -0.03423436      -0.28574882
H       -0.58203062      -0.41364020      -1.94002707
H       -0.11989951      -1.85173089      -1.00913290
16
Frame=11 idx=001518 GeodesicLength=0.6241455401258327 rxn_smarts="[C:1]([C@:2]12[C:3]([H:10])([H:11])[C@@:4]1([H:12])[C:5]([H:13])([H:14])[C:6]2([H:15])[H:16])([H:7])([H:8])[H:9]>>[C:1]([C:2]1([C:3]([H:10])([H:11])[H:12])[C:4][C:5]([H:13])([H:14])[C:6]1([H:15])[H:16])([H:7])([H:8])[H:9]"
C        1.81437210      -0.31911045       0.36231663
C        0.37867035       0.00007521       0.05103645
C       -0.04424789       1.45502539       0.09405899
C       -0.74021201       0.01071280       1.06288710
C       -1.64270878      -0.68536230       0.05700444
C       -0.46600194      -0.81944601      -0.93420250
H        2.16325668       0.23358978       1.23671271
H        2.45155984      -0.05637555      -0.48660278
H        1.93279785      -1.38169925       0.58443658
H        0.68054685       2.09099506       0.59635050
H       -0.28347796       1.86179767      -0.88638350
H       -1.00055918       1.52452131       1.05652830
H       -2.07674077      -1.60903563       0.44064351
H       -2.46034842      -0.04324752      -0.28240355
H       -0.59036881      -0.41285428      -1.94021730
H       -0.11653791      -1.84958623      -1.01216558
16
Frame=12 idx=001518 GeodesicLength=0.6807678019923366 rxn_smarts="[C:1]([C@:2]12[C:3]([H:10])([H:11])[C@@:4]1([H:12])[C:5]([H:13])([H:14])[C:6]2([H:15])[H:16])([H:7])([H:8])[H:9]>>[C:1]([C:2]1([C:3]([H:10])([H:11])[H:12])[C:4][C:5]([H:13])([H:14])[C:6]1([H:15])[H:16])([H:7])([H:8])[H:9]"
C        1.81242801      -0.32015292       0.36109519
C        0.37878276       0.00407224       0.04592446
C       -0.04153462       1.45826793       0.09048853
C       -0.74218626       0.01772795       1.05527277
C       -1.64129464      -0.69237207       0.06024280
C       -0.46743212      -0.81899690      -0.93545030
H        2.16365293       0.23523265       1.23285357
H        2.45037184      -0.06295104      -0.48895955
H        1.92609421      -1.38203621       0.58912350
H        0.67674448       2.09234767       0.60477333
H       -0.25595317       1.87036336      -0.89367334
H       -1.01457015       1.52680951       1.06675527
H       -2.07198571      -1.61648670       0.44630208
H       -2.46109846      -0.05240383      -0.27904101
H       -0.59879306      -0.41203891      -1.94040945
H       -0.11322604      -1.84738272      -1.01529785
16
Frame=13 idx=001518 GeodesicLength=0.7373730655371123 rxn_smarts="[C:1]([C@:2]12[C:3]([H:10])([H:11])[C@@:4]1([H:12])[C:5]([H:13])([H:14])[C:6]2([H:15])[H:16])([H:7])([H:8])[H:9]>>[C:1]([C:2]1([C:3]([H:10])([H:11])[H:12])[C:4][C:5]([H:13])([H:14])[C:6]1([H:15])[H:16])([H:7])([H:8])[H:9]"
C        1.81041315      -0.32118280       0.35989379
C        0.37888028       0.00810162       0.04071014
C       -0.03876747       1.46157325       0.08661734
C       -0.74423753       0.02489227       1.04746794
C       -1.63978514      -0.69938422       0.06352824
C       -0.46891224      -0.81851256      -0.93676320
H        2.16395013       0.23690760       1.22899488
H        2.44915929      -0.06958485      -0.49124813
H        1.91924977      -1.38230696       0.59386649
H        0.67275988       2.09370744       0.61293851
H       -0.22782484       1.87884804      -0.90077365
H       -1.02872764       1.52889887       1.07746612
H       -2.06700820      -1.62393850       0.45211549
H       -2.46185998      -0.06171980      -0.27565604
H       -0.60732141      -0.41118528      -1.94061174
H       -0.10996805      -1.84511413      -1.01854618
16
Frame=14 idx=001518 GeodesicLength=0.7939644567298142 rxn_smarts="[C:1]([C@:2]12[C:3]([H:10])([H:11])[C@@:4]1([H:12])[C:5]([H:13])([H:14])[C:6]2([H:15])[H:16])([H:7])([H:8])[H:9]>>[C:1]([C:2]1([C:3]([H:10])([H:11])[H:12])[C:4][C:5]([H:13])([H:14])[C:6]1([H:15])[H:16])([H:7])([H:8])[H:9]"
C        1.80831725      -0.32220539       0.35870946
C        0.37896118       0.01216587       0.03538422
C       -0.03594927       1.46493832       0.08242891
C       -0.74636991       0.03222089       1.03944984
C       -1.63816630      -0.70638922       0.06685970
C       -0.47043671      -0.81798358      -0.93814066
H        2.16413755       0.23862403       1.22511246
H        2.44791383      -0.07631096      -0.49346717
H        1.91224113      -1.38250465       0.59868371
H        0.66856694       2.09506307       0.62083346
H       -0.19907246       1.88723846      -0.90766353
H       -1.04303784       1.53077254       1.08869388
H       -2.06177142      -1.63137697       0.45808919
H       -2.46262775      -0.07120211      -0.27224649
H       -0.61595747      -0.41028693      -1.94081253
H       -0.10674874      -1.84276335      -1.02191446
16
Frame=15 idx=001518 GeodesicLength=0.8505640742596277 rxn_smarts="[C:1]([C@:2]12[C:3]([H:10])([H:11])[C@@:4]1([H:12])[C:5]([H:13])([H:14])[C:6]2([H:15])[H:16])([H:7])([H:8])[H:9]>>[C:1]([C:2]1([C:3]([H:10])([H:11])[H:12])[C:4][C:5]([H:13])([H:14])[C:6]1([H:15])[H:16])([H:7])([H:8])[H:9]"
C        1.80614721      -0.32321368       0.35754912
C        0.37902953       0.01626890       0.02994076
C       -0.03306569       1.46837582       0.07790850
C       -0.74858708       0.03971506       1.03121563
C       -1.63644646      -0.71338918       0.07023264
C       -0.47201457      -0.81741750      -0.93959771
H        2.16423024       0.24040076       1.22121767
H        2.44664645      -0.08313058      -0.49562098
H        1.90506458      -1.38262526       0.60359961
H        0.66417634       2.09644360       0.62844704
H       -0.16969744       1.89553190      -0.91434478
H       -1.05748917       1.53239830       1.10050051
H       -2.05629383      -1.63880708       0.46422668
H       -2.46340982      -0.08085376      -0.26882275
H       -0.62470471      -0.40935232      -1.94103986
H       -0.10358557      -1.84034499      -1.02541206
16
Frame=16 idx=001518 GeodesicLength=0.9071521592278227 rxn_smarts="[C:1]([C@:2]12[C:3]([H:10])([H:11])[C@@:4]1([H:12])[C:5]([H:13])([H:14])[C:6]2([H:15])[H:16])([H:7])([H:8])[H:9]>>[C:1]([C:2]1([C:3]([H:10])([H:11])[H:12])[C:4][C:5]([H:13])([H:14])[C:6]1([H:15])[H:16])([H:7])([H:8])[H:9]"
C        1.80388956      -0.32421281       0.35640672
C        0.37908464       0.02041047       0.02437177
C       -0.03011996       1.47188067       0.07304222
C       -0.75088767       0.04738771       1.02273812
C       -1.63460390      -0.72036135       0.07364078
C       -0.47363244      -0.81681059      -0.94112719
H        2.16420675       0.24223764       1.21728745
H        2.44533965      -0.09007207      -0.49770615
H        1.89770624      -1.38266252       0.60861712
H        0.65955975       2.09784537       0.63575186
H       -0.13972756       1.90370286      -0.92078291
H       -1.07207823       1.53374162       1.11292879
H       -2.05054884      -1.64619254       0.47052006
H       -2.46418086      -0.09065522      -0.26538772
H       -0.63354343      -0.40838665      -1.94127508
H       -0.10046370      -1.83785261      -1.02902584
