14
Frame=0 idx=001717 GeodesicLength=0.0 rxn_smarts="[O:1]([C@@:2]1([H:8])[C:3]([H:9])([H:10])[C:4]([H:11])([H:12])[O:5][C:6]1([H:13])[H:14])[H:7]>>[O:1]=[C:2]([C:3]([C:4]([O:5][C:6]([H:7])([H:13])[H:14])([H:11])[H:12])([H:9])[H:10])[H:8]"
O        0.92055030      -0.58450242      -1.96274156
C        0.31548158       0.21161191      -1.08829921
C       -1.05282974      -0.15406550      -0.54723255
C       -1.02447932       0.02769979       0.96109118
O        0.19725579      -0.53658978       1.40674060
C        1.21821980      -0.02084037       0.63231753
H        1.31469018      -0.50521178      -0.68233543
H        0.47608881       1.29664733      -1.19581771
H       -1.24568830      -1.19477053      -0.80864848
H       -1.80489149       0.48123867      -1.01843225
H       -1.83354704      -0.49354710       1.46964916
H       -1.06497999       1.09167217       1.23418677
H        1.46634579       1.02236996       0.85160283
H        2.11778358      -0.64171235       0.74791906
14
Frame=1 idx=001717 GeodesicLength=0.08169989730344668 rxn_smarts="[O:1]([C@@:2]1([H:8])[C:3]([H:9])([H:10])[C:4]([H:11])([H:12])[O:5][C:6]1([H:13])[H:14])[H:7]>>[O:1]=[C:2]([C:3]([C:4]([O:5][C:6]([H:7])([H:13])[H:14])([H:11])[H:12])([H:9])[H:10])[H:8]"
O        0.91313617      -0.59340733      -1.96079951
C        0.31297194       0.21218861      -1.09377609
C       -1.05568585      -0.14760922      -0.54960010
C       -1.02189783       0.02217855       0.96073450
O        0.20106456      -0.54132775       1.40282311
C        1.22283065      -0.01640184       0.63252533
H        1.32479732      -0.53275233      -0.67820916
H        0.47612650       1.29524371      -1.21395582
H       -1.26152505      -1.18368576      -0.81935414
H       -1.80470098       0.49861123      -1.01096689
H       -1.82883053      -0.50503984       1.46669103
H       -1.06679125       1.08399163       1.24146778
H        1.45850108       1.02926720       0.85587935
H        2.13000327      -0.62125685       0.76654060
14
Frame=2 idx=001717 GeodesicLength=0.16325553425939637 rxn_smarts="[O:1]([C@@:2]1([H:8])[C:3]([H:9])([H:10])[C:4]([H:11])([H:12])[O:5][C:6]1([H:13])[H:14])[H:7]>>[O:1]=[C:2]([C:3]([C:4]([O:5][C:6]([H:7])([H:13])[H:14])([H:11])[H:12])([H:9])[H:10])[H:8]"
O        0.90610431      -0.60214526      -1.95827231
C        0.31023553       0.21313115      -1.09944174
C       -1.05856385      -0.14109444      -0.55195227
C       -1.01924946       0.01665320       0.96028939
O        0.20501549      -0.54588346       1.39882101
C        1.22749667      -0.01200898       0.63245480
H        1.33490602      -0.56097080      -0.67358517
H        0.47588692       1.29404501      -1.23228004
H       -1.27718516      -1.17235363      -0.82997618
H       -1.80451464       0.51583796      -1.00332001
H       -1.82395913      -0.51663140       1.46359188
H       -1.06858555       1.07621056       1.24872597
H        1.45074791       1.03592773       0.86002752
H        2.14166495      -0.60071764       0.78491716
14
Frame=3 idx=001717 GeodesicLength=0.24471003244232015 rxn_smarts="[O:1]([C@@:2]1([H:8])[C:3]([H:9])([H:10])[C:4]([H:11])([H:12])[O:5][C:6]1([H:13])[H:14])[H:7]>>[O:1]=[C:2]([C:3]([C:4]([O:5][C:6]([H:7])([H:13])[H:14])([H:11])[H:12])([H:9])[H:10])[H:8]"
O        0.89948133      -0.61068218      -1.95512072
C        0.30724787       0.21447470      -1.10530984
C       -1.06147171      -0.13452623      -0.55428964
C       -1.01653406       0.01113584       0.95975088
O        0.20910178      -0.55025458       1.39473145
C        1.23222084      -0.00768073       0.63208825
H        1.34504186      -0.58988623      -0.66843526
H        0.47533876       1.29308700      -1.25079358
H       -1.29264459      -1.16079499      -0.84050546
H       -1.80436347       0.53288782      -0.99549332
H       -1.81893463      -0.52829803       1.46035037
H       -1.07035013       1.06834090       1.25594880
H        1.44310453       1.04232849       0.86403692
H        2.15276162      -0.58013178       0.80304113
14
Frame=4 idx=001717 GeodesicLength=0.32610022092571656 rxn_smarts="[O:1]([C@@:2]1([H:8])[C:3]([H:9])([H:10])[C:4]([H:11])([H:12])[O:5][C:6]1([H:13])[H:14])[H:7]>>[O:1]=[C:2]([C:3]([C:4]([O:5][C:6]([H:7])([H:13])[H:14])([H:11])[H:12])([H:9])[H:10])[H:8]"
O        0.89329550      -0.61898042      -1.95130495
C        0.30398513       0.21625409      -1.11139481
C       -1.06441807      -0.12791020      -0.55661285
C       -1.01375104       0.00563872       0.95911400
O        0.21331577      -0.55444262       1.39055046
C        1.23700713      -0.00343869       0.63140990
H        1.35523365      -0.61952049      -0.66272892
H        0.47445150       1.29240535      -1.26950103
H       -1.30788369      -1.14903390      -0.85093360
H       -1.80428282       0.54973140      -0.98748894
H       -1.81375998      -0.54001355       1.45696580
H       -1.07206951       1.06039573       1.26312330
H        1.43558779       1.04844700       0.86789753
H        2.16328865      -0.55953241       0.82090411
14
Frame=5 idx=001717 GeodesicLength=0.40745246229000565 rxn_smarts="[O:1]([C@@:2]1([H:8])[C:3]([H:9])([H:10])[C:4]([H:11])([H:12])[O:5][C:6]1([H:13])[H:14])[H:7]>>[O:1]=[C:2]([C:3]([C:4]([O:5][C:6]([H:7])([H:13])[H:14])([H:11])[H:12])([H:9])[H:10])[H:8]"
O        0.88757652      -0.62700601      -1.94677025
C        0.30041913       0.21850492      -1.11771199
C       -1.06741241      -0.12125000      -0.55892333
C       -1.01089983       0.00017340       0.95837383
O        0.21765079      -0.55845002       1.38627178
C        1.24185934       0.00069634       0.63040063
H        1.36551369      -0.64989660      -0.65643853
H        0.47319462       1.29203556      -1.28840605
H       -1.32288421      -1.13708966      -0.86125433
H       -1.80430440       0.56634104      -0.97930898
H       -1.80843721      -0.55175432       1.45343751
H       -1.07372882       1.05238673       1.27023819
H        1.42821174       1.05426023       0.87159394
H        2.17324104      -0.53895162       0.83849758
14
Frame=6 idx=001717 GeodesicLength=0.48880637985292985 rxn_smarts="[O:1]([C@@:2]1([H:8])[C:3]([H:9])([H:10])[C:4]([H:11])([H:12])[O:5][C:6]1([H:13])[H:14])[H:7]>>[O:1]=[C:2]([C:3]([C:4]([O:5][C:6]([H:7])([H:13])[H:14])([H:11])[H:12])([H:9])[H:10])[H:8]"
O        0.88235796      -0.63470600      -1.94146849
C        0.29652230       0.22126401      -1.12427941
C       -1.07046612      -0.11455084      -0.56122219
C       -1.00797982      -0.00524663       0.95752511
O        0.22209733      -0.56228164       1.38188853
C        1.24678236       0.00469795       0.62904256
H        1.37591619      -0.68104873      -0.64952579
H        0.47153333       1.29201709      -1.30751572
H       -1.33762588      -1.12499198      -0.87146002
H       -1.80446866       0.58268624      -0.97095617
H       -1.80297088      -0.56348995       1.44976735
H       -1.07530852       1.04432995       1.27727893
H        1.42099456       1.05974349       0.87511016
H        2.18261586      -0.51842298       0.85581515
14
Frame=7 idx=001717 GeodesicLength=0.5701962229311798 rxn_smarts="[O:1]([C@@:2]1([H:8])[C:3]([H:9])([H:10])[C:4]([H:11])([H:12])[O:5][C:6]1([H:13])[H:14])[H:7]>>[O:1]=[C:2]([C:3]([C:4]([O:5][C:6]([H:7])([H:13])[H:14])([H:11])[H:12])([H:9])[H:10])[H:8]"
O        0.87767424      -0.64202683      -1.93533263
C        0.29226198       0.22456751      -1.13111810
C       -1.07359036      -0.10781612      -0.56351151
C       -1.00499030      -0.01060855       0.95656219
O        0.22664726      -0.56594344       1.37739205
C        1.25178034       0.00853951       0.62731492
H        1.38647845      -0.71301600      -0.64195505
H        0.46943319       1.29238807      -1.32683420
H       -1.35208986      -1.11276344      -0.88154575
H       -1.80481368       0.59873792      -0.96243270
H       -1.79736508      -0.57519205       1.44595625
H       -1.07679007       1.03623990       1.28423195
H        1.41394962       1.06487205       0.87842217
H        2.19141427      -0.49797853       0.87285040
14
Frame=8 idx=001717 GeodesicLength=0.6516207608029052 rxn_smarts="[O:1]([C@@:2]1([H:8])[C:3]([H:9])([H:10])[C:4]([H:11])([H:12])[O:5][C:6]1([H:13])[H:14])[H:7]>>[O:1]=[C:2]([C:3]([C:4]([O:5][C:6]([H:7])([H:13])[H:14])([H:11])[H:12])([H:9])[H:10])[H:8]"
O        0.87355867      -0.64891970      -1.92830041
C        0.28760912       0.22844721      -1.13824801
C       -1.07679768      -0.10105012      -0.56579320
C       -1.00193074      -0.01589988       0.95548052
O        0.23129047      -0.56944743       1.37277273
C        1.25686017       0.01219245       0.62520315
H        1.39724468      -0.74581554      -0.63369010
H        0.46686093       1.29318283      -1.34637206
H       -1.36626258      -1.10043110      -0.89150546
H       -1.80537919       0.61447015      -0.95374353
H       -1.79162669      -0.58682981       1.44200739
H       -1.07815199       1.02813236       1.29108472
H        1.40709202       1.06962102       0.88151175
H        2.19963282      -0.47765243       0.88959253
14
Frame=9 idx=001717 GeodesicLength=0.7331884795113369 rxn_smarts="[O:1]([C@@:2]1([H:8])[C:3]([H:9])([H:10])[C:4]([H:11])([H:12])[O:5][C:6]1([H:13])[H:14])[H:7]>>[O:1]=[C:2]([C:3]([C:4]([O:5][C:6]([H:7])([H:13])[H:14])([H:11])[H:12])([H:9])[H:10])[H:8]"
O        0.87003763      -0.65526053      -1.92028312
C        0.28251813       0.23292172      -1.14569413
C       -1.08008949      -0.09425158      -0.56807008
C       -0.99879678      -0.02111095       0.95427267
O        0.23602330      -0.57279972       1.36802307
C        1.26201984       0.01561602       0.62267896
H        1.40823740      -0.77957880      -0.62469312
H        0.46376977       1.29442849      -1.36612327
H       -1.38012802      -1.08800008      -0.90134525
H       -1.80618076       0.62986929      -0.94488723
H       -1.78575666      -0.59838250       1.43791808
H       -1.07937478       1.02001952       1.29782147
H        1.40040703       1.07396748       0.88430425
H        2.20731339      -0.45743837       0.90607769
14
Frame=10 idx=001717 GeodesicLength=0.8147468281910843 rxn_smarts="[O:1]([C@@:2]1([H:8])[C:3]([H:9])([H:10])[C:4]([H:11])([H:12])[O:5][C:6]1([H:13])[H:14])[H:7]>>[O:1]=[C:2]([C:3]([C:4]([O:5][C:6]([H:7])([H:13])[H:14])([H:11])[H:12])([H:9])[H:10])[H:8]"
O        0.86714425      -0.66106594      -1.91122733
C        0.27697338       0.23801939      -1.15347406
C       -1.08348479      -0.08742376      -0.57034305
C       -0.99559052      -0.02623042       0.95293641
O        0.24083074      -0.57602273       1.36312944
C        1.26727044       0.01879349       0.61974455
H        1.41951855      -0.81420996      -0.61494473
H        0.46014463       1.29615043      -1.38611228
H       -1.39368010      -1.07550711      -0.91105136
H       -1.80726608       0.64490829      -0.93586917
H       -1.77976636      -0.60981591       1.43369452
H       -1.08043482       1.01191595       1.30443475
H        1.39392878       1.07788685       0.88681909
H        2.21441190      -0.43739857       0.92226322
14
Frame=11 idx=001717 GeodesicLength=0.8962786979915466 rxn_smarts="[O:1]([C@@:2]1([H:8])[C:3]([H:9])([H:10])[C:4]([H:11])([H:12])[O:5][C:6]1([H:13])[H:14])[H:7]>>[O:1]=[C:2]([C:3]([C:4]([O:5][C:6]([H:7])([H:13])[H:14])([H:11])[H:12])([H:9])[H:10])[H:8]"
O        0.86491022      -0.66627092      -1.90107141
C        0.27094685       0.24376101      -1.16160813
C       -1.08699668      -0.08057219      -0.57261334
C       -0.99231134      -0.03124491       0.95146761
O        0.24569949      -0.57913751       1.35807944
C        1.27261910       0.02169386       0.61639452
H        1.43114064      -0.84971462      -0.60441928
H        0.45595379       1.29837476      -1.40635278
H       -1.40691310      -1.06298703      -0.92061806
H       -1.80867892       0.65956575      -0.92669669
H       -1.77366588      -0.62109276       1.42934429
H       -1.08130578       1.00384128       1.31090886
H        1.38767157       1.08135623       0.88903555
H        2.22093002      -0.41757295       0.93814941
14
Frame=12 idx=001717 GeodesicLength=0.977746317888145 rxn_smarts="[O:1]([C@@:2]1([H:8])[C:3]([H:9])([H:10])[C:4]([H:11])([H:12])[O:5][C:6]1([H:13])[H:14])[H:7]>>[O:1]=[C:2]([C:3]([C:4]([O:5][C:6]([H:7])([H:13])[H:14])([H:11])[H:12])([H:9])[H:10])[H:8]"
O        0.86335614      -0.67081902      -1.88974790
C        0.26441383       0.25015745      -1.17011631
C       -1.09063486      -0.07369784      -0.57488271
C       -0.98895895      -0.03614487       0.94986323
O        0.25061768      -0.58216760       1.35286074
C        1.27807102       0.02428813       0.61262808
H        1.44315211      -0.88608743      -0.59310197
H        0.45117262       1.30111568      -1.42685556
H       -1.41982324      -1.05046443      -0.93004117
H       -1.81044783       0.67382694      -0.91737694
H       -1.76746720      -0.63218264       1.42487356
H       -1.08196280       0.99581087       1.31723293
H        1.38164232       1.08435618       0.89092872
H        2.22686916      -0.39799142       0.95373531
14
Frame=13 idx=001717 GeodesicLength=1.059156947059074 rxn_smarts="[O:1]([C@@:2]1([H:8])[C:3]([H:9])([H:10])[C:4]([H:11])([H:12])[O:5][C:6]1([H:13])[H:14])[H:7]>>[O:1]=[C:2]([C:3]([C:4]([O:5][C:6]([H:7])([H:13])[H:14])([H:11])[H:12])([H:9])[H:10])[H:8]"
O        0.86250943      -0.67463455      -1.87718159
C        0.25734275       0.25721740      -1.17902836
C       -1.09441340      -0.06680515      -0.57715265
C       -0.98553230      -0.04091728       0.94811831
O        0.25557138      -0.58514374       1.34745633
C        1.28363467       0.02654029       0.60844667
H        1.45561862      -0.92331438      -0.58096563
H        0.44576993       1.30438938      -1.44763679
H       -1.43241045      -1.03797193      -0.93931527
H       -1.81261265       0.68767167      -0.90791563
H       -1.76118565      -0.64304438       1.42029061
H       -1.08237433       0.98784748       1.32339015
H        1.37585186       1.08686353       0.89247560
H        2.23223014      -0.37869833       0.96901824
14
Frame=14 idx=001717 GeodesicLength=1.140470993509018 rxn_smarts="[O:1]([C@@:2]1([H:8])[C:3]([H:9])([H:10])[C:4]([H:11])([H:12])[O:5][C:6]1([H:13])[H:14])[H:7]>>[O:1]=[C:2]([C:3]([C:4]([O:5][C:6]([H:7])([H:13])[H:14])([H:11])[H:12])([H:9])[H:10])[H:8]"
O        0.86236233      -0.67767204      -1.86333585
C        0.24972450       0.26492183      -1.18835860
C       -1.09833656      -0.05989165      -0.57942320
C       -0.98203105      -0.04555977       0.94623210
O        0.26054898      -0.58809764       1.34185662
C        1.28931632       0.02843102       0.60386980
H        1.46859490      -0.96135951      -0.56800889
H        0.43973685       1.30817898      -1.46871320
H       -1.44468965      -1.02552223      -0.94843689
H       -1.81518003       0.70110893      -0.89831863
H       -1.75483491      -0.65365806       1.41559997
H       -1.08252014       0.97995796       1.32937691
H        1.37029424       1.08887269       0.89365777
H        2.23701422      -0.35971051       0.98400210
14
Frame=15 idx=001717 GeodesicLength=1.2216751949114637 rxn_smarts="[O:1]([C@@:2]1([H:8])[C:3]([H:9])([H:10])[C:4]([H:11])([H:12])[O:5][C:6]1([H:13])[H:14])[H:7]>>[O:1]=[C:2]([C:3]([C:4]([O:5][C:6]([H:7])([H:13])[H:14])([H:11])[H:12])([H:9])[H:10])[H:8]"
O        0.86290835      -0.67988717      -1.84816809
C        0.24154483       0.27324411      -1.19812417
C       -1.10240957      -0.05295296      -0.58169351
C       -0.97845549      -0.05007123       0.94420360
O        0.26553851      -0.59106456       1.33604997
C        1.29512034       0.02994202       0.59891950
H        1.48213959      -1.00017197      -0.55423613
H        0.43306551       1.31245868      -1.49010943
H       -1.45668126      -1.01312215      -0.95740472
H       -1.81815213       0.71415171      -0.88858670
H       -1.74843002      -0.66400517       1.41080497
H       -1.08238078       0.97214836       1.33519017
H        1.36496155       1.09038038       0.89445803
H        2.24123060      -0.34105005       0.99869651
14
Frame=16 idx=001717 GeodesicLength=1.3027680342767045 rxn_smarts="[O:1]([C@@:2]1([H:8])[C:3]([H:9])([H:10])[C:4]([H:11])([H:12])[O:5][C:6]1([H:13])[H:14])[H:7]>>[O:1]=[C:2]([C:3]([C:4]([O:5][C:6]([H:7])([H:13])[H:14])([H:11])[H:12])([H:9])[H:10])[H:8]"
O        0.86411843      -0.68124261      -1.83165902
C        0.23280122       0.28213891      -1.20833889
C       -1.10663382      -0.04598353      -0.58396193
C       -0.97480555      -0.05445468       0.94203346
O        0.27052887      -0.59408296       1.33002716
C        1.30105208       0.03106095       0.59362983
H        1.49631135      -1.03967910      -0.53966077
H        0.42575806       1.31718353      -1.51185019
H       -1.46841406      -1.00077137      -0.96621705
H       -1.82151527       0.72682461      -0.87872201
H       -1.74198622      -0.67407312       1.40590860
H       -1.08193958       0.96441974       1.34083073
H        1.35983902       1.09139098       0.89486587
H        2.24488547      -0.32273136       1.01311420
