14
Frame=0 idx=006220 GeodesicLength=0.0 rxn_smarts="[C:1]([O:2][C@@:3]1([H:10])[C:4]([H:11])([H:12])[C@:5]1([O:6][H:14])[H:13])([H:7])([H:8])[H:9]>>[C:1]([O:2]/[C:3](=[C:5](\[O:6][H:14])[H:13])[H:10])([H:7])([H:8])[H:9].[C:4]([H:11])[H:12]"
C        1.47756844      -0.60558177      -1.06003374
O        0.52709357       0.25342165      -0.45714132
C       -0.72881704      -0.29068735      -0.32244626
C        0.54958670      -0.50348114       2.07491945
C       -1.76823043       0.52529001      -0.18481029
O       -1.68251064       1.87636991      -0.20765147
H        1.19468521      -0.83294981      -2.09224884
H        1.57133484      -1.53021535      -0.48352921
H        2.42971273      -0.07919324      -1.05247368
H       -0.81515545      -1.36928047      -0.30409082
H        1.18828753       0.39957091       2.03495702
H       -0.40997527      -0.10744634       2.45924122
H       -2.76957003       0.15212450      -0.02675891
H       -0.76401016       2.11205843      -0.37793315
14
Frame=1 idx=006220 GeodesicLength=0.11011449472664048 rxn_smarts="[C:1]([O:2][C@@:3]1([H:10])[C:4]([H:11])([H:12])[C@:5]1([O:6][H:14])[H:13])([H:7])([H:8])[H:9]>>[C:1]([O:2]/[C:3](=[C:5](\[O:6][H:14])[H:13])[H:10])([H:7])([H:8])[H:9].[C:4]([H:11])[H:12]"
C        1.48572275      -0.60617927      -1.05973318
O        0.53231142       0.25094624      -0.45909915
C       -0.72113553      -0.29771183      -0.31277070
C        0.50858098      -0.48379182       2.02080694
C       -1.75327765       0.52561835      -0.12986363
O       -1.67217180       1.87581101      -0.20545366
H        1.19868606      -0.83849535      -2.08960172
H        1.58793608      -1.52854754      -0.48125402
H        2.43471413      -0.07407287      -1.05583482
H       -0.81871237      -1.37541824      -0.32285851
H        1.16711911       0.40438994       2.01712674
H       -0.43496712      -0.11547687       2.46317288
H       -2.75890500       0.15549720       0.00788514
H       -0.75590104       2.10743104      -0.39252232
14
Frame=2 idx=006220 GeodesicLength=0.22049384615872186 rxn_smarts="[C:1]([O:2][C@@:3]1([H:10])[C:4]([H:11])([H:12])[C@:5]1([O:6][H:14])[H:13])([H:7])([H:8])[H:9]>>[C:1]([O:2]/[C:3](=[C:5](\[O:6][H:14])[H:13])[H:10])([H:7])([H:8])[H:9].[C:4]([H:11])[H:12]"
C        1.49347545      -0.60736859      -1.05849650
O        0.53666556       0.24882944      -0.46216600
C       -0.71452703      -0.30396741      -0.30516396
C        0.47055264      -0.46199363       1.96835834
C       -1.73879918       0.52645927      -0.08169244
O       -1.66269740       1.87482450      -0.20005034
H        1.20326696      -0.84613841      -2.08590434
H        1.60346089      -1.52658169      -0.47664592
H        2.43933483      -0.06967911      -1.05813668
H       -0.82341250      -1.38003722      -0.33987982
H        1.14666102       0.41098688       1.99796488
H       -0.45730437      -0.12758807       2.46361373
H       -2.74768444       0.15920542       0.04137812
H       -0.74899243       2.10304862      -0.40317906
14
Frame=3 idx=006220 GeodesicLength=0.33139911075367057 rxn_smarts="[C:1]([O:2][C@@:3]1([H:10])[C:4]([H:11])([H:12])[C@:5]1([O:6][H:14])[H:13])([H:7])([H:8])[H:9]>>[C:1]([O:2]/[C:3](=[C:5](\[O:6][H:14])[H:13])[H:10])([H:7])([H:8])[H:9].[C:4]([H:11])[H:12]"
C        1.50093994      -0.60927304      -1.05652471
O        0.54011292       0.24683173      -0.46671408
C       -0.70893343      -0.30987083      -0.29978357
C        0.43487846      -0.43784220       1.91716113
C       -1.72516790       0.52729975      -0.04018114
O       -1.65347517       1.87374788      -0.19020319
H        1.20855581      -0.85628821      -2.08126221
H        1.61825864      -1.52426048      -0.46967615
H        2.44356080      -0.06592287      -1.05979259
H       -0.82885192      -1.38385606      -0.35523441
H        1.12659116       0.41983526       1.97702333
H       -0.47737056      -0.14240747       2.46030457
H       -2.73658967       0.16295202       0.07323512
H       -0.74250910       2.09905452      -0.40835210
14
Frame=4 idx=006220 GeodesicLength=0.44258978166351415 rxn_smarts="[C:1]([O:2][C@@:3]1([H:10])[C:4]([H:11])([H:12])[C@:5]1([O:6][H:14])[H:13])([H:7])([H:8])[H:9]>>[C:1]([O:2]/[C:3](=[C:5](\[O:6][H:14])[H:13])[H:10])([H:7])([H:8])[H:9].[C:4]([H:11])[H:12]"
C        1.50804400      -0.61141771      -1.05369860
O        0.54275128       0.24508243      -0.47191050
C       -0.70427334      -0.31531218      -0.29580650
C        0.40150424      -0.41268303       1.86747397
C       -1.71233758       0.52834771      -0.00339527
O       -1.64451639       1.87303442      -0.17803733
H        1.21422624      -0.86786948      -2.07560116
H        1.63236945      -1.52142031      -0.46078005
H        2.44734405      -0.06236473      -1.06063008
H       -0.83493543      -1.38694413      -0.36889696
H        1.10726783       0.42962074       1.95512288
H       -0.49484140      -0.16056071       2.45401003
H       -2.72586466       0.16701840       0.10402836
H       -0.73673829       2.09546857      -0.41187879
14
Frame=5 idx=006220 GeodesicLength=0.5539145505589971 rxn_smarts="[C:1]([O:2][C@@:3]1([H:10])[C:4]([H:11])([H:12])[C@:5]1([O:6][H:14])[H:13])([H:7])([H:8])[H:9]>>[C:1]([O:2]/[C:3](=[C:5](\[O:6][H:14])[H:13])[H:10])([H:7])([H:8])[H:9].[C:4]([H:11])[H:12]"
C        1.51473688      -0.61357463      -1.05000911
O        0.54465938       0.24362805      -0.47734031
C       -0.70046917      -0.32024710      -0.29275183
C        0.37026329      -0.38720043       1.81938141
C       -1.70024040       0.52974091       0.02983070
O       -1.63600729       1.87278675      -0.16538790
H        1.22005420      -0.88032788      -2.06891357
H        1.64581243      -1.51799406      -0.45024236
H        2.45064551      -0.05880496      -1.06065951
H       -0.84159293      -1.38937473      -0.38090022
H        1.08889711       0.43961699       1.93268218
H       -0.50951627      -0.18206218       2.44512715
H       -2.71557175       0.17149680       0.13400144
H       -0.73167099       2.09231648      -0.41481807
14
Frame=6 idx=006220 GeodesicLength=0.665254829420792 rxn_smarts="[C:1]([O:2][C@@:3]1([H:10])[C:4]([H:11])([H:12])[C@:5]1([O:6][H:14])[H:13])([H:7])([H:8])[H:9]>>[C:1]([O:2]/[C:3](=[C:5](\[O:6][H:14])[H:13])[H:10])([H:7])([H:8])[H:9].[C:4]([H:11])[H:12]"
C        1.52101074      -0.61559604      -1.04545292
O        0.54592657       0.24249716      -0.48270716
C       -0.69745074      -0.32463896      -0.29029626
C        0.34096627      -0.36186572       1.77293126
C       -1.68880195       0.53159942       0.06031725
O       -1.62800029       1.87306716      -0.15304943
H        1.22591121      -0.89326392      -2.06121029
H        1.65860580      -1.51395666      -0.43828697
H        2.45348363      -0.05513610      -1.05986275
H       -0.84878442      -1.39117881      -0.39136117
H        1.07156637       0.44930180       1.91004736
H       -0.52130173      -0.20683758       2.43385995
H       -2.70570125       0.17646824       0.16337871
H       -0.72743022       2.08954002      -0.41830758
14
Frame=7 idx=006220 GeodesicLength=0.7765828220210975 rxn_smarts="[C:1]([O:2][C@@:3]1([H:10])[C:4]([H:11])([H:12])[C@:5]1([O:6][H:14])[H:13])([H:7])([H:8])[H:9]>>[C:1]([O:2]/[C:3](=[C:5](\[O:6][H:14])[H:13])[H:10])([H:7])([H:8])[H:9].[C:4]([H:11])[H:12]"
C        1.52686640      -0.61744909      -1.04008201
O        0.54660706       0.24166418      -0.48793607
C       -0.69515563      -0.32852236      -0.28829503
C        0.31337215      -0.33684047       1.72806366
C       -1.67798310       0.53393684       0.08850118
O       -1.62060540       1.87380875      -0.14164016
H        1.23173182      -0.90654386      -2.05252802
H        1.67077527      -1.50931709      -0.42505354
H        2.45586112      -0.05133539      -1.05832030
H       -0.85645087      -1.39245204      -0.40038742
H        1.05528437       0.45845221       1.88731424
H       -0.53017506      -0.23444221       2.42024997
H       -2.69624081       0.18188593       0.19219531
H       -0.72388731       2.08715459      -0.42208181
14
Frame=8 idx=006220 GeodesicLength=0.887849435368802 rxn_smarts="[C:1]([O:2][C@@:3]1([H:10])[C:4]([H:11])([H:12])[C@:5]1([O:6][H:14])[H:13])([H:7])([H:8])[H:9]>>[C:1]([O:2]/[C:3](=[C:5](\[O:6][H:14])[H:13])[H:10])([H:7])([H:8])[H:9].[C:4]([H:11])[H:12]"
C        1.53233470      -0.61908805      -1.03392653
O        0.54677881       0.24112161      -0.49290596
C       -0.69352845      -0.33191034      -0.28660859
C        0.28727840      -0.31233754       1.68476275
C       -1.66773758       0.53678562       0.11480035
O       -1.61379239       1.87502555      -0.13118929
H        1.23749215      -0.91999078      -2.04291130
H        1.68234805      -1.50409728      -0.41068868
H        2.45783380      -0.04737864      -1.05604803
H       -0.86456546      -1.39323974      -0.40812831
H        1.04002025       0.46681401       1.86466015
H       -0.53616457      -0.26455741       2.40431827
H       -2.68716431       0.18776339       0.22057255
H       -0.72113340       2.08508960      -0.42670741
14
Frame=9 idx=006220 GeodesicLength=0.9991046417542921 rxn_smarts="[C:1]([O:2][C@@:3]1([H:10])[C:4]([H:11])([H:12])[C@:5]1([O:6][H:14])[H:13])([H:7])([H:8])[H:9]>>[C:1]([O:2]/[C:3](=[C:5](\[O:6][H:14])[H:13])[H:10])([H:7])([H:8])[H:9].[C:4]([H:11])[H:12]"
C        1.53739369      -0.62054812      -1.02705081
O        0.54644293       0.24079744      -0.49769128
C       -0.69251656      -0.33487990      -0.28523429
C        0.26247648      -0.28831889       1.64287746
C       -1.65805267       0.54006515       0.13932175
O       -1.60771319       1.87652084      -0.12215120
H        1.24314126      -0.93362147      -2.03238242
H        1.69333724      -1.49830803      -0.39525986
H        2.45935106      -0.04330774      -1.05314386
H       -0.87304752      -1.39364796      -0.41467135
H        1.02573017       0.47435682       1.84197600
H       -0.53928022      -0.29645863       2.38600501
H       -2.67844519       0.19395048       0.24839911
H       -0.71881748       2.08340000      -0.43099425
14
Frame=10 idx=006220 GeodesicLength=1.1103011657236717 rxn_smarts="[C:1]([O:2][C@@:3]1([H:10])[C:4]([H:11])([H:12])[C@:5]1([O:6][H:14])[H:13])([H:7])([H:8])[H:9]>>[C:1]([O:2]/[C:3](=[C:5](\[O:6][H:14])[H:13])[H:10])([H:7])([H:8])[H:9].[C:4]([H:11])[H:12]"
C        1.54210260      -0.62179566      -1.01948731
O        0.54569770       0.24069347      -0.50216916
C       -0.69207011      -0.33744307      -0.28406373
C        0.23882982      -0.26500963       1.60241189
C       -1.64887685       0.54379473       0.16241715
O       -1.60223701       1.87837233      -0.11414881
H        1.24870001      -0.94727878      -2.02100992
H        1.70377027      -1.49199854      -0.37891930
H        2.46051750      -0.03910848      -1.04960223
H       -0.88189947      -1.39369762      -0.42019072
H        1.01229916       0.48090708       1.81946629
H       -0.53963361      -0.32990197       2.36532823
H       -2.67005183       0.20048724       0.27585238
H       -0.71714818       2.08197889      -0.43588475
14
Frame=11 idx=006220 GeodesicLength=1.221465413467949 rxn_smarts="[C:1]([O:2][C@@:3]1([H:10])[C:4]([H:11])([H:12])[C@:5]1([O:6][H:14])[H:13])([H:7])([H:8])[H:9]>>[C:1]([O:2]/[C:3](=[C:5](\[O:6][H:14])[H:13])[H:10])([H:7])([H:8])[H:9].[C:4]([H:11])[H:12]"
C        1.54647039      -0.62285108      -1.01129062
O        0.54457603       0.24076417      -0.50635990
C       -0.69213732      -0.33965210      -0.28308529
C        0.21620560      -0.24246258       1.56326632
C       -1.64017267       0.54791775       0.18422057
O       -1.59739344       1.88048143      -0.10723858
H        1.25415395      -0.96093488      -2.00883782
H        1.71366184      -1.48520473      -0.36176064
H        2.46133915      -0.03481364      -1.04547629
H       -0.89107750      -1.39344537      -0.42481017
H        0.99961370       0.48644371       1.79712093
H       -0.53731080      -0.36435369       2.34228945
H       -2.66194042       0.20729272       0.30293853
H       -0.71598850       2.08081828      -0.44097648
14
Frame=12 idx=006220 GeodesicLength=1.332609340176032 rxn_smarts="[C:1]([O:2][C@@:3]1([H:10])[C:4]([H:11])([H:12])[C@:5]1([O:6][H:14])[H:13])([H:7])([H:8])[H:9]>>[C:1]([O:2]/[C:3](=[C:5](\[O:6][H:14])[H:13])[H:10])([H:7])([H:8])[H:9].[C:4]([H:11])[H:12]"
C        1.55052047      -0.62373034      -1.00252072
O        0.54312311       0.24097070      -0.51026578
C       -0.69266986      -0.34155692      -0.28228455
C        0.19449826      -0.22077120       1.52536199
C       -1.63190201       0.55237897       0.20487694
O       -1.59316907       1.88278119      -0.10135137
H        1.25950426      -0.97454391      -1.99593100
H        1.72303089      -1.47797633      -0.34389841
H        2.46184802      -0.03044948      -1.04081044
H       -0.90055104      -1.39294118      -0.42866351
H        0.98754100       0.49095422       1.77495954
H       -0.53244707      -0.39931011       2.31693925
H       -2.65406969       0.21429955       0.32969180
H       -0.71525727       2.07989485      -0.44610373
14
Frame=13 idx=006220 GeodesicLength=1.443734664227497 rxn_smarts="[C:1]([O:2][C@@:3]1([H:10])[C:4]([H:11])([H:12])[C@:5]1([O:6][H:14])[H:13])([H:7])([H:8])[H:9]>>[C:1]([O:2]/[C:3](=[C:5](\[O:6][H:14])[H:13])[H:10])([H:7])([H:8])[H:9].[C:4]([H:11])[H:12]"
C        1.55428080      -0.62443505      -0.99322814
O        0.54140194       0.24128572      -0.51384932
C       -0.69361234      -0.34318879      -0.28163378
C        0.17364985      -0.20009170       1.48864574
C       -1.62399597       0.55714060       0.22456006
O       -1.58948312       1.88524281      -0.09627994
H        1.26474612      -0.98801930      -1.98235680
H        1.73189872      -1.47036712      -0.32545960
H        2.46208730      -0.02603665      -1.03562905
H       -0.91030153      -1.39219703      -0.43190002
H        0.97592259       0.49442034       1.75305637
H       -0.52523070      -0.43436591       2.28935203
H       -2.64636852       0.22148320       0.35619851
H       -0.71499514       2.07912888      -0.45147606
14
Frame=14 idx=006220 GeodesicLength=1.5548504862230017 rxn_smarts="[C:1]([O:2][C@@:3]1([H:10])[C:4]([H:11])([H:12])[C@:5]1([O:6][H:14])[H:13])([H:7])([H:8])[H:9]>>[C:1]([O:2]/[C:3](=[C:5](\[O:6][H:14])[H:13])[H:10])([H:7])([H:8])[H:9].[C:4]([H:11])[H:12]"
C        1.55777933      -0.62499411      -0.98349899
O        0.53945131       0.24166009      -0.51714481
C       -0.69491798      -0.34461429      -0.28114977
C        0.15359251      -0.18051859       1.45302731
C       -1.61641790       0.56211763       0.24335939
O       -1.58632493       1.88777839      -0.09196358
H        1.26988937      -1.00133650      -1.96821148
H        1.74029504      -1.46244215      -0.30657814
H        2.46208935      -0.02160413      -1.02999913
H       -0.92029477      -1.39127706      -0.43464841
H        0.96461687       0.49689891       1.73139005
H       -0.51589773      -0.46892994       2.25970260
H       -2.63879938       0.22874337       0.38245231
H       -0.71506108       2.07851839      -0.45673735
14
Frame=15 idx=006220 GeodesicLength=1.6659598813106484 rxn_smarts="[C:1]([O:2][C@@:3]1([H:10])[C:4]([H:11])([H:12])[C@:5]1([O:6][H:14])[H:13])([H:7])([H:8])[H:9]>>[C:1]([O:2]/[C:3](=[C:5](\[O:6][H:14])[H:13])[H:10])([H:7])([H:8])[H:9].[C:4]([H:11])[H:12]"
C        1.56104567      -0.62542095      -0.97340999
O        0.53732184       0.24205708      -0.52015593
C       -0.69653441      -0.34588099      -0.28083721
C        0.13429632      -0.16218827       1.41843369
C       -1.60910295       0.56724351       0.26139071
O       -1.58362801       1.89033381      -0.08824159
H        1.27493547      -1.01444002      -1.95358815
H        1.74825502      -1.45426138      -0.28739176
H        2.46188961      -0.01717036      -1.02397541
H       -0.93050459      -1.39021069      -0.43704455
H        0.95348032       0.49843625       1.70998478
H       -0.50474095      -0.50253354       2.22820757
H       -2.63129682       0.23602006       0.40848690
H       -0.71541653       2.07801547      -0.46185905
14
Frame=16 idx=006220 GeodesicLength=1.7770627945454023 rxn_smarts="[C:1]([O:2][C@@:3]1([H:10])[C:4]([H:11])([H:12])[C@:5]1([O:6][H:14])[H:13])([H:7])([H:8])[H:9]>>[C:1]([O:2]/[C:3](=[C:5](\[O:6][H:14])[H:13])[H:10])([H:7])([H:8])[H:9].[C:4]([H:11])[H:12]"
C        1.56411029      -0.62573385      -0.96304728
O        0.53505766       0.24243933      -0.52290836
C       -0.69841278      -0.34704050      -0.28071342
C        0.11574132      -0.14520506       1.38478368
C       -1.60199004       0.57244504       0.27874567
O       -1.58133091       1.89285131      -0.08497796
H        1.27988834      -1.02729943      -1.93858609
H        1.75582164      -1.44587972      -0.26803200
H        2.46152012      -0.01275091      -1.01763248
H       -0.94090225      -1.38903568      -0.43920825
H        0.94238609       0.49911995       1.68884640
H       -0.49209893      -0.53474487       2.19513990
H       -2.62380117       0.24324382       0.43431422
H       -0.71598939       2.07759057      -0.46672404
