13
Frame=0 idx=001194 GeodesicLength=0.0 rxn_smarts="[C:1]([C:2](=[O:3])[N:4]1[C:5]([H:10])([H:11])[C:6]1([H:12])[H:13])([H:7])([H:8])[H:9]>>[C:1]([C:2]1=[N:4][C:6]([H:12])([H:13])[C:5]([H:10])([H:11])[O:3]1)([H:7])([H:8])[H:9]"
C        2.14463732      -0.11290941      -0.06458113
C        0.65734323       0.02803082      -0.29333727
O        0.24592422       0.61131893      -1.30977495
N       -0.11436195      -0.51799428       0.64250507
C       -1.77676740      -0.07364473      -0.50937847
C       -1.43636776       0.12410369       0.86154751
H        2.64295032      -0.31879823      -1.01010335
H        2.52094523       0.83893258       0.31502965
H        2.36406129      -0.89054285       0.66196811
H       -1.94812026      -1.08825986      -0.84403967
H       -1.94745726       0.72202795      -1.21518931
H       -1.97389619      -0.48679829       1.58250932
H       -1.37889079       1.16453365       1.18284448
13
Frame=1 idx=001194 GeodesicLength=0.0422341319598823 rxn_smarts="[C:1]([C:2](=[O:3])[N:4]1[C:5]([H:10])([H:11])[C:6]1([H:12])[H:13])([H:7])([H:8])[H:9]>>[C:1]([C:2]1=[N:4][C:6]([H:12])([H:13])[C:5]([H:10])([H:11])[O:3]1)([H:7])([H:8])[H:9]"
C        2.14683741      -0.12027415      -0.07021107
C        0.66141961       0.06142284      -0.27079293
O        0.24411769       0.65057614      -1.28378813
N       -0.11537321      -0.49401360       0.65443943
C       -1.75455550      -0.09133330      -0.51580849
C       -1.44311921       0.13180581       0.86274894
H        2.62750516      -0.32094259      -1.02598356
H        2.55155575       0.81568949       0.31958939
H        2.35830553      -0.91674849       0.63822796
H       -1.92570546      -1.10927222      -0.84089424
H       -1.96018435       0.69662155      -1.22161123
H       -1.98182466      -0.48004177       1.58200062
H       -1.40897875       1.17651030       1.17208331
13
Frame=2 idx=001194 GeodesicLength=0.08448584231958993 rxn_smarts="[C:1]([C:2](=[O:3])[N:4]1[C:5]([H:10])([H:11])[C:6]1([H:12])[H:13])([H:7])([H:8])[H:9]>>[C:1]([C:2]1=[N:4][C:6]([H:12])([H:13])[C:5]([H:10])([H:11])[O:3]1)([H:7])([H:8])[H:9]"
C        2.14794156      -0.12731224      -0.07604710
C        0.66571385       0.09402209      -0.24774365
O        0.24231902       0.68860435      -1.25746468
N       -0.11642709      -0.47051487       0.66667160
C       -1.73105427      -0.10804704      -0.52173746
C       -1.44954509       0.13938599       0.86384051
H        2.61102162      -0.32239911      -1.04165499
H        2.58057722       0.79216746       0.32296331
H        2.35105776      -0.94179987       0.61429332
H       -1.90266970      -1.12906125      -0.83750706
H       -1.97066713       0.67070060      -1.22774918
H       -1.98991822      -0.47345101       1.58096899
H       -1.43834954       1.18770489       1.16116639
13
Frame=3 idx=001194 GeodesicLength=0.12664889194779383 rxn_smarts="[C:1]([C:2](=[O:3])[N:4]1[C:5]([H:10])([H:11])[C:6]1([H:12])[H:13])([H:7])([H:8])[H:9]>>[C:1]([C:2]1=[N:4][C:6]([H:12])([H:13])[C:5]([H:10])([H:11])[O:3]1)([H:7])([H:8])[H:9]"
C        2.14803513      -0.13382294      -0.08186068
C        0.67013663       0.12470007      -0.22494873
O        0.24050750       0.72447018      -1.23147419
N       -0.11762380      -0.44835867       0.67859595
C       -1.70668929      -0.12354627      -0.52712589
C       -1.45533435       0.14675310       0.86480196
H        2.59424757      -0.32279142      -1.05662584
H        2.60713519       0.76904953       0.32547931
H        2.34270788      -0.96521826       0.59070469
H       -1.88015434      -1.14724541      -0.83393815
H       -1.97908721       0.64488665      -1.23332673
H       -1.99794419      -0.46690735       1.57950775
H       -1.46593674       1.19803079       1.15021054
13
Frame=4 idx=001194 GeodesicLength=0.16887135981913554 rxn_smarts="[C:1]([C:2](=[O:3])[N:4]1[C:5]([H:10])([H:11])[C:6]1([H:12])[H:13])([H:7])([H:8])[H:9]>>[C:1]([C:2]1=[N:4][C:6]([H:12])([H:13])[C:5]([H:10])([H:11])[O:3]1)([H:7])([H:8])[H:9]"
C        2.14722481      -0.13990813      -0.08770360
C        0.67468140       0.15383231      -0.20223586
O        0.23868811       0.75865320      -1.20559439
N       -0.11892546      -0.42718746       0.69041576
C       -1.68151407      -0.13801608      -0.53199862
C       -1.46064515       0.15396524       0.86563860
H        2.57708524      -0.32229886      -1.07107827
H        2.63169800       0.74615937       0.32716108
H        2.33330024      -0.98731398       0.56726817
H       -1.85785789      -1.16408947      -0.83017477
H       -1.98558474       0.61898513      -1.23845933
H       -2.00597172      -0.46041648       1.57762710
H       -1.49217875       1.20763521       1.13913413
13
Frame=5 idx=001194 GeodesicLength=0.2112867137620513 rxn_smarts="[C:1]([C:2](=[O:3])[N:4]1[C:5]([H:10])([H:11])[C:6]1([H:12])[H:13])([H:7])([H:8])[H:9]>>[C:1]([C:2]1=[N:4][C:6]([H:12])([H:13])[C:5]([H:10])([H:11])[O:3]1)([H:7])([H:8])[H:9]"
C        2.14553948      -0.14568009      -0.09364889
C        0.67938146       0.18187261      -0.17939860
O        0.23687455       0.79165143      -1.17957333
N       -0.12026580      -0.40656972       0.70235732
C       -1.65548898      -0.15166503      -0.53636328
C       -1.46561693       0.16109490       0.86633958
H        2.55931907      -0.32103281      -1.08520768
H        2.65468095       0.72318615       0.32805455
H        2.32276498      -1.00840701       0.54371899
H       -1.83536752      -1.17988421      -0.82615900
H       -1.99022855       0.59274759      -1.24323988
H       -2.01406117      -0.45397878       1.57530491
H       -1.51753155       1.21666498       1.12781532
13
Frame=6 idx=001194 GeodesicLength=0.2537523252415219 rxn_smarts="[C:1]([C:2](=[O:3])[N:4]1[C:5]([H:10])([H:11])[C:6]1([H:12])[H:13])([H:7])([H:8])[H:9]>>[C:1]([C:2]1=[N:4][C:6]([H:12])([H:13])[C:5]([H:10])([H:11])[O:3]1)([H:7])([H:8])[H:9]"
C        2.14318657      -0.15095485      -0.09947283
C        0.68410883       0.20785621      -0.15713616
O        0.23502855       0.82256130      -1.15410351
N       -0.12175766      -0.38733123       0.71383060
C       -1.62912895      -0.16428150      -0.54022713
C       -1.47001054       0.16804466       0.86691487
H        2.54178304      -0.31876067      -1.09857402
H        2.67545613       0.70086838       0.32847780
H        2.31161234      -1.02807019       0.52060096
H       -1.81382557      -1.19427918      -0.82201910
H       -1.99334538       0.56680222      -1.24741059
H       -2.02202160      -0.44750472       1.57266825
H       -1.54108574       1.22504956       1.11645086
13
Frame=7 idx=001194 GeodesicLength=0.2963787452662642 rxn_smarts="[C:1]([C:2](=[O:3])[N:4]1[C:5]([H:10])([H:11])[C:6]1([H:12])[H:13])([H:7])([H:8])[H:9]>>[C:1]([C:2]1=[N:4][C:6]([H:12])([H:13])[C:5]([H:10])([H:11])[O:3]1)([H:7])([H:8])[H:9]"
C        2.14021175      -0.15585389      -0.10525167
C        0.68888530       0.23232829      -0.13523770
O        0.23315418       0.85191794      -1.12895644
N       -0.12334798      -0.36900370       0.72505171
C       -1.60238005      -0.17606629      -0.54359939
C       -1.47398908       0.17487159       0.86736206
H        2.52425161      -0.31568238      -1.11137976
H        2.69450921       0.67889661       0.32843639
H        2.29978003      -1.04662813       0.49768120
H       -1.79276943      -1.20754253      -0.81770102
H       -1.99501253       0.54089776      -1.25104661
H       -2.02993652      -0.44103125       1.56969578
H       -1.56335650       1.23289597       1.10494543
13
Frame=8 idx=001194 GeodesicLength=0.3393416362989833 rxn_smarts="[C:1]([C:2](=[O:3])[N:4]1[C:5]([H:10])([H:11])[C:6]1([H:12])[H:13])([H:7])([H:8])[H:9]>>[C:1]([C:2]1=[N:4][C:6]([H:12])([H:13])[C:5]([H:10])([H:11])[O:3]1)([H:7])([H:8])[H:9]"
C        2.13656829      -0.16048986      -0.11110337
C        0.69377866       0.25576333      -0.11325327
O        0.23128515       0.88023561      -1.10368460
N       -0.12496608      -0.35113301       0.73643320
C       -1.57508645      -0.18720977      -0.54649929
C       -1.47771871       0.18167144       0.86769790
H        2.50635889      -0.31186776      -1.12389575
H        2.71227972       0.65688387       0.32779634
H        2.28701964      -1.06440892       0.47454612
H       -1.77155212      -1.22000697      -0.81317390
H       -1.99515885       0.51472783      -1.25438602
H       -2.03790249      -0.43454258       1.56635623
H       -1.58490567       1.24037679       1.09316643
13
Frame=9 idx=001194 GeodesicLength=0.38273048236561075 rxn_smarts="[C:1]([C:2](=[O:3])[N:4]1[C:5]([H:10])([H:11])[C:6]1([H:12])[H:13])([H:7])([H:8])[H:9]>>[C:1]([C:2]1=[N:4][C:6]([H:12])([H:13])[C:5]([H:10])([H:11])[O:3]1)([H:7])([H:8])[H:9]"
C        2.13223024      -0.16493993      -0.11707271
C        0.69878851       0.27855255      -0.09121935
O        0.22941348       0.90786349      -1.07829510
N       -0.12660956      -0.33336840       0.74799931
C       -1.54715532      -0.19781037      -0.54888069
C       -1.48127268       0.18845271       0.86789989
H        2.48797008      -0.30743958      -1.13621733
H        2.72893248       0.63458498       0.32663934
H        2.27321036      -1.08160053       0.45112288
H       -1.74985212      -1.23177407      -0.80832071
H       -1.99371950       0.48813118      -1.25732482
H       -2.04595055      -0.42809788       1.56264893
H       -1.60598541       1.24744585       1.08102036
13
Frame=10 idx=001194 GeodesicLength=0.42684750481589384 rxn_smarts="[C:1]([C:2](=[O:3])[N:4]1[C:5]([H:10])([H:11])[C:6]1([H:12])[H:13])([H:7])([H:8])[H:9]>>[C:1]([C:2]1=[N:4][C:6]([H:12])([H:13])[C:5]([H:10])([H:11])[O:3]1)([H:7])([H:8])[H:9]"
C        2.12700221      -0.16937438      -0.12336044
C        0.70397849       0.30138784      -0.06833837
O        0.22751542       0.93555202      -1.05196966
N       -0.12820786      -0.31504191       0.76044375
C       -1.51819210      -0.20804466      -0.55069682
C       -1.48489142       0.19532253       0.86797150
H        2.46831158      -0.30262418      -1.14872381
H        2.74512811       0.61144147       0.32450062
H        2.25781847      -1.09856008       0.42682804
H       -1.72649155      -1.24325140      -0.80306065
H       -1.99032694       0.46067852      -1.26027864
H       -2.05421021      -0.42173902       1.55842068
H       -1.62743420       1.25425324       1.06826379
13
Frame=11 idx=001194 GeodesicLength=0.47132671019013234 rxn_smarts="[C:1]([C:2](=[O:3])[N:4]1[C:5]([H:10])([H:11])[C:6]1([H:12])[H:13])([H:7])([H:8])[H:9]>>[C:1]([C:2]1=[N:4][C:6]([H:12])([H:13])[C:5]([H:10])([H:11])[O:3]1)([H:7])([H:8])[H:9]"
C        2.12121910      -0.17347393      -0.12958062
C        0.70923684       0.32289370      -0.04594389
O        0.22560009       0.96184575      -1.02607157
N       -0.12987100      -0.29743118       0.77257948
C       -1.48903304      -0.21762793      -0.55199738
C       -1.48811936       0.20210416       0.86791164
H        2.44875007      -0.29697496      -1.16065231
H        2.75970235       0.58847852       0.32211790
H        2.24173627      -1.11455782       0.40264460
H       -1.70349535      -1.25382682      -0.79757445
H       -1.98568667       0.43330226      -1.26262113
H       -2.06235208      -0.41535544       1.55390507
H       -1.64768722       1.26062368       1.05528266
13
Frame=12 idx=001194 GeodesicLength=0.5163752026385241 rxn_smarts="[C:1]([C:2](=[O:3])[N:4]1[C:5]([H:10])([H:11])[C:6]1([H:12])[H:13])([H:7])([H:8])[H:9]>>[C:1]([C:2]1=[N:4][C:6]([H:12])([H:13])[C:5]([H:10])([H:11])[O:3]1)([H:7])([H:8])[H:9]"
C        2.11480300      -0.17737602      -0.13589863
C        0.71457953       0.34363496      -0.02347551
O        0.22365517       0.98734898      -1.00006273
N       -0.13159460      -0.28000154       0.78493627
C       -1.45941772      -0.22669807      -0.55274887
C       -1.49119446       0.20888360       0.86774461
H        2.42885842      -0.29070912      -1.17236303
H        2.77321431       0.56532521       0.31919779
H        2.22457476      -1.12994225       0.37813265
H       -1.67998074      -1.26384461      -0.79179169
H       -1.97952369       0.40569093      -1.26462024
H       -2.07053661      -0.40898965       1.54903853
H       -1.66743736       1.26667759       1.04191085
13
Frame=13 idx=001194 GeodesicLength=0.5624213075968107 rxn_smarts="[C:1]([C:2](=[O:3])[N:4]1[C:5]([H:10])([H:11])[C:6]1([H:12])[H:13])([H:7])([H:8])[H:9]>>[C:1]([C:2]1=[N:4][C:6]([H:12])([H:13])[C:5]([H:10])([H:11])[O:3]1)([H:7])([H:8])[H:9]"
C        2.10742574      -0.18127435      -0.14250597
C        0.72013221       0.36451448      -0.00041999
O        0.22170154       1.01297350      -0.97335656
N       -0.13326421      -0.26189781       0.79800792
C       -1.42879416      -0.23547333      -0.55286780
C       -1.49428305       0.21576019       0.86743254
H        2.40771404      -0.28398388      -1.18418501
H        2.78609591       0.54115639       0.31553884
H        2.20565617      -1.14512846       0.35274134
H       -1.65462766      -1.27366856      -0.78546950
H       -1.97143134       0.37729343      -1.26649925
H       -2.07884152      -0.40272444       1.54368415
H       -1.68748367       1.27245284       1.02789930
13
Frame=14 idx=001194 GeodesicLength=0.6091388692390642 rxn_smarts="[C:1]([C:2](=[O:3])[N:4]1[C:5]([H:10])([H:11])[C:6]1([H:12])[H:13])([H:7])([H:8])[H:9]>>[C:1]([C:2]1=[N:4][C:6]([H:12])([H:13])[C:5]([H:10])([H:11])[O:3]1)([H:7])([H:8])[H:9]"
C        2.09945817      -0.18493236      -0.14914173
C        0.72574948       0.38447579       0.02247464
O        0.21970230       1.03757248      -0.94680401
N       -0.13500919      -0.24412484       0.81108120
C       -1.39788160      -0.24372517      -0.55241722
C       -1.49714125       0.22261174       0.86700590
H        2.38647860      -0.27654420      -1.19563497
H        2.79775073       0.51687012       0.31151556
H        2.18570993      -1.15957513       0.32712251
H       -1.62897174      -1.28289930      -0.77882149
H       -1.96196974       0.34884780      -1.26791247
H       -2.08708556      -0.39645896       1.53801405
H       -1.70679012       1.27788203       1.01351803
13
Frame=15 idx=001194 GeodesicLength=0.6563188473313497 rxn_smarts="[C:1]([C:2](=[O:3])[N:4]1[C:5]([H:10])([H:11])[C:6]1([H:12])[H:13])([H:7])([H:8])[H:9]>>[C:1]([C:2]1=[N:4][C:6]([H:12])([H:13])[C:5]([H:10])([H:11])[O:3]1)([H:7])([H:8])[H:9]"
C        2.09111273      -0.18827535      -0.15566990
C        0.73135866       0.40316717       0.04483990
O        0.21764650       1.06074806      -0.92081880
N       -0.13686209      -0.22709561       0.82378052
C       -1.36707539      -0.25141139      -0.55146392
C       -1.49967656       0.22938244       0.86648039
H        2.36562856      -0.26840514      -1.20649790
H        2.80804818       0.49288383       0.30735378
H        2.16517409      -1.17308490       0.30161924
H       -1.60366635      -1.29142514      -0.77197110
H       -1.95156063       0.32071924      -1.26871180
H       -2.09517234      -0.39017412       1.53210458
H       -1.72495535       1.28297090       0.99895502
13
Frame=16 idx=001194 GeodesicLength=0.7037616524073643 rxn_smarts="[C:1]([C:2](=[O:3])[N:4]1[C:5]([H:10])([H:11])[C:6]1([H:12])[H:13])([H:7])([H:8])[H:9]>>[C:1]([C:2]1=[N:4][C:6]([H:12])([H:13])[C:5]([H:10])([H:11])[O:3]1)([H:7])([H:8])[H:9]"
C        2.08260169      -0.19125989      -0.16199269
C        0.73689159       0.42036294       0.06641560
O        0.21552227       1.08223942      -0.89571017
N       -0.13884955      -0.21110702       0.83583502
C       -1.33671086      -0.25852049      -0.55009283
C       -1.50185079       0.23603800       0.86588166
H        2.34556754      -0.25962885      -1.21664584
H        2.81697342       0.46952950       0.30323605
H        2.14445774      -1.18554596       0.27649694
H       -1.57921070      -1.29919079      -0.76504467
H       -1.94060433       0.29318281      -1.26880306
H       -2.10305276      -0.38385225       1.52603617
H       -1.74173526       1.28775257       0.98438782
