16
Frame=0 idx=006476 GeodesicLength=0.0 rxn_smarts="[C:1]([C@@:2]([C:3]([O:4][H:14])([H:12])[H:13])([N:5]([C:6](=[O:7])[H:16])[H:15])[H:11])([H:8])([H:9])[H:10]>>[C-:6]#[O+:7].[C:1]([C@@:2]([C:3]([O:4][H:14])([H:12])[H:13])([N:5]([H:15])[H:16])[H:11])([H:8])([H:9])[H:10]"
C       -1.06918446       1.49661953      -0.24850330
C       -0.22646344       0.33244872       0.25118685
C       -0.97446951      -0.99830041       0.15876278
O       -0.43305824      -2.01127119       0.95683124
N        1.04601335       0.27870439      -0.48487696
C        2.41397153      -0.49899371      -0.10334484
O        2.35818965      -1.38590758       0.67882656
H       -0.49945436       2.42620211      -0.22844748
H       -1.95488808       1.62444572       0.37473221
H       -1.40425338       1.32365519      -1.27534897
H        0.03794822       0.48686819       1.30173532
H       -1.99975140      -0.84435092       0.50422220
H       -1.03067713      -1.29786157      -0.90028815
H        0.53074852      -2.01377239       0.86912567
H        0.96237531       0.32476928      -1.49818509
H        2.24295342       0.75674460      -0.35642805
16
Frame=1 idx=006476 GeodesicLength=0.0740773066610795 rxn_smarts="[C:1]([C@@:2]([C:3]([O:4][H:14])([H:12])[H:13])([N:5]([C:6](=[O:7])[H:16])[H:15])[H:11])([H:8])([H:9])[H:10]>>[C-:6]#[O+:7].[C:1]([C@@:2]([C:3]([O:4][H:14])([H:12])[H:13])([N:5]([H:15])[H:16])[H:11])([H:8])([H:9])[H:10]"
C       -1.07598660       1.49307843      -0.25605705
C       -0.22697950       0.33679066       0.25166074
C       -0.97089265      -0.99640323       0.16511752
O       -0.43697520      -1.99996152       0.98026392
N        1.04704920       0.28551032      -0.48025721
C        2.41697093      -0.53290146      -0.13338400
O        2.37091739      -1.42570172       0.64088571
H       -0.51389361       2.42742392      -0.23608208
H       -1.96540447       1.61771821       0.36251124
H       -1.40570676       1.31410229      -1.28355031
H        0.03104369       0.50027098       1.30268733
H       -2.00033777      -0.84515069       0.49956678
H       -1.01705364      -1.30541445      -0.89146073
H        0.52627684      -2.01059354       0.89225210
H        0.97153410       0.38845449      -1.48958397
H        2.24943805       0.75277729      -0.32456999
16
Frame=2 idx=006476 GeodesicLength=0.14808165403472168 rxn_smarts="[C:1]([C@@:2]([C:3]([O:4][H:14])([H:12])[H:13])([N:5]([C:6](=[O:7])[H:16])[H:15])[H:11])([H:8])([H:9])[H:10]>>[C-:6]#[O+:7].[C:1]([C@@:2]([C:3]([O:4][H:14])([H:12])[H:13])([N:5]([H:15])[H:16])[H:11])([H:8])([H:9])[H:10]"
C       -1.08315062       1.48936047      -0.26426944
C       -0.22764270       0.34163294       0.25230151
C       -0.96686724      -0.99434247       0.17201547
O       -0.44003918      -1.98783135       1.00425979
N        1.04818958       0.29306396      -0.47510406
C        2.41856782      -0.56677224      -0.16523132
O        2.38184511      -1.46774810       0.59819899
H       -0.52933941       2.42875941      -0.24415293
H       -1.97675737       1.61040922       0.34894423
H       -1.40651427       1.30391840      -1.29258373
H        0.02347376       0.51469346       1.30372939
H       -2.00043874      -0.84630148       0.49533276
H       -1.00262619      -1.31302115      -0.88185413
H        0.52264972      -2.00608274       0.91635005
H        0.98241666       0.45365743      -1.47714412
H        2.25623306       0.74660424      -0.29079247
16
Frame=3 idx=006476 GeodesicLength=0.22200226636245732 rxn_smarts="[C:1]([C@@:2]([C:3]([O:4][H:14])([H:12])[H:13])([N:5]([C:6](=[O:7])[H:16])[H:15])[H:11])([H:8])([H:9])[H:10]>>[C-:6]#[O+:7].[C:1]([C@@:2]([C:3]([O:4][H:14])([H:12])[H:13])([N:5]([H:15])[H:16])[H:11])([H:8])([H:9])[H:10]"
C       -1.09066164       1.48542283      -0.27323194
C       -0.22846500       0.34702541       0.25316974
C       -0.96233020      -0.99209890       0.17954492
O       -0.44206317      -1.97483815       1.02884748
N        1.04947214       0.30146777      -0.46926486
C        2.41861098      -0.60053540      -0.19902505
O        2.39043516      -1.51196691       0.55043932
H       -0.54586075       2.43019189      -0.25272024
H       -1.98899964       1.60242419       0.33381468
H       -1.40647808       1.29301748      -1.30256098
H        0.01514155       0.53022974       1.30490913
H       -1.99997141      -0.84784303       0.49166981
H       -0.98734877      -1.32064513      -0.87136732
H        0.52005739      -2.00017118       0.94129551
H        0.99513422       0.52038188      -1.46048084
H        2.26332721       0.73793750      -0.25503935
16
Frame=4 idx=006476 GeodesicLength=0.2958384046290082 rxn_smarts="[C:1]([C@@:2]([C:3]([O:4][H:14])([H:12])[H:13])([N:5]([C:6](=[O:7])[H:16])[H:15])[H:11])([H:8])([H:9])[H:10]>>[C-:6]#[O+:7].[C:1]([C@@:2]([C:3]([O:4][H:14])([H:12])[H:13])([N:5]([H:15])[H:16])[H:11])([H:8])([H:9])[H:10]"
C       -1.09848631       1.48121243      -0.28305031
C       -0.22945943       0.35301843       0.25433903
C       -0.95722059      -0.98964994       0.18780941
O       -0.44283217      -1.96093984       1.05405262
N        1.05093830       0.31082487      -0.46255853
C        2.41692219      -0.63409073      -0.23490731
O        2.39608868      -1.55817013       0.49731936
H       -0.56351163       2.43169134      -0.26187031
H       -2.00216736       1.59365844       0.31687402
H       -1.40536436       1.28129904      -1.31360133
H        0.00593600       0.54697655       1.30628324
H       -1.99884657      -0.84981023       0.48876998
H       -0.97119467      -1.32823593      -0.85988687
H        0.51870697      -1.99284355       0.96686666
H        1.00979548       0.58860362      -1.43915104
H        2.27069545       0.72645564      -0.21728862
16
Frame=5 idx=006476 GeodesicLength=0.36960284577151 rxn_smarts="[C:1]([C@@:2]([C:3]([O:4][H:14])([H:12])[H:13])([N:5]([C:6](=[O:7])[H:16])[H:15])[H:11])([H:8])([H:9])[H:10]>>[C-:6]#[O+:7].[C:1]([C@@:2]([C:3]([O:4][H:14])([H:12])[H:13])([N:5]([H:15])[H:16])[H:11])([H:8])([H:9])[H:10]"
C       -1.10656228       1.47666970      -0.29383707
C       -0.23064077       0.35965431       0.25589307
C       -0.95148934      -0.98696982       0.19692311
O       -0.44210695      -1.94610374       1.07988748
N        1.05262753       0.32121529      -0.45479129
C        2.41330036      -0.66729984      -0.27301524
O        2.39818267      -1.60598293       0.43869574
H       -0.58230906       2.43320922      -0.27171452
H       -2.01626324       1.58400889       0.29785585
H       -1.40289900       1.26865925      -1.32581996
H       -0.00426470       0.56501840       1.30791353
H       -1.99697789      -0.85222175       0.48687489
H       -0.95417613      -1.33572483      -0.84729708
H        0.51881522      -1.98418814       0.99269708
H        1.02647983       0.65824233      -1.41266744
H        2.27828376       0.71181367      -0.17759815
16
Frame=6 idx=006476 GeodesicLength=0.4433166269571701 rxn_smarts="[C:1]([C@@:2]([C:3]([O:4][H:14])([H:12])[H:13])([N:5]([C:6](=[O:7])[H:16])[H:15])[H:11])([H:8])([H:9])[H:10]>>[C-:6]#[O+:7].[C:1]([C@@:2]([C:3]([O:4][H:14])([H:12])[H:13])([N:5]([H:15])[H:16])[H:11])([H:8])([H:9])[H:10]"
C       -1.11478101       1.47173192      -0.30570102
C       -0.23202522       0.36695524       0.25792580
C       -0.94512221      -0.98403252       0.20700203
O       -0.43964731      -1.93033357       1.10631525
N        1.05456944       0.33268170      -0.44576615
C        2.40754933      -0.69994143      -0.31342901
O        2.39615566      -1.65478649       0.37466698
H       -0.60219540       2.43467402      -0.28238533
H       -2.03122949       1.57338634       0.27649490
H       -1.39876848       1.25500552      -1.33931241
H       -0.01558299       0.58440145       1.30986749
H       -1.99429573      -0.85506711       0.48629297
H       -0.93640235      -1.34301312      -0.83349501
H        0.52057533      -1.97444083       1.01823669
H        1.04520683       0.72906738      -1.38053934
H        2.28599359       0.69371149      -0.13617385
16
Frame=7 idx=006476 GeodesicLength=0.5170018162953729 rxn_smarts="[C:1]([C@@:2]([C:3]([O:4][H:14])([H:12])[H:13])([N:5]([C:6](=[O:7])[H:16])[H:15])[H:11])([H:8])([H:9])[H:10]>>[C-:6]#[O+:7].[C:1]([C@@:2]([C:3]([O:4][H:14])([H:12])[H:13])([N:5]([H:15])[H:16])[H:11])([H:8])([H:9])[H:10]"
C       -1.12298023       1.46633666      -0.31872946
C       -0.23362694       0.37491321       0.26053379
C       -0.93814707      -0.98081635       0.21814186
O       -0.43524812      -1.91367787       1.13324139
N        1.05677659       0.34521462      -0.43530188
C        2.39949810      -0.73170249      -0.35615205
O        2.38958292      -1.70373724       0.30559832
H       -0.62301502       2.43598860      -0.29402691
H       -2.04692265       1.56172608       0.25256423
H       -1.39264664       1.24026886      -1.35412726
H       -0.02812429       0.60511370       1.31220982
H       -1.99076199      -0.85830076       0.48735147
H       -0.91807714      -1.34998361      -0.81841489
H        0.52412504      -1.96396345       1.04283161
H        1.06589627       0.80066330      -1.34232860
H        2.29367117       0.67195676      -0.09339143
16
Frame=8 idx=006476 GeodesicLength=0.5907090511042556 rxn_smarts="[C:1]([C@@:2]([C:3]([O:4][H:14])([H:12])[H:13])([N:5]([C:6](=[O:7])[H:16])[H:15])[H:11])([H:8])([H:9])[H:10]>>[C-:6]#[O+:7].[C:1]([C@@:2]([C:3]([O:4][H:14])([H:12])[H:13])([N:5]([H:15])[H:16])[H:11])([H:8])([H:9])[H:10]"
C       -1.13095925       1.46043308      -0.33297135
C       -0.23546150       0.38348177       0.26380449
C       -0.93064346      -0.97730435       0.23040153
O       -0.42877129      -1.89624154       1.16050956
N        1.05924732       0.35873925      -0.42326138
C        2.38904357      -0.76220197      -0.40110748
O        2.37828004      -1.75184053       0.23214382
H       -0.64451304       2.43703307      -0.30679091
H       -2.06312739       1.54900454       0.22591215
H       -1.38423756       1.22442716      -1.37024010
H       -0.04197052       0.62706192       1.31498783
H       -1.98639868      -0.86183352       0.49035988
H       -0.89949010      -1.35649966      -0.80204387
H        0.52952662      -1.95320608       1.06581110
H        1.08834410       0.87243480      -1.29772144
H        2.30113113       0.64651207      -0.04979384
16
Frame=9 idx=006476 GeodesicLength=0.6644240292826024 rxn_smarts="[C:1]([C@@:2]([C:3]([O:4][H:14])([H:12])[H:13])([N:5]([C:6](=[O:7])[H:16])[H:15])[H:11])([H:8])([H:9])[H:10]>>[C-:6]#[O+:7].[C:1]([C@@:2]([C:3]([O:4][H:14])([H:12])[H:13])([N:5]([H:15])[H:16])[H:11])([H:8])([H:9])[H:10]"
C       -1.13844979       1.45399833      -0.34837779
C       -0.23754001       0.39256308       0.26779673
C       -0.92272643      -0.97349607       0.24374784
O       -0.42018125      -1.87820737       1.18783453
N        1.06191620       0.37307842      -0.40961989
C        2.37610894      -0.79102008      -0.44809839
O        2.36240695      -1.79788138       0.15546462
H       -0.66628619       2.43767052      -0.32075315
H       -2.07947959       1.53527420       0.19656991
H       -1.37327354       1.20752513      -1.38750493
H       -0.05716341       0.65006029       1.31822674
H       -1.98123989      -0.86552018       0.49555301
H       -0.88099161      -1.36243592      -0.78449687
H        0.53669708      -1.94268994       1.08651676
H        1.11210322       0.94349837      -1.24668466
H        2.30809932       0.61758260      -0.00617446
16
Frame=10 idx=006476 GeodesicLength=0.7381896812773301 rxn_smarts="[C:1]([C@@:2]([C:3]([O:4][H:14])([H:12])[H:13])([N:5]([C:6](=[O:7])[H:16])[H:15])[H:11])([H:8])([H:9])[H:10]>>[C-:6]#[O+:7].[C:1]([C@@:2]([C:3]([O:4][H:14])([H:12])[H:13])([N:5]([H:15])[H:16])[H:11])([H:8])([H:9])[H:10]"
C       -1.14521114       1.44704884      -0.36485530
C       -0.23986717       0.40202306       0.27254161
C       -0.91458771      -0.96942030       0.25809513
O       -0.40958366      -1.85985252       1.21491044
N        1.06474290       0.38803594      -0.39441193
C        2.36081653      -0.81771223      -0.49678855
O        2.34247212      -1.84084757       0.07678010
H       -0.68786332       2.43779170      -0.33600188
H       -2.09561419       1.52064502       0.16469917
H       -1.35968958       1.18970063      -1.40569772
H       -0.07365888       0.67380791       1.32192685
H       -1.97545280      -0.86922023       0.50305272
H       -0.86302402      -1.36767056      -0.76594401
H        0.54545531      -1.93286401       1.10454750
H        1.13666966       1.01287653      -1.18948534
H        2.31439595       0.58565778       0.03663118
16
Frame=11 idx=006476 GeodesicLength=0.8119898481364942 rxn_smarts="[C:1]([C@@:2]([C:3]([O:4][H:14])([H:12])[H:13])([N:5]([C:6](=[O:7])[H:16])[H:15])[H:11])([H:8])([H:9])[H:10]>>[C-:6]#[O+:7].[C:1]([C@@:2]([C:3]([O:4][H:14])([H:12])[H:13])([N:5]([H:15])[H:16])[H:11])([H:8])([H:9])[H:10]"
C       -1.15096345       1.43957664      -0.38227392
C       -0.24242204       0.41172682       0.27805345
C       -0.90642647      -0.96514799       0.27332617
O       -0.39720047      -1.84141869       1.24151871
N        1.06767126       0.40344133      -0.37772014
C        2.34327876      -0.84182035      -0.54684523
O        2.31902335      -1.87991189      -0.00290743
H       -0.70867711       2.43728559      -0.35257258
H       -2.11108281       1.50518129       0.13055078
H       -1.34346135       1.17104671      -1.42458641
H       -0.09134686       0.69803266       1.32610751
H       -1.96921678      -0.87286185       0.51285470
H       -0.84598707      -1.37219404      -0.74660904
H        0.55547612      -1.92402761       1.11977609
H        1.16147989       1.07965053      -1.12662563
H        2.31985505       0.55144087       0.07795296
16
Frame=12 idx=006476 GeodesicLength=0.8855406206842141 rxn_smarts="[C:1]([C@@:2]([C:3]([O:4][H:14])([H:12])[H:13])([N:5]([C:6](=[O:7])[H:16])[H:15])[H:11])([H:8])([H:9])[H:10]>>[C-:6]#[O+:7].[C:1]([C@@:2]([C:3]([O:4][H:14])([H:12])[H:13])([N:5]([H:15])[H:16])[H:11])([H:8])([H:9])[H:10]"
C       -1.15552155       1.43179618      -0.40008591
C       -0.24520831       0.42139879       0.28414824
C       -0.89841991      -0.96067043       0.28895266
O       -0.38342279      -1.82334500       1.26676378
N        1.07044425       0.41874330      -0.36006647
C        2.32383290      -0.86331449      -0.59735567
O        2.29390770      -1.91408849      -0.08054463
H       -0.72813336       2.43606662      -0.37011650
H       -2.12531441       1.48943312       0.09513883
H       -1.32500559       1.15203232      -1.44335124
H       -0.11001305       0.72210394       1.33047866
H       -1.96263308      -0.87604885       0.52460461
H       -0.83026188      -1.37581314      -0.72701990
H        0.56628054      -1.91652444       1.13178603
H        1.18531580       1.14213244      -1.05970360
H        2.32415272       0.51609815       0.11637110
16
Frame=13 idx=006476 GeodesicLength=0.9588183778977248 rxn_smarts="[C:1]([C@@:2]([C:3]([O:4][H:14])([H:12])[H:13])([N:5]([C:6](=[O:7])[H:16])[H:15])[H:11])([H:8])([H:9])[H:10]>>[C-:6]#[O+:7].[C:1]([C@@:2]([C:3]([O:4][H:14])([H:12])[H:13])([N:5]([H:15])[H:16])[H:11])([H:8])([H:9])[H:10]"
C       -1.15880014       1.42378285      -0.41810695
C       -0.24816535       0.43090010       0.29075819
C       -0.89082464      -0.95612189       0.30479133
O       -0.36870490      -1.80591519       1.29064537
N        1.07307993       0.43383135      -0.34172375
C        2.30283205      -0.88202660      -0.64795429
O        2.26805727      -1.94337105      -0.15543482
H       -0.74576683       2.43416703      -0.38853530
H       -2.13807237       1.47351286       0.05895781
H       -1.30477162       1.13289267      -1.46182096
H       -0.12931869       0.74567979       1.33507912
H       -1.95605970      -0.87884380       0.53800311
H       -0.81620186      -1.37861700      -0.70749458
H        0.57744966      -1.91038582       1.14107739
H        1.20780246       1.19989872      -0.98987977
H        2.32746473       0.48061599       0.15163810
16
Frame=14 idx=006476 GeodesicLength=1.0321321360637892 rxn_smarts="[C:1]([C@@:2]([C:3]([O:4][H:14])([H:12])[H:13])([N:5]([C:6](=[O:7])[H:16])[H:15])[H:11])([H:8])([H:9])[H:10]>>[C-:6]#[O+:7].[C:1]([C@@:2]([C:3]([O:4][H:14])([H:12])[H:13])([N:5]([H:15])[H:16])[H:11])([H:8])([H:9])[H:10]"
C       -1.16078726       1.41572419      -0.43607933
C       -0.25129816       0.44017979       0.29777894
C       -0.88374646      -0.95166485       0.32065543
O       -0.35348833      -1.78938383       1.31310616
N        1.07553746       0.44858932      -0.32306279
C        2.28056191      -0.89815887      -0.69841142
O        2.24252517      -1.96808930      -0.22679291
H       -0.76133864       2.43182075      -0.40762083
H       -2.14922722       1.45770873       0.02260310
H       -1.28301459       1.11381602      -1.47975068
H       -0.14920454       0.76868643       1.33987625
H       -1.94966306      -0.88129933       0.55277432
H       -0.80377536      -1.38090003      -0.68831173
H        0.58856040      -1.90563431       1.14802173
H        1.22851803       1.25274141      -0.91829998
H        2.32984066       0.44586384       0.18351373
16
Frame=15 idx=006476 GeodesicLength=1.1049565013480596 rxn_smarts="[C:1]([C@@:2]([C:3]([O:4][H:14])([H:12])[H:13])([N:5]([C:6](=[O:7])[H:16])[H:15])[H:11])([H:8])([H:9])[H:10]>>[C-:6]#[O+:7].[C:1]([C@@:2]([C:3]([O:4][H:14])([H:12])[H:13])([N:5]([H:15])[H:16])[H:11])([H:8])([H:9])[H:10]"
C       -1.16165624       1.40752836      -0.45401032
C       -0.25456119       0.44917686       0.30510963
C       -0.87708229      -0.94704919       0.33652358
O       -0.33759223      -1.77339750       1.33420276
N        1.07780648       0.46289909      -0.30394846
C        2.25699732      -0.91182235      -0.74853642
O        2.21751916      -1.98869770      -0.29505970
H       -0.77502690       2.42872213      -0.42739968
H       -2.15890802       1.44191942      -0.01410947
H       -1.26007893       1.09489896      -1.49692611
H       -0.16948849       0.79089691       1.34454699
H       -1.94336872      -0.88308099       0.56864338
H       -0.79289686      -1.38233499      -0.66924378
H        0.59972321      -1.90201676       1.15284551
H        1.24720682       1.30070049      -0.84518700
H        2.33140688       0.41165725       0.21254909
16
Frame=16 idx=006476 GeodesicLength=1.1771596598481269 rxn_smarts="[C:1]([C@@:2]([C:3]([O:4][H:14])([H:12])[H:13])([N:5]([C:6](=[O:7])[H:16])[H:15])[H:11])([H:8])([H:9])[H:10]>>[C-:6]#[O+:7].[C:1]([C@@:2]([C:3]([O:4][H:14])([H:12])[H:13])([N:5]([H:15])[H:16])[H:11])([H:8])([H:9])[H:10]"
C       -1.16117383       1.39925951      -0.47124586
C       -0.25784816       0.45770818       0.31253369
C       -0.87092087      -0.94245832       0.35178251
O       -0.32185273      -1.75817770       1.35338355
N        1.07955806       0.47650150      -0.28518412
C        2.23218177      -0.92340501      -0.79769415
O        2.19431152      -2.00519237      -0.35829748
H       -0.78621520       2.42488716      -0.44705661
H       -2.16639864       1.42644377      -0.04968548
H       -1.23652997       1.07621744      -1.51286366
H       -0.18968092       0.81201044       1.34913059
H       -1.93712955      -0.88434340       0.58482460
H       -0.78355991      -1.38320746      -0.65114873
H        0.61017602      -1.89895461       1.15599815
H        1.26331300       1.34311674      -0.77271794
H        2.33176940       0.37959415       0.23824093
