16
Frame=0 idx=009962 GeodesicLength=0.0 rxn_smarts="[C:1]([C:2]#[C:3][C:4]([N:5]1[C:6]([H:13])([H:14])[C:7]1([H:15])[H:16])([H:11])[H:12])([H:8])([H:9])[H:10]>>[C:1]([C:2](=[C:3]=[C:4]([N:5]1[C:6]([H:13])([H:14])[C:7]1([H:15])[H:16])[H:11])[H:12])([H:8])([H:9])[H:10]"
C        2.69715998       0.55922610       0.28591710
C        1.95454063      -0.71568100       0.13470280
C        0.89369201      -0.90948331      -0.58036987
C       -0.46914781      -0.93936068      -0.81576379
N       -1.42506919      -0.67697814       0.15490419
C       -2.49595213       0.25792742      -0.11201595
C       -1.41743592       0.57759638       0.86521945
H        3.59552032       0.50411322      -0.33595248
H        3.05729695       0.67511513       1.30977565
H        2.14338583       1.46102171      -0.01209325
H       -0.86140029      -1.32461510      -1.75190492
H        0.57531687      -2.04975065      -0.81621905
H       -3.47827825      -0.03802241       0.23626298
H       -2.47694892       0.78920990      -1.05847666
H       -0.67733344       1.31375390       0.56800117
H       -1.61534663       0.51592756       1.92801259
16
Frame=1 idx=009962 GeodesicLength=0.0941572849035757 rxn_smarts="[C:1]([C:2]#[C:3][C:4]([N:5]1[C:6]([H:13])([H:14])[C:7]1([H:15])[H:16])([H:11])[H:12])([H:8])([H:9])[H:10]>>[C:1]([C:2](=[C:3]=[C:4]([N:5]1[C:6]([H:13])([H:14])[C:7]1([H:15])[H:16])[H:11])[H:12])([H:8])([H:9])[H:10]"
C        2.71873219       0.54974046       0.29573060
C        1.94599178      -0.70075386       0.10129045
C        0.88778492      -0.85378457      -0.62336336
C       -0.47890825      -0.94537740      -0.81377033
N       -1.42644018      -0.67788597       0.16635305
C       -2.51161520       0.23928235      -0.10574159
C       -1.42602606       0.59026950       0.85200882
H        3.62101586       0.49389544      -0.32027133
H        3.07039711       0.62824377       1.32614494
H        2.18782952       1.47183273       0.02091050
H       -0.87811591      -1.32666131      -1.74884276
H        0.59569804      -2.04000768      -0.79866643
H       -3.48681039      -0.05939657       0.25971033
H       -2.50937161       0.75304099      -1.06210040
H       -0.69993783       1.33099883       0.53240750
H       -1.61022399       0.54656330       1.91820001
16
Frame=2 idx=009962 GeodesicLength=0.1881345979134948 rxn_smarts="[C:1]([C:2]#[C:3][C:4]([N:5]1[C:6]([H:13])([H:14])[C:7]1([H:15])[H:16])([H:11])[H:12])([H:8])([H:9])[H:10]>>[C:1]([C:2](=[C:3]=[C:4]([N:5]1[C:6]([H:13])([H:14])[C:7]1([H:15])[H:16])[H:11])[H:12])([H:8])([H:9])[H:10]"
C        2.74035007       0.54001570       0.30190201
C        1.93815389      -0.68504981       0.07115078
C        0.88047363      -0.80127785      -0.65715370
C       -0.48588751      -0.95004467      -0.80912940
N       -1.42876845      -0.67872471       0.17719358
C       -2.52634339       0.22197068      -0.10144673
C       -1.43766569       0.60069788       0.84136826
H        3.64378996       0.48240573      -0.31210251
H        3.08706503       0.58376752       1.33611752
H        2.23045205       1.48004104       0.05106021
H       -0.88948913      -1.32294420      -1.74601154
H        0.61674970      -2.02999555      -0.77742029
H       -3.49587633      -0.07934694       0.27655836
H       -2.53663914       0.72036104      -1.06593353
H       -0.72395225       1.34562693       0.50413508
H       -1.61241244       0.57249721       1.90971191
16
Frame=3 idx=009962 GeodesicLength=0.28209167974138943 rxn_smarts="[C:1]([C:2]#[C:3][C:4]([N:5]1[C:6]([H:13])([H:14])[C:7]1([H:15])[H:16])([H:11])[H:12])([H:8])([H:9])[H:10]>>[C:1]([C:2](=[C:3]=[C:4]([N:5]1[C:6]([H:13])([H:14])[C:7]1([H:15])[H:16])[H:11])[H:12])([H:8])([H:9])[H:10]"
C        2.76220382       0.53012330       0.30519590
C        1.93068956      -0.66854493       0.04395333
C        0.87213064      -0.75097959      -0.68386423
C       -0.49072896      -0.95339607      -0.80278564
N       -1.43189629      -0.67954169       0.18740186
C       -2.54047814       0.20559243      -0.09871500
C       -1.45169361       0.60927126       0.83278931
H        3.66496299       0.46944963      -0.30937189
H        3.10613452       0.54158661       1.34126486
H        2.27251482       1.48622739       0.07807670
H       -0.89697108      -1.31471877      -1.74345250
H        0.63804010      -2.01976541      -0.75286439
H       -3.50552601      -0.09852033       0.28830475
H       -2.56008321       0.69048904      -1.06999623
H       -0.74906176       1.35829936       0.48162426
H       -1.62023740       0.59442777       1.90243890
16
Frame=4 idx=009962 GeodesicLength=0.37606696940229944 rxn_smarts="[C:1]([C:2]#[C:3][C:4]([N:5]1[C:6]([H:13])([H:14])[C:7]1([H:15])[H:16])([H:11])[H:12])([H:8])([H:9])[H:10]>>[C:1]([C:2](=[C:3]=[C:4]([N:5]1[C:6]([H:13])([H:14])[C:7]1([H:15])[H:16])[H:11])[H:12])([H:8])([H:9])[H:10]"
C        2.78440768       0.51996412       0.30627055
C        1.92352453      -0.65129888       0.01915326
C        0.86302803      -0.70211784      -0.70496597
C       -0.49383189      -0.95535989      -0.79536130
N       -1.43557433      -0.68024780       0.19701802
C       -2.55428140       0.18974433      -0.09722346
C       -1.46765550       0.61650061       0.82569016
H        3.68501058       0.45525688      -0.31088825
H        3.12718885       0.50092791       1.34267053
H        2.31459101       1.49067546       0.10269725
H       -0.90151893      -1.30289341      -1.74105736
H        0.65931481      -2.00923571      -0.72526636
H       -3.51567255      -0.11755208       0.29621269
H       -2.58089109       0.66260373      -1.07433804
H       -0.77527144       1.36973685       0.46331507
H       -1.63236836       0.61329571       1.89607321
16
Frame=5 idx=009962 GeodesicLength=0.4700645095873184 rxn_smarts="[C:1]([C:2]#[C:3][C:4]([N:5]1[C:6]([H:13])([H:14])[C:7]1([H:15])[H:16])([H:11])[H:12])([H:8])([H:9])[H:10]>>[C:1]([C:2](=[C:3]=[C:4]([N:5]1[C:6]([H:13])([H:14])[C:7]1([H:15])[H:16])[H:11])[H:12])([H:8])([H:9])[H:10]"
C        2.80698758       0.50948519       0.30549777
C        1.91658603      -0.63333181      -0.00367685
C        0.85334093      -0.65405519      -0.72150511
C       -0.49546769      -0.95587457      -0.78727550
N       -1.43963418      -0.68081298       0.20605899
C       -2.56788179       0.17418535      -0.09672808
C       -1.48524353       0.62263788       0.81976170
H        3.70439375       0.43969520      -0.31560226
H        3.14948251       0.46152732       1.34112002
H        2.35723474       1.49361518       0.12490441
H       -0.90373310      -1.28810435      -1.73874983
H        0.68042616      -1.99828575      -0.69479409
H       -3.52621943      -0.13682294       0.30110253
H       -2.59975990       0.63625405      -1.07891612
H       -0.80256147       1.38032595       0.44833229
H       -1.64795062       0.62956146       1.89047013
16
Frame=6 idx=009962 GeodesicLength=0.5640794624963329 rxn_smarts="[C:1]([C:2]#[C:3][C:4]([N:5]1[C:6]([H:13])([H:14])[C:7]1([H:15])[H:16])([H:11])[H:12])([H:8])([H:9])[H:10]>>[C:1]([C:2](=[C:3]=[C:4]([N:5]1[C:6]([H:13])([H:14])[C:7]1([H:15])[H:16])[H:11])[H:12])([H:8])([H:9])[H:10]"
C        2.82995412       0.49858017       0.30317715
C        1.90992199      -0.61466507      -0.02504933
C        0.84320153      -0.60625881      -0.73422497
C       -0.49580348      -0.95487277      -0.77878311
N       -1.44390407      -0.68116151       0.21457919
C       -2.58136811       0.15869543      -0.09705350
C       -1.50425690       0.62796672       0.81470124
H        3.72330454       0.42289199      -0.32290372
H        3.17266567       0.42283015       1.33712812
H        2.40068139       1.49512831       0.14513309
H       -0.90401534      -1.27085315      -1.73640401
H        0.70128512      -1.98679289      -0.66150878
H       -3.53704896      -0.15666567       0.30362165
H       -2.61724584       0.61097271      -1.08373309
H       -0.83101544       1.39045029       0.43587678
H       -1.66635621       0.64375410       1.88544328
16
Frame=7 idx=009962 GeodesicLength=0.6581015711401106 rxn_smarts="[C:1]([C:2]#[C:3][C:4]([N:5]1[C:6]([H:13])([H:14])[C:7]1([H:15])[H:16])([H:11])[H:12])([H:8])([H:9])[H:10]>>[C:1]([C:2](=[C:3]=[C:4]([N:5]1[C:6]([H:13])([H:14])[C:7]1([H:15])[H:16])[H:11])[H:12])([H:8])([H:9])[H:10]"
C        2.85333125       0.48713729       0.29949377
C        1.90358664      -0.59532439      -0.04541449
C        0.83269310      -0.55822783      -0.74361799
C       -0.49493895      -0.95226851      -0.77001957
N       -1.44824896      -0.68122090       0.22263881
C       -2.59480599       0.14308797      -0.09807530
C       -1.52459953       0.63269348       0.81028853
H        3.74191310       0.40489478      -0.33238089
H        3.19645621       0.38436924       1.33103676
H        2.44515757       1.49524852       0.16368935
H       -0.90259801      -1.25146575      -1.73391334
H        0.72183538      -1.97459057      -0.62537951
H       -3.54806204      -0.17736485       0.30422266
H       -2.63375139       0.58637980      -1.08878873
H       -0.86077254       1.40038955       0.42537590
H       -1.68719585       0.65626217       1.88084404
16
Frame=8 idx=009962 GeodesicLength=0.752139572485621 rxn_smarts="[C:1]([C:2]#[C:3][C:4]([N:5]1[C:6]([H:13])([H:14])[C:7]1([H:15])[H:16])([H:11])[H:12])([H:8])([H:9])[H:10]>>[C:1]([C:2](=[C:3]=[C:4]([N:5]1[C:6]([H:13])([H:14])[C:7]1([H:15])[H:16])[H:11])[H:12])([H:8])([H:9])[H:10]"
C        2.87714421       0.47499127       0.29460698
C        1.89772097      -0.57534360      -0.06532693
C        0.82188503      -0.50949451      -0.75001517
C       -0.49290668      -0.94796170      -0.76101987
N       -1.45251521      -0.68086492       0.23034324
C       -2.60825321       0.12715947      -0.09969763
C       -1.54624029       0.63709373       0.80626464
H        3.76023160       0.38603409      -0.34390577
H        3.22086003       0.34533734       1.32298631
H        2.49067831       1.49388583       0.18132758
H       -0.89960674      -1.23019932      -1.73113111
H        0.74205042      -1.96151015      -0.58628167
H       -3.55914752      -0.19922166       0.30331916
H       -2.64964881       0.56200698      -1.09412916
H       -0.89206102       1.41047424       0.41619040
H       -1.71019108       0.66761290       1.87646902
16
Frame=9 idx=009962 GeodesicLength=0.8462007812475107 rxn_smarts="[C:1]([C:2]#[C:3][C:4]([N:5]1[C:6]([H:13])([H:14])[C:7]1([H:15])[H:16])([H:11])[H:12])([H:8])([H:9])[H:10]>>[C:1]([C:2](=[C:3]=[C:4]([N:5]1[C:6]([H:13])([H:14])[C:7]1([H:15])[H:16])[H:11])[H:12])([H:8])([H:9])[H:10]"
C        2.90134559       0.46194339       0.28863480
C        1.89249876      -0.55469026      -0.08551769
C        0.81082428      -0.45961274      -0.75368477
C       -0.48969117      -0.94185123      -0.75174870
N       -1.45651819      -0.67992753       0.23782711
C       -2.62170116       0.11071081      -0.10183484
C       -1.56914533       0.64147134       0.80236474
H        3.77815593       0.36686089      -0.35742064
H        3.24587886       0.30469903       1.31294433
H        2.53706488       1.49080278       0.19902162
H       -0.89511448      -1.20731054      -1.72786942
H        0.76194107      -1.94736388      -0.54396868
H       -3.57012770      -0.22251476       0.30129092
H       -2.66520117       0.53734802      -1.09980735
H       -0.92510853       1.42103760       0.40767903
H       -1.73510164       0.67839708       1.87208954
16
Frame=10 idx=009962 GeodesicLength=0.9403461582679116 rxn_smarts="[C:1]([C:2]#[C:3][C:4]([N:5]1[C:6]([H:13])([H:14])[C:7]1([H:15])[H:16])([H:11])[H:12])([H:8])([H:9])[H:10]>>[C:1]([C:2](=[C:3]=[C:4]([N:5]1[C:6]([H:13])([H:14])[C:7]1([H:15])[H:16])[H:11])[H:12])([H:8])([H:9])[H:10]"
C        2.92621947       0.44791592       0.28124995
C        1.88784344      -0.53325367      -0.10585452
C        0.79947767      -0.40800898      -0.75422717
C       -0.48525766      -0.93376258      -0.74199854
N       -1.46045366      -0.67846120       0.24508356
C       -2.63522494       0.09371847      -0.10469928
C       -1.59371377       0.64559721       0.79880547
H        3.79595382       0.34678294      -0.37323784
H        3.27166460       0.26262306       1.30061142
H        2.58507053       1.48600642       0.21606147
H       -0.88885210      -1.18266597      -1.72401918
H        0.78149574      -1.93177706      -0.49768496
H       -3.58117150      -0.24737802       0.29756905
H       -2.68017617       0.51260542      -1.10596844
H       -0.96022719       1.43193804       0.40042193
H       -1.76264828       0.68812001       1.86788708
16
Frame=11 idx=009962 GeodesicLength=1.0346849151489943 rxn_smarts="[C:1]([C:2]#[C:3][C:4]([N:5]1[C:6]([H:13])([H:14])[C:7]1([H:15])[H:16])([H:11])[H:12])([H:8])([H:9])[H:10]>>[C:1]([C:2](=[C:3]=[C:4]([N:5]1[C:6]([H:13])([H:14])[C:7]1([H:15])[H:16])[H:11])[H:12])([H:8])([H:9])[H:10]"
C        2.95206336       0.43269853       0.27213133
C        1.88376471      -0.51086078      -0.12640768
C        0.78782238      -0.35403748      -0.75107326
C       -0.47950308      -0.92344633      -0.73144128
N       -1.46445686      -0.67641440       0.25218005
C       -2.64890423       0.07605995      -0.10854027
C       -1.62041450       0.64942155       0.79565504
H        3.81359498       0.32568018      -0.39204081
H        3.29885029       0.21854893       1.28542767
H        2.63522697       1.47926354       0.23253809
H       -0.88046126      -1.15611389      -1.71933906
H        0.80072699      -1.91427007      -0.44644223
H       -3.59238388      -0.27410332       0.29162173
H       -2.69441759       0.48772052      -1.11286105
H       -0.99790957       1.44323262       0.39470140
H       -1.79359870       0.69662045       1.86389033
16
Frame=12 idx=009962 GeodesicLength=1.1293590192833085 rxn_smarts="[C:1]([C:2]#[C:3][C:4]([N:5]1[C:6]([H:13])([H:14])[C:7]1([H:15])[H:16])([H:11])[H:12])([H:8])([H:9])[H:10]>>[C:1]([C:2](=[C:3]=[C:4]([N:5]1[C:6]([H:13])([H:14])[C:7]1([H:15])[H:16])[H:11])[H:12])([H:8])([H:9])[H:10]"
C        2.97929017       0.41602900       0.26075775
C        1.88020967      -0.48728159      -0.14701095
C        0.77582397      -0.29690238      -0.74323382
C       -0.47225608      -0.91053430      -0.71960010
N       -1.46876142      -0.67376528       0.25916882
C       -2.66284592       0.05760511      -0.11374204
C       -1.64992990       0.65276366       0.79308313
H        3.83105856       0.30308923      -0.41476634
H        3.32819634       0.17204975       1.26661927
H        2.68842398       1.47029426       0.24808209
H       -0.86936172      -1.12726275      -1.71352753
H        0.81965246      -1.89414115      -0.38888619
H       -3.60394395      -0.30305795       0.28257083
H       -2.70762646       0.46276452      -1.12081790
H       -1.03881407       1.45490122       0.39110834
H       -1.82911564       0.70344864       1.86019463
16
Frame=13 idx=009962 GeodesicLength=1.2245213504597041 rxn_smarts="[C:1]([C:2]#[C:3][C:4]([N:5]1[C:6]([H:13])([H:14])[C:7]1([H:15])[H:16])([H:11])[H:12])([H:8])([H:9])[H:10]>>[C:1]([C:2](=[C:3]=[C:4]([N:5]1[C:6]([H:13])([H:14])[C:7]1([H:15])[H:16])[H:11])[H:12])([H:8])([H:9])[H:10]"
C        3.00847633       0.39757468       0.24632984
C        1.87703089      -0.46221705      -0.16702259
C        0.76344516      -0.23557538      -0.72904188
C       -0.46326508      -0.89445438      -0.70578021
N       -1.47374543      -0.67054575       0.26606547
C       -2.67718935       0.03819658      -0.12090286
C       -1.68323129       0.65523141       0.79139420
H        3.84826379       0.27791661      -0.44271481
H        3.36067048       0.12299430       1.24315314
H        2.74611941       1.45879854       0.26152617
H       -0.85466030      -1.09529967      -1.70618062
H        0.83822984      -1.87036469      -0.32318094
H       -3.61612290      -0.33475410       0.26900287
H       -2.71930257       0.43799818      -1.13030112
H       -1.08382155       1.46680525       0.39068150
H       -1.87089740       0.70769548       1.85697185
16
Frame=14 idx=009962 GeodesicLength=1.3205461261630098 rxn_smarts="[C:1]([C:2]#[C:3][C:4]([N:5]1[C:6]([H:13])([H:14])[C:7]1([H:15])[H:16])([H:11])[H:12])([H:8])([H:9])[H:10]>>[C:1]([C:2](=[C:3]=[C:4]([N:5]1[C:6]([H:13])([H:14])[C:7]1([H:15])[H:16])[H:11])[H:12])([H:8])([H:9])[H:10]"
C        3.04021149       0.37681019       0.22783898
C        1.87398920      -0.43534262      -0.18564381
C        0.75072073      -0.16904986      -0.70617700
C       -0.45211451      -0.87461646      -0.68888265
N       -1.47980746      -0.66668825       0.27302246
C       -2.69199857       0.01766312      -0.13088159
C       -1.72154929       0.65663479       0.79069535
H        3.86427014       0.25035196      -0.47857705
H        3.39863826       0.06981715       1.21298972
H        2.80928110       1.44398207       0.27330147
H       -0.83506515      -1.05944090      -1.69654521
H        0.85646784      -1.84175371      -0.24650394
H       -3.62908965      -0.36971535       0.24914898
H       -2.72870290       0.41352831      -1.14212743
H       -1.13413006       1.47900860       0.39418895
H       -1.92112117       0.70881096       1.85415278
16
Frame=15 idx=009962 GeodesicLength=1.4174083350186562 rxn_smarts="[C:1]([C:2]#[C:3][C:4]([N:5]1[C:6]([H:13])([H:14])[C:7]1([H:15])[H:16])([H:11])[H:12])([H:8])([H:9])[H:10]>>[C:1]([C:2](=[C:3]=[C:4]([N:5]1[C:6]([H:13])([H:14])[C:7]1([H:15])[H:16])[H:11])[H:12])([H:8])([H:9])[H:10]"
C        3.07479637       0.35340880       0.20387297
C        1.87031844      -0.40630022      -0.20052236
C        0.73770134      -0.09611226      -0.67140633
C       -0.43834846      -0.85004865      -0.66783617
N       -1.48747258      -0.66256768       0.27978247
C       -2.70707580      -0.00400073      -0.14473318
C       -1.76601843       0.65572420       0.79169338
H        3.87841757       0.21672320      -0.52365031
H        3.44205714       0.01456694       1.17525631
H        2.88051798       1.42577937       0.27837925
H       -0.80902158      -1.01755774      -1.68402519
H        0.87414825      -1.80664759      -0.15639489
H       -3.64287464      -0.40844150       0.22027884
H       -2.73444853       0.39061926      -1.15681262
H       -1.19060028       1.49071698       0.40402408
H       -1.98209680       0.70413764       1.85209375
16
Frame=16 idx=009962 GeodesicLength=1.5148598879660986 rxn_smarts="[C:1]([C:2]#[C:3][C:4]([N:5]1[C:6]([H:13])([H:14])[C:7]1([H:15])[H:16])([H:11])[H:12])([H:8])([H:9])[H:10]>>[C:1]([C:2](=[C:3]=[C:4]([N:5]1[C:6]([H:13])([H:14])[C:7]1([H:15])[H:16])[H:11])[H:12])([H:8])([H:9])[H:10]"
C        3.11089699       0.32720741       0.17376100
C        1.86488512      -0.37513013      -0.20965471
C        0.72472127      -0.01707007      -0.62299809
C       -0.42144990      -0.82061916      -0.64187921
N       -1.49643632      -0.65846239       0.28624337
C       -2.72138848      -0.02646115      -0.16308061
C       -1.81627781       0.65191537       0.79434384
H        3.88791571       0.17668924      -0.57930418
H        3.49054413      -0.04246228       1.12906203
H        2.95887638       1.40373921       0.27516121
H       -0.77556760      -0.96868413      -1.66793618
H        0.89135359      -1.76430879      -0.05126881
H       -3.65638010      -0.45048832       0.18105030
H       -2.73496311       0.37022970      -1.17470174
H       -1.25283398       1.50138890       0.42073211
H       -2.05389588       0.69251661       1.85046965
