15
Frame=0 idx=011953 GeodesicLength=0.0 rxn_smarts="[C:1]([C@@:2]([O:3][H:12])([C:4]([O:5][C:6](=[O:7])[H:15])([H:13])[H:14])[H:11])([H:8])([H:9])[H:10]>>[C:1]([C@:2]1([H:11])[C:4]([H:13])([H:14])[O:5][C:6]1=[O:7])([H:8])([H:9])[H:10].[O:3]([H:12])[H:15]"
C       -1.36105555       1.04308607      -0.59845608
C       -0.06611249       0.32684714      -0.48542318
O        0.28045320       1.09039889       1.55969135
C       -0.04137019      -1.13905872      -0.65768900
O        1.18286835      -1.72054123      -0.43102667
C        1.85641408      -0.99748392       0.64269116
O        2.92808041      -1.39360754       0.94254491
H       -2.15084497       0.56614807      -0.01849620
H       -1.65874941       1.00776410      -1.65439709
H       -1.26772438       2.08658777      -0.31297822
H        0.81848677       0.85473873      -0.82246213
H       -0.33730453       0.80137059       2.23911425
H       -0.27075781      -1.26220423      -1.73255647
H       -0.86445766      -1.61402051      -0.10767217
H        0.95207415       0.34997485       1.43711549
15
Frame=1 idx=011953 GeodesicLength=0.13358693971518001 rxn_smarts="[C:1]([C@@:2]([O:3][H:12])([C:4]([O:5][C:6](=[O:7])[H:15])([H:13])[H:14])[H:11])([H:8])([H:9])[H:10]>>[C:1]([C@:2]1([H:11])[C:4]([H:13])([H:14])[O:5][C:6]1=[O:7])([H:8])([H:9])[H:10].[O:3]([H:12])[H:15]"
C       -1.37378167       1.02595951      -0.58511604
C       -0.06720979       0.32516492      -0.47426619
O        0.30399304       1.12230379       1.53926344
C       -0.03670173      -1.13841118      -0.68715494
O        1.20113523      -1.70283815      -0.46536394
C        1.83560262      -0.98415712       0.62229541
O        2.82933111      -1.44822674       1.06162180
H       -2.15585727       0.53311197      -0.00773440
H       -1.67324319       1.00276397      -1.64050377
H       -1.29769407       2.06812654      -0.28917841
H        0.79896575       0.86635252      -0.83973402
H       -0.27695501       0.82946318       2.25058614
H       -0.25658727      -1.24768373      -1.76435929
H       -0.85128207      -1.63692294      -0.14650963
H        1.02028433       0.38499346       1.42615382
15
Frame=2 idx=011953 GeodesicLength=0.2672279196965646 rxn_smarts="[C:1]([C@@:2]([O:3][H:12])([C:4]([O:5][C:6](=[O:7])[H:15])([H:13])[H:14])[H:11])([H:8])([H:9])[H:10]>>[C:1]([C@:2]1([H:11])[C:4]([H:13])([H:14])[O:5][C:6]1=[O:7])([H:8])([H:9])[H:10].[O:3]([H:12])[H:15]"
C       -1.38516978       1.00791842      -0.57110735
C       -0.06710048       0.32267197      -0.46297285
O        0.32760954       1.15244331       1.51867866
C       -0.03081428      -1.13769313      -0.71612877
O        1.22018402      -1.68452598      -0.49676129
C        1.81552923      -0.97346416       0.60610882
O        2.71398648      -1.49397783       1.17133501
H       -2.15928028       0.49888925       0.00327781
H       -1.68674829       0.99738469      -1.62573124
H       -1.32620711       2.04812404      -0.26379335
H        0.78016539       0.87700450      -0.85498126
H       -0.21476441       0.85857275       2.26108559
H       -0.24006787      -1.23313980      -1.79561987
H       -0.83684091      -1.65947316      -0.18580997
H        1.08951874       0.41926515       1.41242006
15
Frame=3 idx=011953 GeodesicLength=0.4013306897658144 rxn_smarts="[C:1]([C@@:2]([O:3][H:12])([C:4]([O:5][C:6](=[O:7])[H:15])([H:13])[H:14])[H:11])([H:8])([H:9])[H:10]>>[C:1]([C@:2]1([H:11])[C:4]([H:13])([H:14])[O:5][C:6]1=[O:7])([H:8])([H:9])[H:10].[O:3]([H:12])[H:15]"
C       -1.39464023       0.98939780      -0.55686270
C       -0.06614737       0.31857096      -0.45084936
O        0.35017377       1.18043211       1.49867704
C       -0.02493226      -1.13745648      -0.74434359
O        1.23735767      -1.66815961      -0.52235597
C        1.79118560      -0.96787376       0.59738157
O        2.59395886      -1.52469350       1.26442246
H       -2.16135727       0.46485415       0.01363711
H       -1.69769810       0.99226819      -1.61068231
H       -1.35195054       2.02683400      -0.23729905
H        0.76266784       0.88492098      -0.86694082
H       -0.15192822       0.88958835       2.27156629
H       -0.22018742      -1.21839370      -1.82643586
H       -0.82421280      -1.68138690      -0.22752675
H        1.15771046       0.45109742       1.39761196
15
Frame=4 idx=011953 GeodesicLength=0.5358411965101212 rxn_smarts="[C:1]([C@@:2]([O:3][H:12])([C:4]([O:5][C:6](=[O:7])[H:15])([H:13])[H:14])[H:11])([H:8])([H:9])[H:10]>>[C:1]([C@:2]1([H:11])[C:4]([H:13])([H:14])[O:5][C:6]1=[O:7])([H:8])([H:9])[H:10].[O:3]([H:12])[H:15]"
C       -1.40333816       0.97017353      -0.54193029
C       -0.06453622       0.31377017      -0.43850089
O        0.37326754       1.20755674       1.47840873
C       -0.01828672      -1.13708393      -0.77236711
O        1.25424590      -1.65231938      -0.54367067
C        1.76479523      -0.96489281       0.59368425
O        2.46784295      -1.54822584       1.34705842
H       -2.16239062       0.42990727       0.02443563
H       -1.70846005       0.98670558      -1.59468727
H       -1.37666430       2.00432748      -0.20948626
H        0.74579940       0.89197365      -0.87683988
H       -0.08847487       0.92446070       2.28036951
H       -0.19723215      -1.20299047      -1.85715514
H       -0.81174727      -1.70278910      -0.27136535
H        1.22517933       0.47942640       1.38204632
15
Frame=5 idx=011953 GeodesicLength=0.6711565775855192 rxn_smarts="[C:1]([C@@:2]([O:3][H:12])([C:4]([O:5][C:6](=[O:7])[H:15])([H:13])[H:14])[H:11])([H:8])([H:9])[H:10]>>[C:1]([C@:2]1([H:11])[C:4]([H:13])([H:14])[O:5][C:6]1=[O:7])([H:8])([H:9])[H:10].[O:3]([H:12])[H:15]"
C       -1.41142950       0.94966762      -0.52558973
C       -0.06207677       0.30869751      -0.42624831
O        0.39775981       1.23457440       1.45675354
C       -0.01004161      -1.13590061      -0.80044049
O        1.27198029      -1.63553217      -0.56194139
C        1.73759991      -0.96307019       0.59321935
O        2.33056176      -1.56797748       1.42197319
H       -2.16171450       0.39321712       0.03703881
H       -1.71997081       0.97952080      -1.57662963
H       -1.40095737       1.97990761      -0.17990560
H        0.72921045       0.89883852      -0.88554593
H       -0.02420975       0.96443188       2.28612156
H       -0.17096955      -1.18645460      -1.88764578
H       -0.79777306      -1.72323809      -0.31680007
H        1.29203070       0.50331767       1.36564050
15
Frame=6 idx=011953 GeodesicLength=0.8068392846604706 rxn_smarts="[C:1]([C@@:2]([O:3][H:12])([C:4]([O:5][C:6](=[O:7])[H:15])([H:13])[H:14])[H:11])([H:8])([H:9])[H:10]>>[C:1]([C@:2]1([H:11])[C:4]([H:13])([H:14])[O:5][C:6]1=[O:7])([H:8])([H:9])[H:10].[O:3]([H:12])[H:15]"
C       -1.41850204       0.92918018      -0.50917395
C       -0.05907074       0.30323223      -0.41417820
O        0.42170935       1.25967969       1.43514543
C       -0.00171890      -1.13447406      -0.82734309
O        1.28801858      -1.62081628      -0.57523431
C        1.70934525      -0.96250230       0.59497012
O        2.19311497      -1.57785166       1.48616394
H       -2.16023212       0.35668563       0.04897476
H       -1.73052567       0.97284740      -1.55830177
H       -1.42357004       1.95474251      -0.14923563
H        0.71349224       0.90474827      -0.89271437
H        0.03861207       1.00566263       2.28955797
H       -0.14298590      -1.17002032      -1.91666528
H       -0.78465581      -1.74192243      -0.36233675
H        1.35696877       0.52080853       1.35037114
15
Frame=7 idx=011953 GeodesicLength=0.9429860150093375 rxn_smarts="[C:1]([C@@:2]([O:3][H:12])([C:4]([O:5][C:6](=[O:7])[H:15])([H:13])[H:14])[H:11])([H:8])([H:9])[H:10]>>[C:1]([C@:2]1([H:11])[C:4]([H:13])([H:14])[O:5][C:6]1=[O:7])([H:8])([H:9])[H:10].[O:3]([H:12])[H:15]"
C       -1.42473229       0.90885641      -0.49289369
C       -0.05562608       0.29766393      -0.40242392
O        0.44472294       1.28295760       1.41353312
C        0.00664845      -1.13269185      -0.85292009
O        1.30250601      -1.60788337      -0.58428469
C        1.68052244      -0.96263955       0.59816859
O        2.05649405      -1.57895686       1.54064821
H       -2.15810778       0.32044294       0.06001703
H       -1.74022364       0.96671606      -1.53990169
H       -1.44477272       1.92894826      -0.11773165
H        0.69855122       0.90998909      -0.89867045
H        0.10002487       1.04761511       2.29077128
H       -0.11385828      -1.15390513      -1.94391171
H       -0.77209162      -1.75874302      -0.40716904
H        1.41994244       0.53163039       1.33676870
15
Frame=8 idx=011953 GeodesicLength=1.0795322605487747 rxn_smarts="[C:1]([C@@:2]([O:3][H:12])([C:4]([O:5][C:6](=[O:7])[H:15])([H:13])[H:14])[H:11])([H:8])([H:9])[H:10]>>[C:1]([C@:2]1([H:11])[C:4]([H:13])([H:14])[O:5][C:6]1=[O:7])([H:8])([H:9])[H:10].[O:3]([H:12])[H:15]"
C       -1.43024491       0.88895204      -0.47706772
C       -0.05189053       0.29218593      -0.39106102
O        0.46628808       1.30440217       1.39214740
C        0.01482875      -1.13055267      -0.87695293
O        1.31531684      -1.59675611      -0.58957917
C        1.65144001      -0.96317874       0.60223595
O        1.92286403      -1.57169824       1.58613336
H       -2.15563621       0.28481203       0.06969622
H       -1.74898053       0.96141055      -1.52179204
H       -1.46466824       1.90275036      -0.08571984
H        0.68438244       0.91467896      -0.90358897
H        0.15973482       1.08923077       2.28989856
H       -0.08423636      -1.13841776      -1.96909979
H       -0.76017070      -1.77362639      -0.45058166
H        1.48097251       0.53580711       1.32533164
15
Frame=9 idx=011953 GeodesicLength=1.2162827450149827 rxn_smarts="[C:1]([C@@:2]([O:3][H:12])([C:4]([O:5][C:6](=[O:7])[H:15])([H:13])[H:14])[H:11])([H:8])([H:9])[H:10]>>[C:1]([C@:2]1([H:11])[C:4]([H:13])([H:14])[O:5][C:6]1=[O:7])([H:8])([H:9])[H:10].[O:3]([H:12])[H:15]"
C       -1.43516056       0.86984640      -0.46222663
C       -0.04805935       0.28702660      -0.38007609
O        0.48568782       1.32383516       1.37134997
C        0.02251234      -1.12811718      -0.89902348
O        1.32645767      -1.58702987      -0.59174055
C        1.62241465      -0.96352502       0.60669873
O        1.79488907      -1.55694296       1.62285935
H       -2.15324488       0.25035527       0.07728216
H       -1.75654079       0.95722585      -1.50459508
H       -1.48327530       1.87656763      -0.05392026
H        0.67096361       0.91895991      -0.90752566
H        0.21740504       1.12911642       2.28721281
H       -0.05515575      -1.12413045      -1.99174790
H       -0.74887262      -1.78662395      -0.49131399
H        1.53997904       0.53343619       1.31676661
15
Frame=10 idx=011953 GeodesicLength=1.353309173206025 rxn_smarts="[C:1]([C@@:2]([O:3][H:12])([C:4]([O:5][C:6](=[O:7])[H:15])([H:13])[H:14])[H:11])([H:8])([H:9])[H:10]>>[C:1]([C@:2]1([H:11])[C:4]([H:13])([H:14])[O:5][C:6]1=[O:7])([H:8])([H:9])[H:10].[O:3]([H:12])[H:15]"
C       -1.43968618       0.85149531      -0.44831035
C       -0.04424346       0.28224662      -0.36951448
O        0.50287257       1.34169948       1.35116473
C        0.02972536      -1.12537844      -0.91938271
O        1.33601416      -1.57871020      -0.59121150
C        1.59352082      -0.96376039       0.61135011
O        1.67273146      -1.53539946       1.65243544
H       -2.15104407       0.21695529       0.08289175
H       -1.76319151       0.95419549      -1.48822105
H       -1.50095338       1.85032351      -0.02226915
H        0.65816840       0.92294697      -0.91068931
H        0.27341360       1.16715260       2.28287408
H       -0.02651900      -1.11090318      -2.01218122
H       -0.73822211      -1.79791250      -0.52975651
H        1.59741334       0.52504887       1.31082018
15
Frame=11 idx=011953 GeodesicLength=1.4906382357585486 rxn_smarts="[C:1]([C@@:2]([O:3][H:12])([C:4]([O:5][C:6](=[O:7])[H:15])([H:13])[H:14])[H:11])([H:8])([H:9])[H:10]>>[C:1]([C@:2]1([H:11])[C:4]([H:13])([H:14])[O:5][C:6]1=[O:7])([H:8])([H:9])[H:10].[O:3]([H:12])[H:15]"
C       -1.44398995       0.83389982      -0.43538500
C       -0.04054964       0.27795061      -0.35937201
O        0.51768529       1.35827718       1.33161091
C        0.03647054      -1.12232900      -0.93811976
O        1.34417003      -1.57144825      -0.58846333
C        1.56481393      -0.96370550       0.61607389
O        1.55662973      -1.50797968       1.67579105
H       -2.14915130       0.18461515       0.08652749
H       -1.76912165       0.95224026      -1.47271772
H       -1.51794831       1.82403918       0.00901706
H        0.64587875       0.92679803      -0.91319758
H        0.32815981       1.20321353       2.27699804
H        0.00151643      -1.09874820      -2.03051788
H       -0.72809442      -1.80768235      -0.56586156
H        1.65353078       0.51085923       1.30761638
15
Frame=12 idx=011953 GeodesicLength=1.6282187307668896 rxn_smarts="[C:1]([C@@:2]([O:3][H:12])([C:4]([O:5][C:6](=[O:7])[H:15])([H:13])[H:14])[H:11])([H:8])([H:9])[H:10]>>[C:1]([C@:2]1([H:11])[C:4]([H:13])([H:14])[O:5][C:6]1=[O:7])([H:8])([H:9])[H:10].[O:3]([H:12])[H:15]"
C       -1.44822883       0.81708573      -0.42354124
C       -0.03709579       0.27421104      -0.34961531
O        0.52993491       1.37384190       1.31276606
C        0.04271469      -1.11898041      -0.95528702
O        1.35105187      -1.56498668      -0.58385105
C        1.53632938      -0.96320259       0.62076354
O        1.44708487      -1.47545408       1.69375656
H       -2.14772598       0.15336585       0.08809761
H       -1.77443562       0.95137581      -1.45818286
H       -1.53450647       1.79774403       0.03974711
H        0.63397559       0.93062448      -0.91513114
H        0.38195374       1.23714565       2.26967728
H        0.02880360      -1.08768294      -2.04685651
H       -0.71844305      -1.81610980      -0.59959361
H        1.70858708       0.49102203       1.30725059
15
Frame=13 idx=011953 GeodesicLength=1.7660327806415477 rxn_smarts="[C:1]([C@@:2]([O:3][H:12])([C:4]([O:5][C:6](=[O:7])[H:15])([H:13])[H:14])[H:11])([H:8])([H:9])[H:10]>>[C:1]([C@:2]1([H:11])[C:4]([H:13])([H:14])[O:5][C:6]1=[O:7])([H:8])([H:9])[H:10].[O:3]([H:12])[H:15]"
C       -1.45254211       0.80105119      -0.41283123
C       -0.03397017       0.27111084      -0.34020895
O        0.53946110       1.38869282       1.29464217
C        0.04847220      -1.11531701      -0.97093099
O        1.35688110      -1.55894473      -0.57773594
C        1.50814833      -0.96205288       0.62532212
O        1.34419645      -1.43866453       1.70697914
H       -2.14685560       0.12323486       0.08763678
H       -1.77928970       0.95149086      -1.44465846
H       -1.55085071       1.77147756       0.06968423
H        0.62233305       0.93454659      -0.91656881
H        0.43512102       1.26892244       2.26086221
H        0.05519786      -1.07771303      -2.06127707
H       -0.70912035      -1.82334657      -0.63085655
H        1.76281753       0.46551158       1.30994136
15
Frame=14 idx=011953 GeodesicLength=1.903935882014435 rxn_smarts="[C:1]([C@@:2]([O:3][H:12])([C:4]([O:5][C:6](=[O:7])[H:15])([H:13])[H:14])[H:11])([H:8])([H:9])[H:10]>>[C:1]([C@:2]1([H:11])[C:4]([H:13])([H:14])[O:5][C:6]1=[O:7])([H:8])([H:9])[H:10].[O:3]([H:12])[H:15]"
C       -1.45710185       0.78581313      -0.40339456
C       -0.03133113       0.26866531      -0.33105451
O        0.54588859       1.40299914       1.27744510
C        0.05368729      -1.11135640      -0.98509341
O        1.36171811      -1.55316555      -0.57033124
C        1.48031252      -0.96009584       0.62965648
O        1.24858182      -1.39815849       1.71627573
H       -2.14677078       0.09423297       0.08490126
H       -1.78369132       0.95267397      -1.43232223
H       -1.56728516       1.74523858       0.09863586
H        0.61081186       0.93864641      -0.91745040
H        0.48823982       1.29855665       2.25066202
H        0.08060405      -1.06878810      -2.07388100
H       -0.70014655      -1.82956542      -0.65970595
H        1.81648274       0.43430363       1.31565684
15
Frame=15 idx=011953 GeodesicLength=2.0418838020842984 rxn_smarts="[C:1]([C@@:2]([O:3][H:12])([C:4]([O:5][C:6](=[O:7])[H:15])([H:13])[H:14])[H:11])([H:8])([H:9])[H:10]>>[C:1]([C@:2]1([H:11])[C:4]([H:13])([H:14])[O:5][C:6]1=[O:7])([H:8])([H:9])[H:10].[O:3]([H:12])[H:15]"
C       -1.46207678       0.77130733      -0.39527405
C       -0.02929613       0.26691700      -0.32206458
O        0.54892112       1.41701337       1.26127056
C        0.05840419      -1.10705435      -0.99785716
O        1.36575324      -1.54733278      -0.56186305
C        1.45287059      -0.95715991       0.63373463
O        1.16009424      -1.35456940       1.72230050
H       -2.14757557       0.06628276       0.07988617
H       -1.78779119       0.95479923      -1.42121753
H       -1.58412528       1.71898443       0.12641588
H        0.59925737       0.94305258      -0.91772834
H        0.54207667       1.32635085       2.23886977
H        0.10502551      -1.06077338      -2.08478687
H       -0.69138254      -1.83490227      -0.68623426
H        1.86984457       0.39708456       1.32454834
15
Frame=16 idx=011953 GeodesicLength=2.1798141161569426 rxn_smarts="[C:1]([C@@:2]([O:3][H:12])([C:4]([O:5][C:6](=[O:7])[H:15])([H:13])[H:14])[H:11])([H:8])([H:9])[H:10]>>[C:1]([C@:2]1([H:11])[C:4]([H:13])([H:14])[O:5][C:6]1=[O:7])([H:8])([H:9])[H:10].[O:3]([H:12])[H:15]"
C       -1.46764351       0.75746100      -0.38851549
C       -0.02799437       0.26591116      -0.31312545
O        0.54819755       1.43098898       1.24626465
C        0.06267172      -1.10234620      -1.00928090
O        1.36917506      -1.54112406      -0.55250498
C        1.42589005      -0.95304738       0.63754247
O        1.07857129      -1.30841856       1.72564769
H       -2.14938338       0.03927834       0.07254566
H       -1.79172478       0.95775647      -1.41139815
H       -1.60172812       1.69264990       0.15285797
H        0.58750823       0.94790967      -0.91730103
H        0.59749487       1.35264154       2.22503905
H        0.12847569      -1.05349924      -2.09408863
H       -0.68267702      -1.83947316      -0.71052143
H        1.92316672       0.35331154       1.33683857
