12
Frame=0 idx=000199 GeodesicLength=0.0 rxn_smarts="[O:1]([C:2]([C@@:3]([O:4][H:11])([C:5]#[C:6][H:12])[H:10])([H:8])[H:9])[H:7]>>[O:1]([C:2](/[C:3]([O:4][H:11])=[C:5](/[C:6][H:12])[H:10])([H:8])[H:9])[H:7]"
O       -1.85611707      -1.24717488      -0.24276248
C       -1.19350706      -0.07840241      -0.65953830
C        0.02251234       0.16092145       0.20065143
O       -0.31122767       0.45348903       1.46361990
C        1.32721514       0.17343157      -0.24676994
C        2.62886837       0.22092441      -0.18136286
H       -2.25438226      -1.08715677       0.61566562
H       -1.85972243       0.79241695      -0.62166659
H       -0.87541573      -0.23435228      -1.68913566
H        0.76744852       1.06206190      -0.84457847
H        0.48474514       0.46258887       2.00722870
H        3.11958269      -0.67874779       0.19864861
12
Frame=1 idx=000199 GeodesicLength=0.047745987525261394 rxn_smarts="[O:1]([C:2]([C@@:3]([O:4][H:11])([C:5]#[C:6][H:12])[H:10])([H:8])[H:9])[H:7]>>[O:1]([C:2](/[C:3]([O:4][H:11])=[C:5](/[C:6][H:12])[H:10])([H:8])[H:9])[H:7]"
O       -1.85113484      -1.24671283      -0.24094957
C       -1.19913556      -0.07463890      -0.66309221
C        0.02078265       0.17976143       0.18603638
O       -0.30082501       0.43939449       1.46000914
C        1.32506080       0.17192068      -0.26811385
C        2.62465439       0.20309142      -0.18039117
H       -2.22895664      -1.09415891       0.62807118
H       -1.86832166       0.79382158      -0.61958109
H       -0.88984722      -0.22815681      -1.69581804
H        0.75822406       1.08131407      -0.85150054
H        0.50254889       0.45129158       1.99303215
H        3.10695015      -0.67692779       0.25229762
12
Frame=2 idx=000199 GeodesicLength=0.09556149579314148 rxn_smarts="[O:1]([C:2]([C@@:3]([O:4][H:11])([C:5]#[C:6][H:12])[H:10])([H:8])[H:9])[H:7]>>[O:1]([C:2](/[C:3]([O:4][H:11])=[C:5](/[C:6][H:12])[H:10])([H:8])[H:9])[H:7]"
O       -1.84508643      -1.24665009      -0.23915392
C       -1.20403872      -0.07108590      -0.66633957
C        0.01906567       0.19912151       0.17232319
O       -0.29073468       0.42612658       1.45623168
C        1.32281988       0.17126931      -0.28823872
C        2.61989111       0.18367426      -0.17929141
H       -2.20275731      -1.10154712       0.63967661
H       -1.87660292       0.79468492      -0.61778034
H       -0.90312931      -0.22223971      -1.70198149
H        0.74918330       1.10110655      -0.85752601
H        0.51942518       0.44130800       1.97927736
H        3.09196422      -0.67576831       0.30280263
12
Frame=3 idx=000199 GeodesicLength=0.14340874535721557 rxn_smarts="[O:1]([C:2]([C@@:3]([O:4][H:11])([C:5]#[C:6][H:12])[H:10])([H:8])[H:9])[H:7]>>[O:1]([C:2](/[C:3]([O:4][H:11])=[C:5](/[C:6][H:12])[H:10])([H:8])[H:9])[H:7]"
O       -1.83830633      -1.24683272      -0.23734751
C       -1.20826976      -0.06779009      -0.66929396
C        0.01738353       0.21859878       0.15947079
O       -0.28091269       0.41350399       1.45225580
C        1.32052025       0.17129137      -0.30723281
C        2.61455558       0.16293179      -0.17813686
H       -2.17619489      -1.10897051       0.65048106
H       -1.88442543       0.79510656      -0.61628152
H       -0.91533906      -0.21674163      -1.70762471
H        0.74019473       1.12130757      -0.86255327
H        0.53545722       0.43247786       1.96590713
H        3.07533684      -0.67488299       0.35035586
12
Frame=4 idx=000199 GeodesicLength=0.19130195462641972 rxn_smarts="[O:1]([C:2]([C@@:3]([O:4][H:11])([C:5]#[C:6][H:12])[H:10])([H:8])[H:9])[H:7]>>[O:1]([C:2](/[C:3]([O:4][H:11])=[C:5](/[C:6][H:12])[H:10])([H:8])[H:9])[H:7]"
O       -1.83081193      -1.24727061      -0.23559380
C       -1.21186816      -0.06472439      -0.67198005
C        0.01573055       0.23812606       0.14743442
O       -0.27137765       0.40162614       1.44808970
C        1.31816896       0.17197265      -0.32515544
C        2.60858597       0.14085680      -0.17692530
H       -2.14915662      -1.11655934       0.66054962
H       -1.89183243       0.79511296      -0.61501177
H       -0.92654822      -0.21156448      -1.71281697
H        0.73121304       1.14192410      -0.86661569
H        0.55065477       0.42491487       1.95292517
H        3.05724171      -0.67441476       0.39510009
12
Frame=5 idx=000199 GeodesicLength=0.23924767225333587 rxn_smarts="[O:1]([C:2]([C@@:3]([O:4][H:11])([C:5]#[C:6][H:12])[H:10])([H:8])[H:9])[H:7]>>[O:1]([C:2](/[C:3]([O:4][H:11])=[C:5](/[C:6][H:12])[H:10])([H:8])[H:9])[H:7]"
O       -1.82289638      -1.24789163      -0.23386881
C       -1.21491155      -0.06191554      -0.67444280
C        0.01413405       0.25743420       0.13616229
O       -0.26207417       0.39036608       1.44375708
C        1.31582376       0.17320753      -0.34209357
C        2.60200702       0.11763463      -0.17569682
H       -2.12197335      -1.12411720       0.66991829
H       -1.89875828       0.79480418      -0.61402115
H       -0.93686392      -0.20680075      -1.71761775
H        0.72216566       1.16290137      -0.86968378
H        0.56512941       0.41847289       1.94034049
H        3.03821776      -0.67409575       0.43724653
12
Frame=6 idx=000199 GeodesicLength=0.2871789329792753 rxn_smarts="[O:1]([C:2]([C@@:3]([O:4][H:11])([C:5]#[C:6][H:12])[H:10])([H:8])[H:9])[H:7]>>[O:1]([C:2](/[C:3]([O:4][H:11])=[C:5](/[C:6][H:12])[H:10])([H:8])[H:9])[H:7]"
O       -1.81480429      -1.24852254      -0.23213663
C       -1.21743076      -0.05937027      -0.67669616
C        0.01260842       0.27622255       0.12558691
O       -0.25295875       0.37957927       1.43924268
C        1.31348974       0.17479424      -0.35816850
C        2.59475474       0.09338418      -0.17462246
H       -2.09496481      -1.13131198       0.67861096
H       -1.90504670       0.79430470      -0.61329814
H       -0.94633565      -0.20255527      -1.72202909
H        0.71295965       1.18405149      -0.87171594
H        0.57893395       0.41275938       1.92809832
H        3.01879445      -0.67333575       0.47712804
12
Frame=7 idx=000199 GeodesicLength=0.33512355438321956 rxn_smarts="[O:1]([C:2]([C@@:3]([O:4][H:11])([C:5]#[C:6][H:12])[H:10])([H:8])[H:9])[H:7]>>[O:1]([C:2](/[C:3]([O:4][H:11])=[C:5](/[C:6][H:12])[H:10])([H:8])[H:9])[H:7]"
O       -1.80647848      -1.24921819      -0.23033587
C       -1.21945163      -0.05708875      -0.67878255
C        0.01114806       0.29462481       0.11565840
O       -0.24411353       0.36957861       1.43455104
C        1.31121831       0.17688068      -0.37336381
C        2.58681571       0.06822403      -0.17349009
H       -2.06799145      -1.13823677       0.68676249
H       -1.91080250       0.79357757      -0.61294097
H       -0.95496838      -0.19885817      -1.72609523
H        0.70358362       1.20546593      -0.87281033
H        0.59202208       0.40757182       1.91625817
H        2.99901818      -0.67252155       0.51458875
12
Frame=8 idx=000199 GeodesicLength=0.38306509532995675 rxn_smarts="[O:1]([C:2]([C@@:3]([O:4][H:11])([C:5]#[C:6][H:12])[H:10])([H:8])[H:9])[H:7]>>[O:1]([C:2](/[C:3]([O:4][H:11])=[C:5](/[C:6][H:12])[H:10])([H:8])[H:9])[H:7]"
O       -1.79810098      -1.24992227      -0.22846241
C       -1.22104005      -0.05506649      -0.68073665
C        0.00975665       0.31250235       0.10633167
O       -0.23553042       0.36022422       1.42973732
C        1.30905983       0.17937891      -0.38774643
C        2.57820987       0.04221073      -0.17236675
H       -2.04129098      -1.14478660       0.69440304
H       -1.91601941       0.79269421      -0.61296734
H       -0.96282791      -0.19572444      -1.72986776
H        0.69400686       1.22708093      -0.87297132
H        0.60447176       0.40281971       1.90481662
H        2.97930478      -0.67141127       0.54983001
12
Frame=9 idx=000199 GeodesicLength=0.43094351108231543 rxn_smarts="[O:1]([C:2]([C@@:3]([O:4][H:11])([C:5]#[C:6][H:12])[H:10])([H:8])[H:9])[H:7]>>[O:1]([C:2](/[C:3]([O:4][H:11])=[C:5](/[C:6][H:12])[H:10])([H:8])[H:9])[H:7]"
O       -1.78979589      -1.25053039      -0.22647335
C       -1.22219795      -0.05330743      -0.68257113
C        0.00843636       0.32972710       0.09756705
O       -0.22720479       0.35145975       1.42480570
C        1.30699701       0.18216751      -0.40135331
C        2.56884378       0.01540879      -0.17136414
H       -2.01510584      -1.15070394       0.70154933
H       -1.92057487       0.79174144      -0.61341506
H       -0.96990613      -0.19326402      -1.73332723
H        0.68416840       1.24877147      -0.87216513
H        0.61631510       0.39810136       1.89373454
H        2.96002483      -0.66957164       0.58301272
12
Frame=10 idx=000199 GeodesicLength=0.47879180092010554 rxn_smarts="[O:1]([C:2]([C@@:3]([O:4][H:11])([C:5]#[C:6][H:12])[H:10])([H:8])[H:9])[H:7]>>[O:1]([C:2](/[C:3]([O:4][H:11])=[C:5](/[C:6][H:12])[H:10])([H:8])[H:9])[H:7]"
O       -1.78156612      -1.25108228      -0.22439485
C       -1.22299609      -0.05177148      -0.68432143
C        0.00717591       0.34638432       0.08931328
O       -0.21917255       0.34331678       1.41981052
C        1.30508229       0.18526295      -0.41422285
C        2.55871991      -0.01224787      -0.17041034
H       -1.98934410      -1.15615867       0.70827235
H       -1.92461303       0.79071989      -0.61427187
H       -0.97628106      -0.19135869      -1.73655122
H        0.67409963       1.27056328      -0.87049385
H        0.62758843       0.39350909       1.88302843
H        2.94130678      -0.66713734       0.61424184
12
Frame=11 idx=000199 GeodesicLength=0.5266127736003754 rxn_smarts="[O:1]([C:2]([C@@:3]([O:4][H:11])([C:5]#[C:6][H:12])[H:10])([H:8])[H:9])[H:7]>>[O:1]([C:2](/[C:3]([O:4][H:11])=[C:5](/[C:6][H:12])[H:10])([H:8])[H:9])[H:7]"
O       -1.77345883      -1.25154800      -0.22226371
C       -1.22347552      -0.05041802      -0.68599987
C        0.00597455       0.36245998       0.08151637
O       -0.21140779       0.33569655       1.41476619
C        1.30331229       0.18856899      -0.42642828
C        2.54773222      -0.04097323      -0.16961931
H       -1.96403639      -1.16115445       0.71457133
H       -1.92814682       0.78968415      -0.61547319
H       -0.98202269      -0.18992951      -1.73956494
H        0.66381644       1.29240166      -0.86797301
H        0.63836088       0.38896466       1.87264934
H        2.92335165      -0.66375278       0.64381908
12
Frame=12 idx=000199 GeodesicLength=0.574447010575707 rxn_smarts="[O:1]([C:2]([C@@:3]([O:4][H:11])([C:5]#[C:6][H:12])[H:10])([H:8])[H:9])[H:7]>>[O:1]([C:2](/[C:3]([O:4][H:11])=[C:5](/[C:6][H:12])[H:10])([H:8])[H:9])[H:7]"
O       -1.76545756      -1.25190688      -0.22010874
C       -1.22367084      -0.04919841      -0.68762200
C        0.00481423       0.37800264       0.07414186
O       -0.20394119       0.32862449       1.40968794
C        1.30167833       0.19201433      -0.43796948
C        2.53574166      -0.07096495      -0.16894948
H       -1.93908735      -1.16575581       0.72046374
H       -1.93122914       0.78867132      -0.61700276
H       -0.98718179      -0.18888907      -1.74239149
H        0.65333034       1.31423477      -0.86465645
H        0.64863756       0.38440586       1.86257757
H        2.90636577      -0.65923830       0.67182929
12
Frame=13 idx=000199 GeodesicLength=0.6222784960856744 rxn_smarts="[O:1]([C:2]([C@@:3]([O:4][H:11])([C:5]#[C:6][H:12])[H:10])([H:8])[H:9])[H:7]>>[O:1]([C:2](/[C:3]([O:4][H:11])=[C:5](/[C:6][H:12])[H:10])([H:8])[H:9])[H:7]"
O       -1.75759049      -1.25212796      -0.21793878
C       -1.22361254      -0.04807943      -0.68920001
C        0.00368672       0.39305528       0.06716343
O       -0.19682956       0.32214138       1.40459622
C        1.30020187       0.19553897      -0.44883217
C        2.52261577      -0.10244634      -0.16837348
H       -1.91450030      -1.16996580       0.72596750
H       -1.93389702       0.78770451      -0.61886082
H       -0.99177484      -0.18819909      -1.74504207
H        0.64269481       1.33601033      -0.86057165
H        0.65839759       0.37965330       1.85280410
H        2.89060799      -0.65328515       0.69828773
12
Frame=14 idx=000199 GeodesicLength=0.6700589088045878 rxn_smarts="[O:1]([C:2]([C@@:3]([O:4][H:11])([C:5]#[C:6][H:12])[H:10])([H:8])[H:9])[H:7]>>[O:1]([C:2](/[C:3]([O:4][H:11])=[C:5](/[C:6][H:12])[H:10])([H:8])[H:9])[H:7]"
O       -1.74999864      -1.25215629      -0.21565959
C       -1.22329803      -0.04708809      -0.69077263
C        0.00258785       0.40758135       0.06059068
O       -0.19017104       0.31627329       1.39956548
C        1.29891111       0.19908922      -0.45894919
C        2.50829232      -0.13523275      -0.16777930
H       -1.89063247      -1.17352830       0.73116282
H       -1.93607348       0.78684606      -0.62123725
H       -0.99571650      -0.18804600      -1.74753619
H        0.63190047       1.35767316      -0.85573096
H        0.66758548       0.37423422       1.84342603
H        2.87661293      -0.64564586       0.72292010
12
Frame=15 idx=000199 GeodesicLength=0.7177750398629263 rxn_smarts="[O:1]([C:2]([C@@:3]([O:4][H:11])([C:5]#[C:6][H:12])[H:10])([H:8])[H:9])[H:7]>>[O:1]([C:2](/[C:3]([O:4][H:11])=[C:5](/[C:6][H:12])[H:10])([H:8])[H:9])[H:7]"
O       -1.74274948      -1.25193135      -0.21328627
C       -1.22276335      -0.04618898      -0.69235077
C        0.00150973       0.42158545       0.05439950
O       -0.18403351       0.31103011       1.39459885
C        1.29781028       0.20254339      -0.46829301
C        2.49260833      -0.16946662      -0.16705974
H       -1.86752777      -1.17641263       0.73605397
H       -1.93777555       0.78613165      -0.62414773
H       -0.99903207      -0.18839129      -1.74986762
H        0.62100360       1.37912647      -0.85014510
H        0.67616735       0.36794459       1.83442001
H        2.86478245      -0.63597079       0.74567791
12
Frame=16 idx=000199 GeodesicLength=0.765457027325751 rxn_smarts="[O:1]([C:2]([C@@:3]([O:4][H:11])([C:5]#[C:6][H:12])[H:10])([H:8])[H:9])[H:7]>>[O:1]([C:2](/[C:3]([O:4][H:11])=[C:5](/[C:6][H:12])[H:10])([H:8])[H:9])[H:7]"
O       -1.73603830      -1.25135727      -0.21087635
C       -1.22207469      -0.04530528      -0.69395964
C        0.00044704       0.43499617       0.04858658
O       -0.17851097       0.30633558       1.38974987
C        1.29688699       0.20558077      -0.47682413
C        2.47533730      -0.20557789      -0.16609978
H       -1.84533111      -1.17859489       0.74063436
H       -1.93898252       0.78572692      -0.62760072
H       -1.00178399      -0.18914345      -1.75207912
H        0.61014791       1.40017938      -0.84382991
H        0.68407047       0.36045783       1.82582130
H        2.85583188      -0.62329786       0.76647754
