15
Frame=0 idx=009336 GeodesicLength=0.0 rxn_smarts="[C:1]([n:2]1[c:3]([H:11])[c:4]([C:5]([H:12])([H:13])[H:14])[c:6]([H:15])[n:7]1)([H:8])([H:9])[H:10]>>[C:1](=[N+:2]1[C:3]([H:8])([H:11])[C:4]([C:5]([H:12])([H:13])[H:14])=[C:6]([H:15])[N-:7]1)([H:9])[H:10]"
C       -2.51625652      -0.37041623      -0.18507044
N       -1.32343677       0.14733673       0.34838627
C       -0.26717820      -0.67712040      -0.05769796
C        0.88820132       0.17843908       0.03803843
C        2.29852317      -0.15809272      -0.29687366
C        0.39648874       1.31258431       0.64231799
N       -0.95950071       1.30245112       0.80242565
H       -1.22504255      -1.23218071      -0.77903057
H       -2.63322472      -0.11386267      -1.23309525
H       -3.40833798      -0.20918506       0.41389293
H       -0.21438911      -1.61169502       0.50380535
H        2.97881271       0.62027393       0.04795754
H        2.43047301      -0.26657600      -1.37548346
H        2.60308930      -1.10240902       0.16149927
H        0.95177836       2.18045271       0.96892786
15
Frame=1 idx=009336 GeodesicLength=0.051520467904336884 rxn_smarts="[C:1]([n:2]1[c:3]([H:11])[c:4]([C:5]([H:12])([H:13])[H:14])[c:6]([H:15])[n:7]1)([H:8])([H:9])[H:10]>>[C:1](=[N+:2]1[C:3]([H:8])([H:11])[C:4]([C:5]([H:12])([H:13])[H:14])=[C:6]([H:15])[N-:7]1)([H:9])[H:10]"
C       -2.51505320      -0.36577522      -0.18455874
N       -1.32278191       0.14229410       0.35372645
C       -0.26432449      -0.67511139      -0.06673516
C        0.89045625       0.17976087       0.03685896
C        2.30243621      -0.16038155      -0.28816799
C        0.39660162       1.31421567       0.63834621
N       -0.95965201       1.30616789       0.79029640
H       -1.23555767      -1.21335056      -0.81382082
H       -2.66180029      -0.08871153      -1.22298645
H       -3.39705202      -0.24124606       0.43729149
H       -0.21290189      -1.61851413       0.47964301
H        2.98005959       0.63383771       0.02441339
H        2.43357033      -0.30901143      -1.36213898
H        2.61522899      -1.08412668       0.20535100
H        0.95077049       2.17995231       0.97248124
15
Frame=2 idx=009336 GeodesicLength=0.10298607823094136 rxn_smarts="[C:1]([n:2]1[c:3]([H:11])[c:4]([C:5]([H:12])([H:13])[H:14])[c:6]([H:15])[n:7]1)([H:8])([H:9])[H:10]>>[C:1](=[N+:2]1[C:3]([H:8])([H:11])[C:4]([C:5]([H:12])([H:13])[H:14])=[C:6]([H:15])[N-:7]1)([H:9])[H:10]"
C       -2.51387201      -0.36113396      -0.18379701
N       -1.32194822       0.13775852       0.35826052
C       -0.26144085      -0.67293224      -0.07582580
C        0.89267185       0.18137847       0.03487008
C        2.30629026      -0.16266556      -0.27965343
C        0.39668102       1.31655298       0.63279244
N       -0.95974099       1.31023446       0.77712900
H       -1.24662254      -1.19380880      -0.84796511
H       -2.69121351      -0.06514083      -1.21158951
H       -3.38466224      -0.27375673       0.45947879
H       -0.21127377      -1.62446096       0.45609006
H        2.98118005       0.64594152       0.00041679
H        2.43710738      -0.35136665      -1.34740106
H        2.62661679      -1.06458725       0.24830438
H        0.95022678       2.17798703       0.97888986
15
Frame=3 idx=009336 GeodesicLength=0.1544449450671267 rxn_smarts="[C:1]([n:2]1[c:3]([H:11])[c:4]([C:5]([H:12])([H:13])[H:14])[c:6]([H:15])[n:7]1)([H:8])([H:9])[H:10]>>[C:1](=[N+:2]1[C:3]([H:8])([H:11])[C:4]([C:5]([H:12])([H:13])[H:14])=[C:6]([H:15])[N-:7]1)([H:9])[H:10]"
C       -2.51267801      -0.35631840      -0.18267758
N       -1.32085519       0.13291504       0.36293475
C       -0.25851993      -0.67072829      -0.08547343
C        0.89489961       0.18294866       0.03263447
C        2.31020703      -0.16517750      -0.27054371
C        0.39678326       1.31868473       0.62729883
N       -0.95958579       1.31311731       0.76584415
H       -1.25833737      -1.17238016      -0.88273515
H       -2.72139253      -0.04108348      -1.19820479
H       -3.37115887      -0.30752106       0.48061143
H       -0.20950456      -1.63052313       0.43116993
H        2.98224841       0.65636049      -0.02300806
H        2.44143015      -0.39366731      -1.33047877
H        2.63729941      -1.04414913       0.29100333
H        0.94916438       2.17752224       0.98162461
15
Frame=4 idx=009336 GeodesicLength=0.2059083775696724 rxn_smarts="[C:1]([n:2]1[c:3]([H:11])[c:4]([C:5]([H:12])([H:13])[H:14])[c:6]([H:15])[n:7]1)([H:8])([H:9])[H:10]>>[C:1](=[N+:2]1[C:3]([H:8])([H:11])[C:4]([C:5]([H:12])([H:13])[H:14])=[C:6]([H:15])[N-:7]1)([H:9])[H:10]"
C       -2.51150490      -0.35147817      -0.18148600
N       -1.31962248       0.12853290       0.36692176
C       -0.25557300      -0.66849429      -0.09487339
C        0.89713670       0.18469017       0.02992884
C        2.31404366      -0.16764591      -0.26172792
C        0.39693951       1.32136865       0.62065573
N       -0.95935713       1.31632926       0.75373950
H       -1.27060484      -1.15045406      -0.91660046
H       -2.75203406      -0.01873661      -1.18376559
H       -3.35673180      -0.34134743       0.50006272
H       -0.20771048      -1.63583043       0.40732517
H        2.98335797       0.66525708      -0.04662561
H        2.44585399      -0.43525932      -1.31245477
H        2.64730678      -1.02275792       0.33221010
H        0.94850009       2.17582607       0.98668990
15
Frame=5 idx=009336 GeodesicLength=0.2572823280061797 rxn_smarts="[C:1]([n:2]1[c:3]([H:11])[c:4]([C:5]([H:12])([H:13])[H:14])[c:6]([H:15])[n:7]1)([H:8])([H:9])[H:10]>>[C:1](=[N+:2]1[C:3]([H:8])([H:11])[C:4]([C:5]([H:12])([H:13])[H:14])=[C:6]([H:15])[N-:7]1)([H:9])[H:10]"
C       -2.51023635      -0.34645400      -0.17999321
N       -1.31812259       0.12380388       0.37106503
C       -0.25256118      -0.66624251      -0.10477977
C        0.89935331       0.18639333       0.02695235
C        2.31785052      -0.17034903      -0.25237198
C        0.39705860       1.32388435       0.61397891
N       -0.95893653       1.31839269       0.74360445
H       -1.28348938      -1.12660563      -0.95090113
H       -2.78318189       0.00402886      -1.16723028
H       -3.34115654      -0.37637613       0.51811902
H       -0.20572508      -1.64119837       0.38220169
H        2.98440122       0.67251046      -0.06979220
H        2.45083539      -0.47684627      -1.29229556
H        2.65653846      -1.00049300       0.37314761
H        0.94737206       2.17555136       0.98829506
15
Frame=6 idx=009336 GeodesicLength=0.3086969759724667 rxn_smarts="[C:1]([n:2]1[c:3]([H:11])[c:4]([C:5]([H:12])([H:13])[H:14])[c:6]([H:15])[n:7]1)([H:8])([H:9])[H:10]>>[C:1](=[N+:2]1[C:3]([H:8])([H:11])[C:4]([C:5]([H:12])([H:13])[H:14])=[C:6]([H:15])[N-:7]1)([H:9])[H:10]"
C       -2.50897925      -0.34135647      -0.17838432
N       -1.31645989       0.11916987       0.37490523
C       -0.24951875      -0.66400727      -0.11467611
C        0.90160246       0.18812931       0.02373939
C        2.32161341      -0.17311290      -0.24297812
C        0.39724895       1.32656547       0.60684762
N       -0.95838954       1.32021107       0.73382975
H       -1.29699548      -1.10165410      -0.98479860
H       -2.81471910       0.02584759      -1.14925390
H       -3.32468091      -0.41182184       0.53442782
H       -0.20371055      -1.64620733       0.35728424
H        2.98555603       0.67822366      -0.09278341
H        2.45593874      -0.51782575      -1.27073590
H        2.66516087      -0.97744012       0.41296395
H        0.94633299       2.17527882       0.98961237
15
Frame=7 idx=009336 GeodesicLength=0.3601175316740584 rxn_smarts="[C:1]([n:2]1[c:3]([H:11])[c:4]([C:5]([H:12])([H:13])[H:14])[c:6]([H:15])[n:7]1)([H:8])([H:9])[H:10]>>[C:1](=[N+:2]1[C:3]([H:8])([H:11])[C:4]([C:5]([H:12])([H:13])[H:14])=[C:6]([H:15])[N-:7]1)([H:9])[H:10]"
C       -2.50769038      -0.33616147      -0.17662379
N       -1.31460785       0.11450239       0.37856215
C       -0.24643065      -0.66177536      -0.12470138
C        0.90386503       0.18988727       0.02025964
C        2.32531296      -0.17597924      -0.23342645
C        0.39747076       1.32933540       0.59933054
N       -0.95771164       1.32158962       0.72479683
H       -1.31113437      -1.07532959      -1.01846089
H       -2.84660275       0.04701950      -1.12960972
H       -3.30724475      -0.44786247       0.54895685
H       -0.20161148      -1.65095487       0.33219609
H        2.98677449       0.68243195      -0.11565873
H        2.46117375      -0.55845993      -1.24757409
H        2.67316007      -0.95352945       0.45195595
H        0.94527682       2.17528626       0.98999701
15
Frame=8 idx=009336 GeodesicLength=0.4115597020644567 rxn_smarts="[C:1]([n:2]1[c:3]([H:11])[c:4]([C:5]([H:12])([H:13])[H:14])[c:6]([H:15])[n:7]1)([H:8])([H:9])[H:10]>>[C:1](=[N+:2]1[C:3]([H:8])([H:11])[C:4]([C:5]([H:12])([H:13])[H:14])=[C:6]([H:15])[N-:7]1)([H:9])[H:10]"
C       -2.50636873      -0.33086179      -0.17475436
N       -1.31257978       0.10977473       0.38206284
C       -0.24329711      -0.65957544      -0.13479517
C        0.90614381       0.19165040       0.01655835
C        2.32893591      -0.17893693      -0.22374584
C        0.39773312       1.33215699       0.59151402
N       -0.95690349       1.32253295       0.71653722
H       -1.32591207      -1.04763919      -1.05180482
H       -2.87871331       0.06752408      -1.10831784
H       -3.28891324      -0.48444023       0.56153168
H       -0.19944010      -1.65546071       0.30703711
H        2.98806895       0.68516818      -0.13847784
H        2.46643053      -0.59871519      -1.22285486
H        2.68058739      -0.92876915       0.49007310
H        0.94422813       2.17559129       0.98943640
15
Frame=9 idx=009336 GeodesicLength=0.4629867502727098 rxn_smarts="[C:1]([n:2]1[c:3]([H:11])[c:4]([C:5]([H:12])([H:13])[H:14])[c:6]([H:15])[n:7]1)([H:8])([H:9])[H:10]>>[C:1](=[N+:2]1[C:3]([H:8])([H:11])[C:4]([C:5]([H:12])([H:13])[H:14])=[C:6]([H:15])[N-:7]1)([H:9])[H:10]"
C       -2.50500389      -0.32547048      -0.17283941
N       -1.31040878       0.10510604       0.38530566
C       -0.24011242      -0.65744867      -0.14475538
C        0.90844405       0.19338337       0.01275565
C        2.33245398      -0.18194790      -0.21407978
C        0.39804995       1.33501377       0.58348293
N       -0.95599968       1.32328173       0.70858285
H       -1.34126895      -1.01882006      -1.08456524
H       -2.91089440       0.08693824      -1.08559719
H       -3.26977446      -0.52115913       0.57201559
H       -0.19723728      -1.65965721       0.28226941
H        2.98942792       0.68645139      -0.16118826
H        2.47152064      -0.63825749      -1.19686336
H        2.68755273      -0.90332051       0.52691818
H        0.94325058       2.17590690       0.98855832
15
Frame=10 idx=009336 GeodesicLength=0.5143461771264689 rxn_smarts="[C:1]([n:2]1[c:3]([H:11])[c:4]([C:5]([H:12])([H:13])[H:14])[c:6]([H:15])[n:7]1)([H:8])([H:9])[H:10]>>[C:1](=[N+:2]1[C:3]([H:8])([H:11])[C:4]([C:5]([H:12])([H:13])[H:14])=[C:6]([H:15])[N-:7]1)([H:9])[H:10]"
C       -2.50353551      -0.31992238      -0.17100008
N       -1.30811702       0.10034970       0.38847529
C       -0.23685964      -0.65551173      -0.15437255
C        0.91074456       0.19500239       0.00905460
C        2.33581009      -0.18500800      -0.20446406
C        0.39840470       1.33772077       0.57563971
N       -0.95499273       1.32361183       0.70144291
H       -1.35709623      -0.98894244      -1.11661659
H       -2.94275220       0.10556875      -1.06155578
H       -3.25000190      -0.55796586       0.58001459
H       -0.19500342      -1.66367170       0.25810567
H        2.99080403       0.68631458      -0.18367254
H        2.47626560      -0.67684035      -1.16980109
H        2.69409034      -0.87741200       0.56225245
H        0.94223932       2.17670643       0.98649747
15
Frame=11 idx=009336 GeodesicLength=0.5657080346814283 rxn_smarts="[C:1]([n:2]1[c:3]([H:11])[c:4]([C:5]([H:12])([H:13])[H:14])[c:6]([H:15])[n:7]1)([H:8])([H:9])[H:10]>>[C:1](=[N+:2]1[C:3]([H:8])([H:11])[C:4]([C:5]([H:12])([H:13])[H:14])=[C:6]([H:15])[N-:7]1)([H:9])[H:10]"
C       -2.50203574      -0.31424373      -0.16928439
N       -1.30576286       0.09559231       0.39149240
C       -0.23355496      -0.65379609      -0.16352773
C        0.91306785       0.19651114       0.00548308
C        2.33904911      -0.18807078      -0.19500349
C        0.39883632       1.34031866       0.56795382
N       -0.95389910       1.32371356       0.69475410
H       -1.37340522      -0.95817043      -1.14785051
H       -2.97429269       0.12313852      -1.03640325
H       -3.22976824      -0.59461060       0.58550352
H       -0.19278624      -1.66749203       0.23487953
H        2.99223104       0.68488483      -0.20608529
H        2.48060639      -0.71440919      -1.14185680
H        2.70039678      -0.85103822       0.59599038
H        0.94131757       2.17767205       0.98395461
15
Frame=12 idx=009336 GeodesicLength=0.6169628798952046 rxn_smarts="[C:1]([n:2]1[c:3]([H:11])[c:4]([C:5]([H:12])([H:13])[H:14])[c:6]([H:15])[n:7]1)([H:8])([H:9])[H:10]>>[C:1](=[N+:2]1[C:3]([H:8])([H:11])[C:4]([C:5]([H:12])([H:13])[H:14])=[C:6]([H:15])[N-:7]1)([H:9])[H:10]"
C       -2.50045172      -0.30841956      -0.16774285
N       -1.30337381       0.09098522       0.39424499
C       -0.23017748      -0.65233278      -0.17203601
C        0.91539015       0.19787504       0.00215000
C        2.34211993      -0.19111882      -0.18582838
C        0.39932014       1.34277725       0.56051822
N       -0.95277050       1.32381749       0.68803932
H       -1.39006492      -0.92675544      -1.17806437
H       -3.00534595       0.13930776      -1.01038245
H       -3.20908729      -0.63070843       0.58848952
H       -0.19058862      -1.67105906       0.21302217
H        2.99360627       0.68220955      -0.22832793
H        2.48439878      -0.75068325      -1.11335836
H        2.70656886      -0.82442436       0.62778125
H        0.94045615       2.17852939       0.98149489
15
Frame=13 idx=009336 GeodesicLength=0.6681308245820422 rxn_smarts="[C:1]([n:2]1[c:3]([H:11])[c:4]([C:5]([H:12])([H:13])[H:14])[c:6]([H:15])[n:7]1)([H:8])([H:9])[H:10]>>[C:1](=[N+:2]1[C:3]([H:8])([H:11])[C:4]([C:5]([H:12])([H:13])[H:14])=[C:6]([H:15])[N-:7]1)([H:9])[H:10]"
C       -2.49880516      -0.30242214      -0.16655323
N       -1.30103904       0.08657178       0.39676016
C       -0.22673662      -0.65126199      -0.17953949
C        0.91770924       0.19903110      -0.00074270
C        2.34502262      -0.19408332      -0.17713213
C        0.39989398       1.34502355       0.55359064
N       -0.95162108       1.32400824       0.68117561
H       -1.40693850      -0.89507795      -1.20708237
H       -3.03564081       0.15400857      -0.98395924
H       -3.18827759      -0.66588312       0.58877242
H       -0.18848249      -1.67444188       0.19321781
H        2.99486159       0.67849664      -0.25055284
H        2.48748458      -0.78540983      -1.08475809
H        2.71286217      -0.79770881       0.65730164
H        0.93970710       2.17914915       0.97950181
15
Frame=14 idx=009336 GeodesicLength=0.7192692382173298 rxn_smarts="[C:1]([n:2]1[c:3]([H:11])[c:4]([C:5]([H:12])([H:13])[H:14])[c:6]([H:15])[n:7]1)([H:8])([H:9])[H:10]>>[C:1](=[N+:2]1[C:3]([H:8])([H:11])[C:4]([C:5]([H:12])([H:13])[H:14])=[C:6]([H:15])[N-:7]1)([H:9])[H:10]"
C       -2.49714833      -0.29630138      -0.16553515
N       -1.29871903       0.08219020       0.39912106
C       -0.22323542      -0.65048943      -0.18643939
C        0.92003316       0.20003988      -0.00342272
C        2.34782525      -0.19702655      -0.16866454
C        0.40052332       1.34710612       0.54692953
N       -0.95042608       1.32405713       0.67457517
H       -1.42420396      -0.86263599      -1.23526169
H       -3.06542759       0.16754291      -0.95668329
H       -3.16723826      -0.70053766       0.58659766
H       -0.18638550      -1.67773726       0.17466472
H        2.99607245       0.67371239      -0.27270593
H        2.49013782      -0.81904703      -1.05560765
H        2.71917690      -0.77071336       0.68517510
H        0.93901527       2.17984003       0.97725713
15
Frame=15 idx=009336 GeodesicLength=0.770396856917298 rxn_smarts="[C:1]([n:2]1[c:3]([H:11])[c:4]([C:5]([H:12])([H:13])[H:14])[c:6]([H:15])[n:7]1)([H:8])([H:9])[H:10]>>[C:1](=[N+:2]1[C:3]([H:8])([H:11])[C:4]([C:5]([H:12])([H:13])[H:14])=[C:6]([H:15])[N-:7]1)([H:9])[H:10]"
C       -2.49547401      -0.29011087      -0.16448591
N       -1.29633535       0.07765280       0.40140784
C       -0.21966578      -0.64989805      -0.19319537
C        0.92235721       0.20094924      -0.00611749
C        2.35054722      -0.20003211      -0.16014254
C        0.40114582       1.34906008       0.54028025
N       -0.94915540       1.32369531       0.66872119
H       -1.44203747      -0.82879394      -1.26292864
H       -3.09490007       0.18017686      -0.92796539
H       -3.14576127      -0.73509482       0.58211935
H       -0.18419970      -1.68100462       0.15641191
H        2.99725878       0.66773331      -0.29478228
H        2.49258387      -0.85212378      -1.02530801
H        2.72533824      -0.74315087       0.71204372
H        0.93829791       2.18094145       0.97394138
15
Frame=16 idx=009336 GeodesicLength=0.8214599063463703 rxn_smarts="[C:1]([n:2]1[c:3]([H:11])[c:4]([C:5]([H:12])([H:13])[H:14])[c:6]([H:15])[n:7]1)([H:8])([H:9])[H:10]>>[C:1](=[N+:2]1[C:3]([H:8])([H:11])[C:4]([C:5]([H:12])([H:13])[H:14])=[C:6]([H:15])[N-:7]1)([H:9])[H:10]"
C       -2.49378987      -0.28381384      -0.16371708
N       -1.29403705       0.07329377       0.40343980
C       -0.21603349      -0.64969119      -0.19907797
C        0.92467212       0.20167105      -0.00847350
C        2.35315423      -0.20296168      -0.15202993
C        0.40183721       1.35082537       0.53400882
N       -0.94788001       1.32343959       0.66260932
H       -1.46015285      -0.79450666      -1.28957800
H       -3.12364343       0.19127394      -0.89883733
H       -3.12424370      -0.76859516       0.57523023
H       -0.18206401      -1.68418919       0.14003299
H        2.99828546       0.66085030      -0.31685107
H        2.49448387      -0.88385936      -0.99487842
H        2.73174272      -0.71546832       0.73693550
H        0.93766880       2.18173140       0.97118662
