14
Frame=0 idx=000567 GeodesicLength=0.0 rxn_smarts="[C:1]1([H:7])([H:8])[C@@:2]2([H:9])[C:3]([H:10])([H:11])[C:4]([H:12])([H:13])[O:5][C@@:6]12[H:14]>>[C:1]([C@@:6]1([H:14])[C:2]([H:7])([H:9])[C:3]([H:10])([H:11])[C:4]([H:12])([H:13])[O:5]1)[H:8]"
C        1.79156640      -0.13085467      -0.77300583
C        0.59165083       0.36154700       0.58013751
C       -0.77504172       0.91375971       0.18151989
C       -1.48521399      -0.31632071      -0.38251918
O       -0.46410241      -1.06562656      -1.00977411
C        0.70812670      -0.93676030      -0.24285982
H        1.37710765       1.06348770       0.09073681
H        2.67501451      -0.34402653      -0.15031349
H        0.82566922       0.23565399       1.63150524
H       -0.66371413       1.67073965      -0.59501611
H       -1.28987045       1.35794479       1.03363951
H       -2.24167816      -0.07953405      -1.13043739
H       -1.95841578      -0.89781549       0.42144221
H        0.90890138      -1.83219450       0.34494480
14
Frame=1 idx=000567 GeodesicLength=0.06074150839257454 rxn_smarts="[C:1]1([H:7])([H:8])[C@@:2]2([H:9])[C:3]([H:10])([H:11])[C:4]([H:12])([H:13])[O:5][C@@:6]12[H:14]>>[C:1]([C@@:6]1([H:14])[C:2]([H:7])([H:9])[C:3]([H:10])([H:11])[C:4]([H:12])([H:13])[O:5]1)[H:8]"
C        1.79113811      -0.13174592      -0.76239986
C        0.59346049       0.36253707       0.57756902
C       -0.77598819       0.91205239       0.18521593
C       -1.48504690      -0.31596503      -0.38434712
O       -0.46280988      -1.06409018      -1.01185732
C        0.70593969      -0.94001289      -0.23958662
H        1.38218179       1.07308546       0.06746939
H        2.67767324      -0.34755064      -0.14617977
H        0.82879421       0.24014298       1.62917424
H       -0.66834951       1.67372211      -0.58733367
H       -1.29086107       1.35024340       1.04043263
H       -2.23985735      -0.07703460      -1.13328507
H       -1.96042549      -0.89963764       0.41668712
H        0.90415086      -1.83574650       0.34844109
14
Frame=2 idx=000567 GeodesicLength=0.12148498444246508 rxn_smarts="[C:1]1([H:7])([H:8])[C@@:2]2([H:9])[C:3]([H:10])([H:11])[C:4]([H:12])([H:13])[O:5][C@@:6]12[H:14]>>[C:1]([C@@:6]1([H:14])[C:2]([H:7])([H:9])[C:3]([H:10])([H:11])[C:4]([H:12])([H:13])[O:5]1)[H:8]"
C        1.79067929      -0.13262661      -0.75173143
C        0.59522218       0.36344108       0.57516083
C       -0.77688747       0.91032924       0.18897700
C       -1.48484918      -0.31556097      -0.38617996
O       -0.46147726      -1.06257626      -1.01384859
C        0.70376351      -0.94324940      -0.23625207
H        1.38708828       1.08248059       0.04350884
H        2.68029909      -0.35079841      -0.14197944
H        0.83183303       0.24449614       1.62699016
H       -0.67288270       1.67668914      -0.57951008
H       -1.29181745       1.34250024       1.04724322
H       -2.23792374      -0.07442942      -1.13618950
H       -1.96249043      -0.90138876       0.41186992
H        0.89944286      -1.83930661       0.35194112
14
Frame=3 idx=000567 GeodesicLength=0.1822340855018582 rxn_smarts="[C:1]1([H:7])([H:8])[C@@:2]2([H:9])[C:3]([H:10])([H:11])[C:4]([H:12])([H:13])[O:5][C@@:6]12[H:14]>>[C:1]([C@@:6]1([H:14])[C:2]([H:7])([H:9])[C:3]([H:10])([H:11])[C:4]([H:12])([H:13])[O:5]1)[H:8]"
C        1.79018587      -0.13346896      -0.74099100
C        0.59692893       0.36425204       0.57293065
C       -0.77773766       0.90859435       0.19279644
C       -1.48462048      -0.31510725      -0.38801112
O       -0.46010582      -1.06108024      -1.01574618
C        0.70160195      -0.94646390      -0.23286292
H        1.39182573       1.09163649       0.01884693
H        2.68289435      -0.35375979      -0.13771590
H        0.83476414       0.24868955       1.62497234
H       -0.67729845       1.67963334      -0.57155966
H       -1.29274358       1.33473703       1.05405055
H       -2.23588451      -0.07172338      -1.13913666
H       -1.96460186      -0.90306375       0.40700241
H        0.89479138      -1.84287552       0.35542413
14
Frame=4 idx=000567 GeodesicLength=0.24298759787296922 rxn_smarts="[C:1]1([H:7])([H:8])[C@@:2]2([H:9])[C:3]([H:10])([H:11])[C:4]([H:12])([H:13])[O:5][C@@:6]12[H:14]>>[C:1]([C@@:6]1([H:14])[C:2]([H:7])([H:9])[C:3]([H:10])([H:11])[C:4]([H:12])([H:13])[O:5]1)[H:8]"
C        1.78965375      -0.13424310      -0.73017158
C        0.59857315       0.36496659       0.57090033
C       -0.77853723       0.90685440       0.19666843
C       -1.48436069      -0.31460419      -0.38983533
O       -0.45869659      -1.05959819      -1.01755142
C        0.69945861      -0.94965152      -0.22942693
H        1.39639503       1.10051051      -0.00652380
H        2.68546108      -0.35642514      -0.13339754
H        0.83756782       0.25270503       1.62314887
H       -0.68158055       1.68255239      -0.56349814
H       -1.29364517       1.32697787       1.06083673
H       -2.23374719      -0.06892362      -1.14211603
H       -1.96675138      -0.90466214       0.40209662
H        0.89020936      -1.84645889       0.35886978
14
Frame=5 idx=000567 GeodesicLength=0.3037647084187575 rxn_smarts="[C:1]1([H:7])([H:8])[C@@:2]2([H:9])[C:3]([H:10])([H:11])[C:4]([H:12])([H:13])[O:5][C@@:6]12[H:14]>>[C:1]([C@@:6]1([H:14])[C:2]([H:7])([H:9])[C:3]([H:10])([H:11])[C:4]([H:12])([H:13])[O:5]1)[H:8]"
C        1.78908064      -0.13491443      -0.71928060
C        0.60013378       0.36559402       0.56910153
C       -0.77929354       0.90512858       0.20059296
C       -1.48406858      -0.31405418      -0.39165175
O       -0.45724559      -1.05813341      -1.01927687
C        0.69734233      -0.95281835      -0.22595402
H        1.40081555       1.10904502      -0.03261248
H        2.68800735      -0.35879783      -0.12905054
H        0.84021540       0.25654484       1.62156809
H       -0.68572528       1.68546754      -0.55533926
H       -1.29453911       1.31925980       1.06759904
H       -2.23151708      -0.06603723      -1.14512998
H       -1.96892656      -0.90619515       0.39716658
H        0.88572069      -1.85008922       0.36226731
14
Frame=6 idx=000567 GeodesicLength=0.36437040770558227 rxn_smarts="[C:1]1([H:7])([H:8])[C@@:2]2([H:9])[C:3]([H:10])([H:11])[C:4]([H:12])([H:13])[O:5][C@@:6]12[H:14]>>[C:1]([C@@:6]1([H:14])[C:2]([H:7])([H:9])[C:3]([H:10])([H:11])[C:4]([H:12])([H:13])[O:5]1)[H:8]"
C        1.78845907      -0.13550763      -0.70827307
C        0.60166538       0.36607335       0.56746992
C       -0.77996451       0.90338769       0.20453541
C       -1.48374029      -0.31344685      -0.39342600
O       -0.45577269      -1.05667804      -1.02088438
C        0.69524613      -0.95592912      -0.22244457
H        1.40500127       1.11733418      -0.05935949
H        2.69050990      -0.36080900      -0.12459532
H        0.84264493       0.26002305       1.62011704
H       -0.68968132       1.68829272      -0.54712565
H       -1.29536957       1.31159384       1.07426797
H       -2.22920809      -0.06306787      -1.14809895
H       -1.97111081      -0.90760372       0.39224867
H        0.88132060      -1.85366260       0.36556843
14
Frame=7 idx=000567 GeodesicLength=0.42492972940544294 rxn_smarts="[C:1]1([H:7])([H:8])[C@@:2]2([H:9])[C:3]([H:10])([H:11])[C:4]([H:12])([H:13])[O:5][C@@:6]12[H:14]>>[C:1]([C@@:6]1([H:14])[C:2]([H:7])([H:9])[C:3]([H:10])([H:11])[C:4]([H:12])([H:13])[O:5]1)[H:8]"
C        1.78779054      -0.13596712      -0.69718732
C        0.60311105       0.36646699       0.56609686
C       -0.78058807       0.90166865       0.20852811
C       -1.48337615      -0.31278797      -0.39518700
O       -0.45425602      -1.05523254      -1.02240821
C        0.69318461      -0.95901017      -0.21890314
H        1.40901650       1.12520542      -0.08686314
H        2.69299302      -0.36250067      -0.12011949
H        0.84488651       0.26329179       1.61894798
H       -0.69347643       1.69111568      -0.53882287
H       -1.29620121       1.30398917       1.08089759
H       -2.22680545      -0.06001307      -1.15109462
H       -1.97331297      -0.90894161       0.38731369
H        0.87703409      -1.85728454       0.36880157
14
Frame=8 idx=000567 GeodesicLength=0.4855276270286796 rxn_smarts="[C:1]1([H:7])([H:8])[C@@:2]2([H:9])[C:3]([H:10])([H:11])[C:4]([H:12])([H:13])[O:5][C@@:6]12[H:14]>>[C:1]([C@@:6]1([H:14])[C:2]([H:7])([H:9])[C:3]([H:10])([H:11])[C:4]([H:12])([H:13])[O:5]1)[H:8]"
C        1.78707607      -0.13628487      -0.68598392
C        0.60448199       0.36675334       0.56497712
C       -0.78116008       0.89996051       0.21257667
C       -1.48297399      -0.31207188      -0.39693265
O       -0.45269681      -1.05378984      -1.02384350
C        0.69115545      -0.96205118      -0.21532141
H        1.41283524       1.13266181      -0.11520081
H        2.69545530      -0.36386521      -0.11558341
H        0.84694692       0.26632434       1.61803463
H       -0.69710161       1.69392210      -0.53041631
H       -1.29703102       1.29642967       1.08749406
H       -2.22430299      -0.05686221      -1.15410938
H       -1.97553635      -0.91019996       0.38235153
H        0.87285188      -1.86092661       0.37195738
14
Frame=9 idx=000567 GeodesicLength=0.546142530330979 rxn_smarts="[C:1]1([H:7])([H:8])[C@@:2]2([H:9])[C:3]([H:10])([H:11])[C:4]([H:12])([H:13])[O:5][C@@:6]12[H:14]>>[C:1]([C@@:6]1([H:14])[C:2]([H:7])([H:9])[C:3]([H:10])([H:11])[C:4]([H:12])([H:13])[O:5]1)[H:8]"
C        1.78631138      -0.13644729      -0.67465500
C        0.60578075       0.36694140       0.56413078
C       -0.78168671       0.89825948       0.21668674
C       -1.48252772      -0.31128854      -0.39866278
O       -0.45108217      -1.05233365      -1.02518011
C        0.68916465      -0.96504232      -0.21169433
H        1.41644089       1.13962417      -0.14443267
H        2.69789311      -0.36489449      -0.11099273
H        0.84882811       0.26912613       1.61739730
H       -0.70055498       1.69671090      -0.52188677
H       -1.29788183       1.28889449       1.09405159
H       -2.22168562      -0.05360125      -1.15714283
H       -1.97777997      -0.91136940       0.37734651
H        0.86878012      -1.86457964       0.37503431
14
Frame=10 idx=000567 GeodesicLength=0.6067211331294576 rxn_smarts="[C:1]1([H:7])([H:8])[C@@:2]2([H:9])[C:3]([H:10])([H:11])[C:4]([H:12])([H:13])[O:5][C@@:6]12[H:14]>>[C:1]([C@@:6]1([H:14])[C:2]([H:7])([H:9])[C:3]([H:10])([H:11])[C:4]([H:12])([H:13])[O:5]1)[H:8]"
C        1.78549006      -0.13644084      -0.66319821
C        0.60699992       0.36701155       0.56355234
C       -0.78215552       0.89657845       0.22084988
C       -1.48203735      -0.31044237      -0.40037028
O       -0.44942344      -1.05088270      -1.02642051
C        0.68721651      -0.96798547      -0.20802915
H        1.41982419       1.14609761      -0.17452868
H        2.70030955      -0.36555343      -0.10634536
H        0.85048086       0.27163092       1.61702867
H       -0.70381389       1.69948399      -0.51326265
H       -1.29873436       1.28143084       1.10056359
H       -2.21896091      -0.05023688      -1.16018323
H       -1.98003513      -0.91244780       0.37232487
H        0.86483950      -1.86824387       0.37801871
14
Frame=11 idx=000567 GeodesicLength=0.6672885105613201 rxn_smarts="[C:1]1([H:7])([H:8])[C@@:2]2([H:9])[C:3]([H:10])([H:11])[C:4]([H:12])([H:13])[O:5][C@@:6]12[H:14]>>[C:1]([C@@:6]1([H:14])[C:2]([H:7])([H:9])[C:3]([H:10])([H:11])[C:4]([H:12])([H:13])[O:5]1)[H:8]"
C        1.78460808      -0.13623176      -0.65160611
C        0.60813800       0.36697530       0.56328018
C       -0.78257414       0.89491731       0.22507449
C       -1.48150177      -0.30952698      -0.40205947
O       -0.44771333      -1.04942464      -1.02756005
C        0.68531628      -0.97087322      -0.20432309
H        1.42297541       1.15198667      -0.20556051
H        2.70270574      -0.36583438      -0.10165710
H        0.85191754       0.27385694       1.61697762
H       -0.70687129       1.70224586      -0.50453023
H       -1.29961255       1.27402326       1.10703206
H       -2.21611718      -0.04675723      -1.16324462
H       -1.98230918      -0.91343417       0.36727081
H        0.86103839      -1.87192297       0.38090602
14
Frame=12 idx=000567 GeodesicLength=0.7278653020387378 rxn_smarts="[C:1]1([H:7])([H:8])[C@@:2]2([H:9])[C:3]([H:10])([H:11])[C:4]([H:12])([H:13])[O:5][C@@:6]12[H:14]>>[C:1]([C@@:6]1([H:14])[C:2]([H:7])([H:9])[C:3]([H:10])([H:11])[C:4]([H:12])([H:13])[O:5]1)[H:8]"
C        1.78366244      -0.13580479      -0.63986191
C        0.60919376       0.36682971       0.56332619
C       -0.78294647       0.89327999       0.22936842
C       -1.48091372      -0.30853544      -0.40373008
O       -0.44594282      -1.04795534      -1.02859707
C        0.68347113      -0.97370073      -0.20057447
H        1.42587539       1.15722947      -0.23759655
H        2.70507730      -0.36572249      -0.09691794
H        0.85312699       0.27578883       1.61725491
H       -0.70972562       1.70500549      -0.49567857
H       -1.30053022       1.26667039       1.11346674
H       -2.21314081      -0.04314834      -1.16632787
H       -1.98459490      -0.91432421       0.36217817
H        0.85738753      -1.87561254       0.38369003
14
Frame=13 idx=000567 GeodesicLength=0.7884116080049747 rxn_smarts="[C:1]1([H:7])([H:8])[C@@:2]2([H:9])[C:3]([H:10])([H:11])[C:4]([H:12])([H:13])[O:5][C@@:6]12[H:14]>>[C:1]([C@@:6]1([H:14])[C:2]([H:7])([H:9])[C:3]([H:10])([H:11])[C:4]([H:12])([H:13])[O:5]1)[H:8]"
C        1.78264204      -0.13512055      -0.62796368
C        0.61015086       0.36656649       0.56371207
C       -0.78326335       0.89167444       0.23372042
C       -1.48027405      -0.30747089      -0.40537086
O       -0.44412148      -1.04647152      -1.02952951
C        0.68168423      -0.97645828      -0.19679437
H        1.42852905       1.16177266      -0.27060909
H        2.70742224      -0.36518662      -0.09214299
H        0.85406750       0.27738620       1.61788146
H       -0.71233897       1.70775162      -0.48673104
H       -1.30148338       1.25941064       1.11983339
H       -2.21004118      -0.03942358      -1.16941176
H       -1.98688308      -0.91511625       0.35706814
H        0.85390956      -1.87931435       0.38633783
14
Frame=14 idx=000567 GeodesicLength=0.8489541067807144 rxn_smarts="[C:1]1([H:7])([H:8])[C@@:2]2([H:9])[C:3]([H:10])([H:11])[C:4]([H:12])([H:13])[O:5][C@@:6]12[H:14]>>[C:1]([C@@:6]1([H:14])[C:2]([H:7])([H:9])[C:3]([H:10])([H:11])[C:4]([H:12])([H:13])[O:5]1)[H:8]"
C        1.78154314      -0.13415381      -0.61589974
C        0.61100938       0.36618388       0.56446348
C       -0.78353284       0.89010401       0.23813991
C       -1.47958059      -0.30632449      -0.40698489
O       -0.44224036      -1.04497015      -1.03035286
C        0.67996618      -0.97913991      -0.19297905
H        1.43092358       1.16553107      -0.30466888
H        2.70974191      -0.36420866      -0.08733925
H        0.85473682       0.27863726       1.61888814
H       -0.71471002       1.71049356      -0.47767832
H       -1.30249557       1.25224111       1.12614377
H       -2.20680664      -0.03556573      -1.17250865
H       -1.98917866      -0.91580395       0.35193022
H        0.85062366      -1.88302420       0.38884611
14
Frame=15 idx=000567 GeodesicLength=0.9094892955922017 rxn_smarts="[C:1]1([H:7])([H:8])[C@@:2]2([H:9])[C:3]([H:10])([H:11])[C:4]([H:12])([H:13])[O:5][C@@:6]12[H:14]>>[C:1]([C@@:6]1([H:14])[C:2]([H:7])([H:9])[C:3]([H:10])([H:11])[C:4]([H:12])([H:13])[O:5]1)[H:8]"
C        1.78035933      -0.13288026      -0.60366356
C        0.61176350       0.36568306       0.56560138
C       -0.78375840       0.88857489       0.24263571
C       -1.47882937      -0.30508925      -0.40857622
O       -0.44029444      -1.04345080      -1.03106544
C        0.67832523      -0.98174082      -0.18912626
H        1.43304303       1.16842092      -0.33983313
H        2.71203620      -0.36276621      -0.08251325
H        0.85512336       0.27953276       1.62029865
H       -0.71682958       1.71324458      -0.46850571
H       -1.30357838       1.24515966       1.13240923
H       -2.20342524      -0.03156340      -1.17562964
H       -1.99148253      -0.91638455       0.34675420
H        0.84754729      -1.88674057       0.39121405
14
Frame=16 idx=000567 GeodesicLength=0.9700366459727235 rxn_smarts="[C:1]1([H:7])([H:8])[C@@:2]2([H:9])[C:3]([H:10])([H:11])[C:4]([H:12])([H:13])[O:5][C@@:6]12[H:14]>>[C:1]([C@@:6]1([H:14])[C:2]([H:7])([H:9])[C:3]([H:10])([H:11])[C:4]([H:12])([H:13])[O:5]1)[H:8]"
C        1.77907554      -0.13126206      -0.59123835
C        0.61240629       0.36506228       0.56714576
C       -0.78393575       0.88708567       0.24721418
C       -1.47801250      -0.30375985      -0.41014374
O       -0.43828194      -1.04190741      -1.03165358
C        0.67676232      -0.98424660      -0.18523192
H        1.43487396       1.17034233      -0.37616056
H        2.71428906      -0.36082072      -0.07766959
H        0.85521088       0.28005450       1.62212564
H       -0.71867372       1.71600437      -0.45919770
H       -1.30473413       1.23815689       1.13862788
H       -2.19987290      -0.02740612      -1.17877463
H       -1.99379525      -0.91685477       0.34152709
H        0.84468815      -1.89044853       0.39342954
