16
Frame=0 idx=009858 GeodesicLength=0.0 rxn_smarts="[O:1]([C@@:2]1([H:9])[C:3]([H:10])([H:11])[C@:4]2([C:5]([H:12])([H:13])[N:6]2[H:14])[C:7]1([H:15])[H:16])[H:8]>>[C:5](=[N:6][H:14])([H:12])[H:13].[O:1]([C@@:2]1([H:9])[C:3]([H:10])([H:11])[C:4]([H:15])=[C:7]1[H:16])[H:8]"
O       -2.03750532      -0.52467693       1.44000875
C       -1.48075344      -0.79355736       0.17746021
C       -0.99140304       0.43500519      -0.64185978
C        0.44077236      -0.09286463      -0.49665860
C        1.77736796       0.75882067      -0.39601051
N        1.43039227       1.60309051       0.63588466
C       -0.03550309      -1.23877291       0.20907392
H       -1.52417827       0.17130142       1.86101677
H       -2.17854790      -1.46160304      -0.32706817
H       -1.12081458       1.37797445      -0.11631959
H       -1.36945380       0.51844724      -1.66029665
H        1.91122618       1.27408383      -1.35056360
H        2.59566530       0.03469541      -0.26016176
H        1.55481932       1.09265019       1.50964659
H        0.54943032      -1.04331842      -1.18075135
H        0.47848576      -2.11127562       0.59659910
16
Frame=1 idx=009858 GeodesicLength=0.09933745726947578 rxn_smarts="[O:1]([C@@:2]1([H:9])[C:3]([H:10])([H:11])[C@:4]2([C:5]([H:12])([H:13])[N:6]2[H:14])[C:7]1([H:15])[H:16])[H:8]>>[C:5](=[N:6][H:14])([H:12])[H:13].[O:1]([C@@:2]1([H:9])[C:3]([H:10])([H:11])[C:4]([H:15])=[C:7]1[H:16])[H:8]"
O       -2.01850098      -0.50416551       1.44910481
C       -1.48387654      -0.78867120       0.18072167
C       -0.99945088       0.42867790      -0.65853850
C        0.43265668      -0.09613914      -0.50667077
C        1.78832699       0.77017539      -0.38608863
N        1.40575052       1.57498438       0.66234727
C       -0.04145462      -1.24725622       0.19035834
H       -1.48872938       0.18721690       1.85820617
H       -2.19349130      -1.45528993      -0.30888010
H       -1.13488606       1.37978478      -0.14901309
H       -1.38034427       0.49703209      -1.67713853
H        1.90310410       1.29992803      -1.33439306
H        2.61969242       0.06035282      -0.26099444
H        1.56809176       1.06202712       1.52803804
H        0.55105407      -1.06206584      -1.19333501
H        0.47205749      -2.10659157       0.60627582
16
Frame=2 idx=009858 GeodesicLength=0.198664158205171 rxn_smarts="[O:1]([C@@:2]1([H:9])[C:3]([H:10])([H:11])[C@:4]2([C:5]([H:12])([H:13])[N:6]2[H:14])[C:7]1([H:15])[H:16])[H:8]>>[C:5](=[N:6][H:14])([H:12])[H:13].[O:1]([C@@:2]1([H:9])[C:3]([H:10])([H:11])[C:4]([H:15])=[C:7]1[H:16])[H:8]"
O       -1.99963011      -0.48445941       1.45753499
C       -1.48684632      -0.78380579       0.18386249
C       -1.00743295       0.42266922      -0.67432063
C        0.42446234      -0.09970127      -0.51670829
C        1.79965342       0.78153229      -0.37594179
N        1.38198350       1.54619928       0.68684814
C       -0.04762688      -1.25584784       0.17178720
H       -1.45389257       0.20188493       1.85504741
H       -2.20795853      -1.44850113      -0.29123908
H       -1.14826638       1.38121606      -0.17998909
H       -1.39147381       0.47679892      -1.69269033
H        1.89529672       1.32389394      -1.31845552
H        2.64422980       0.08709303      -0.26024672
H        1.58033334       1.03398478       1.54510877
H        0.55204204      -1.08147238      -1.20598536
H        0.46512640      -2.10148464       0.61538781
16
Frame=3 idx=009858 GeodesicLength=0.29799150905789346 rxn_smarts="[O:1]([C@@:2]1([H:9])[C:3]([H:10])([H:11])[C@:4]2([C:5]([H:12])([H:13])[N:6]2[H:14])[C:7]1([H:15])[H:16])[H:8]>>[C:5](=[N:6][H:14])([H:12])[H:13].[O:1]([C@@:2]1([H:9])[C:3]([H:10])([H:11])[C:4]([H:15])=[C:7]1[H:16])[H:8]"
O       -1.98096410      -0.46554759       1.46533731
C       -1.48967916      -0.77897649       0.18689802
C       -1.01536644       0.41697680      -0.68924500
C        0.41618270      -0.10353669      -0.52676263
C        1.81137724       0.79292464      -0.36558968
N        1.35917757       1.51681979       0.70941579
C       -0.05400746      -1.26448766       0.15345568
H       -1.41974100       0.21535193       1.85159023
H       -2.22193899      -1.44132214      -0.27412953
H       -1.16101592       1.38233834      -0.20931554
H       -1.40284838       0.45770112      -1.70703089
H        1.88783480       1.34600300      -1.30285855
H        2.66931048       0.11497721      -0.25794880
H        1.59164125       1.00845415       1.56104275
H        0.55234704      -1.10159541      -1.21864694
H        0.45769038      -2.09608100       0.62378778
16
Frame=4 idx=009858 GeodesicLength=0.3973238300254148 rxn_smarts="[O:1]([C@@:2]1([H:9])[C:3]([H:10])([H:11])[C@:4]2([C:5]([H:12])([H:13])[N:6]2[H:14])[C:7]1([H:15])[H:16])[H:8]>>[C:5](=[N:6][H:14])([H:12])[H:13].[O:1]([C@@:2]1([H:9])[C:3]([H:10])([H:11])[C:4]([H:15])=[C:7]1[H:16])[H:8]"
O       -1.96255479      -0.44741175       1.47255286
C       -1.49239429      -0.77419356       0.18984024
C       -1.02326729       0.41159655      -0.70335245
C        0.40780872      -0.10763470      -0.53683568
C        1.82352562       0.80438727      -0.35504665
N        1.33740875       1.48690970       0.73009026
C       -0.06058994      -1.27313046       0.13542968
H       -1.38631778       0.22766631       1.84788026
H       -2.23543947      -1.43382185      -0.25753258
H       -1.17318668       1.38321306      -0.23706591
H       -1.41447577       0.43969254      -1.72023411
H        1.88075614       1.36627958      -1.28769163
H        2.69496198       0.14408454      -0.25412385
H        1.60208161       0.98534988       1.57599876
H        0.55191763      -1.12248836      -1.23128266
H        0.44976556      -2.09049876       0.63137346
16
Frame=5 idx=009858 GeodesicLength=0.49666271334252055 rxn_smarts="[O:1]([C@@:2]1([H:9])[C:3]([H:10])([H:11])[C@:4]2([C:5]([H:12])([H:13])[N:6]2[H:14])[C:7]1([H:15])[H:16])[H:8]>>[C:5](=[N:6][H:14])([H:12])[H:13].[O:1]([C@@:2]1([H:9])[C:3]([H:10])([H:11])[C:4]([H:15])=[C:7]1[H:16])[H:8]"
O       -1.94443228      -0.43003100       1.47922826
C       -1.49501221      -0.76946402       0.19269917
C       -1.03115200       0.40652432      -0.71668424
C        0.39932902      -0.11198835      -0.54693799
C        1.83612496       0.81595210      -0.34432000
N        1.31673719       1.45652170       0.74891347
C       -0.06737332      -1.28174761       0.11774538
H       -1.35363568       0.23887386       1.84396139
H       -2.24848153      -1.42605368      -0.24142536
H       -1.18482669       1.38389493      -0.26331324
H       -1.42636780       0.42273234      -1.73236957
H        1.87411165       1.38473599      -1.27303374
H        2.72120746       0.17450599      -0.24877123
H        1.61169485       0.96459736       1.59011708
H        0.55069666      -1.14419947      -1.24387757
H        0.44137971      -2.08485446       0.63806821
16
Frame=6 idx=009858 GeodesicLength=0.5960072374790835 rxn_smarts="[O:1]([C@@:2]1([H:9])[C:3]([H:10])([H:11])[C@:4]2([C:5]([H:12])([H:13])[N:6]2[H:14])[C:7]1([H:15])[H:16])[H:8]>>[C:5](=[N:6][H:14])([H:12])[H:13].[O:1]([C@@:2]1([H:9])[C:3]([H:10])([H:11])[C:4]([H:15])=[C:7]1[H:16])[H:8]"
O       -1.92661007      -0.41338277       1.48540976
C       -1.49755394      -0.76479251       0.19548199
C       -1.03903632       0.40175500      -0.72928197
C        0.39073021      -0.11659529      -0.55708824
C        1.84919918       0.82765086      -0.33341247
N        1.29721411       1.42568664       0.76593140
C       -0.07436251      -1.29032473       0.10041375
H       -1.32168396       0.24901611       1.83987117
H       -2.26109786      -1.41805739      -0.22578270
H       -1.19597662       1.38443118      -0.28813022
H       -1.43853883       0.40678337      -1.74350148
H        1.86795880       1.40138040      -1.25895138
H        2.74806396       0.20635150      -0.24188032
H        1.62050200       0.94611388       1.60351777
H        0.54862259      -1.16677455      -1.25643330
H        0.43256926      -2.07924170       0.64383624
16
Frame=7 idx=009858 GeodesicLength=0.6953562939371324 rxn_smarts="[O:1]([C@@:2]1([H:9])[C:3]([H:10])([H:11])[C@:4]2([C:5]([H:12])([H:13])[N:6]2[H:14])[C:7]1([H:15])[H:16])[H:8]>>[C:5](=[N:6][H:14])([H:12])[H:13].[O:1]([C@@:2]1([H:9])[C:3]([H:10])([H:11])[C:4]([H:15])=[C:7]1[H:16])[H:8]"
O       -1.90908136      -0.39744618       1.49114726
C       -1.50003887      -0.76018245       0.19819573
C       -1.04693676       0.39728417      -0.74118550
C        0.38199668      -0.12145683      -0.56731148
C        1.86277279       0.83951030      -0.32232040
N        1.27887734       1.39442677       0.78118527
C       -0.08156718      -1.29886079       0.08342241
H       -1.29042666       0.25812792       1.83564395
H       -2.27332876      -1.40986081      -0.21057405
H       -1.20667402       1.38486406      -0.31158412
H       -1.45100807       0.39181510      -1.75368831
H        1.86237044       1.41619935      -1.24550848
H        2.77554305       0.23974237      -0.23341099
H        1.62850249       0.92984277       1.61630937
H        0.54562625      -1.19025574      -1.26897045
H        0.42337263      -2.07375002       0.64864979
16
Frame=8 idx=009858 GeodesicLength=0.7947101203764332 rxn_smarts="[O:1]([C@@:2]1([H:9])[C:3]([H:10])([H:11])[C@:4]2([C:5]([H:12])([H:13])[N:6]2[H:14])[C:7]1([H:15])[H:16])[H:8]>>[C:5](=[N:6][H:14])([H:12])[H:13].[O:1]([C@@:2]1([H:9])[C:3]([H:10])([H:11])[C:4]([H:15])=[C:7]1[H:16])[H:8]"
O       -1.89182642      -0.38219797       1.49648775
C       -1.50248498      -0.75563547       0.20084543
C       -1.05486930       0.39310586      -0.75243533
C        0.37311134      -0.12658001      -0.57763899
C        1.87686680       0.85155811      -0.31103537
N        1.26176361       1.36273654       0.79472173
C       -0.08900152      -1.30736508       0.06674322
H       -1.25981372       0.26624435       1.83130513
H       -2.28521930      -1.40148177      -0.19576663
H       -1.21694875       1.38523007      -0.33374189
H       -1.46379816       0.37779765      -1.76298512
H        1.85741946       1.42917468      -1.23275699
H        2.80364765       0.27482504      -0.22331759
H        1.63568793       0.91571931       1.62858572
H        0.54163358      -1.21468826      -1.28151999
H        0.41383176      -2.06844306       0.65250891
16
Frame=9 idx=009858 GeodesicLength=0.8940578460332376 rxn_smarts="[O:1]([C@@:2]1([H:9])[C:3]([H:10])([H:11])[C@:4]2([C:5]([H:12])([H:13])[N:6]2[H:14])[C:7]1([H:15])[H:16])[H:8]>>[C:5](=[N:6][H:14])([H:12])[H:13].[O:1]([C@@:2]1([H:9])[C:3]([H:10])([H:11])[C:4]([H:15])=[C:7]1[H:16])[H:8]"
O       -1.87482179      -0.36761276       1.50146464
C       -1.50490835      -0.75115205       0.20343375
C       -1.06284097       0.38920988      -0.76306912
C        0.36405744      -0.13197856      -0.58810241
C        1.89149418       0.86383011      -0.29954629
N        1.24591914       1.33056869       0.80659028
C       -0.09668696      -1.31585175       0.05034463
H       -1.22979220       0.27339986       1.82686199
H       -2.29681404      -1.39293014      -0.18132764
H       -1.22680903       1.38555546      -0.35467046
H       -1.47692161       0.36469918      -1.77143643
H        1.85316913       1.44029881      -1.22072326
H        2.83235850       0.31178818      -0.21157199
H        1.64205000       0.90363943       1.64040401
H        0.53656668      -1.24012256      -1.29410507
H        0.40397988      -2.06334179       0.65545339
16
Frame=10 idx=009858 GeodesicLength=0.9934039461258253 rxn_smarts="[O:1]([C@@:2]1([H:9])[C:3]([H:10])([H:11])[C@:4]2([C:5]([H:12])([H:13])[N:6]2[H:14])[C:7]1([H:15])[H:16])[H:8]>>[C:5](=[N:6][H:14])([H:12])[H:13].[O:1]([C@@:2]1([H:9])[C:3]([H:10])([H:11])[C:4]([H:15])=[C:7]1[H:16])[H:8]"
O       -1.85801742      -0.35367460       1.50612917
C       -1.50732121      -0.74673324       0.20596753
C       -1.07086686       0.38559341      -0.77311972
C        0.35481557      -0.13766986      -0.59874221
C        1.90667753       0.87634521      -0.28783512
N        1.23137366       1.29789422       0.81681944
C       -0.10464512      -1.32434944       0.03417217
H       -1.20027853       0.27961464       1.82233378
H       -2.30816273      -1.38420513      -0.16721631
H       -1.23627339       1.38587158      -0.37441783
H       -1.49041126       0.35250698      -1.77908269
H        1.84972668       1.44949293      -1.20946643
H        2.86165954       0.35082343      -0.19806715
H        1.64754288       0.89361210       1.65184170
H        0.53033064      -1.26660802      -1.30678171
H        0.39385001      -2.05851420       0.65746537
16
Frame=11 idx=009858 GeodesicLength=1.0927462994731292 rxn_smarts="[O:1]([C@@:2]1([H:9])[C:3]([H:10])([H:11])[C@:4]2([C:5]([H:12])([H:13])[N:6]2[H:14])[C:7]1([H:15])[H:16])[H:8]>>[C:5](=[N:6][H:14])([H:12])[H:13].[O:1]([C@@:2]1([H:9])[C:3]([H:10])([H:11])[C:4]([H:15])=[C:7]1[H:16])[H:8]"
O       -1.84135327      -0.34037046       1.51052556
C       -1.50973204      -0.74237930       0.20845390
C       -1.07895599       0.38225275      -0.78261383
C        0.34536582      -0.14367663      -0.60960097
C        1.92243782       0.88912323      -0.27588063
N        1.21816560       1.26465605       0.82542993
C       -0.11290367      -1.33288991       0.01816634
H       -1.17117873       0.28490128       1.81772831
H       -2.31931307      -1.37529775      -0.15338836
H       -1.24534429       1.38620319      -0.39302380
H       -1.50429683       0.34121261      -1.78595117
H        1.84721250       1.45665876      -1.19903741
H        2.89151184       0.39216247      -0.18268661
H        1.65209979       0.88565171       1.66295015
H        0.52281879      -1.29419735      -1.31960554
H        0.38346573      -2.05401067       0.65853411
16
Frame=12 idx=009858 GeodesicLength=1.1920851714036331 rxn_smarts="[O:1]([C@@:2]1([H:9])[C:3]([H:10])([H:11])[C@:4]2([C:5]([H:12])([H:13])[N:6]2[H:14])[C:7]1([H:15])[H:16])[H:8]>>[C:5](=[N:6][H:14])([H:12])[H:13].[O:1]([C@@:2]1([H:9])[C:3]([H:10])([H:11])[C:4]([H:15])=[C:7]1[H:16])[H:8]"
O       -1.82476173      -0.32768735       1.51469755
C       -1.51214720      -0.73808894       0.21090112
C       -1.08711348       0.37918563      -0.79157625
C        0.33568930      -0.15002992      -0.62072532
C        1.93879462       0.90218510      -0.26365849
N        1.20634531       1.23076307       0.83244193
C       -0.12149480      -1.34151290       0.00226357
H       -1.14239192       0.28926936       1.81304857
H       -2.33031316      -1.36618954      -0.13979623
H       -1.25401177       1.38657487      -0.41052300
H       -1.51860750       0.33081478      -1.79206500
H        1.84575818       1.46167575      -1.18948375
H        2.92185382       0.43608279      -0.16530611
H        1.65564015       0.87979104       1.67376798
H        0.51391506      -1.32295326      -1.33263598
H        0.37284514      -2.04988048       0.65864940
16
Frame=13 idx=009858 GeodesicLength=1.2914108522190237 rxn_smarts="[O:1]([C@@:2]1([H:9])[C:3]([H:10])([H:11])[C@:4]2([C:5]([H:12])([H:13])[N:6]2[H:14])[C:7]1([H:15])[H:16])[H:8]>>[C:5](=[N:6][H:14])([H:12])[H:13].[O:1]([C@@:2]1([H:9])[C:3]([H:10])([H:11])[C:4]([H:15])=[C:7]1[H:16])[H:8]"
O       -1.80816563      -0.31561437       1.51866860
C       -1.51456985      -0.73386069       0.21331173
C       -1.09533041       0.37638527      -0.80002308
C        0.32576550      -0.15677308      -0.63215825
C        1.95575633       0.91555652      -0.25113732
N        1.19599235       1.19606883       0.83787637
C       -0.13046534      -1.35026273      -0.01360042
H       -1.11380962       0.29272441       1.80827346
H       -2.34120906      -1.35685358      -0.12639875
H       -1.26223037       1.38700179      -0.42694040
H       -1.53335911       0.32131443      -1.79742898
H        1.84549333       1.46440604      -1.18082602
H        2.95257601       0.48292696      -0.14581070
H        1.65808970       0.87608208       1.68430351
H        0.50347910      -1.35295038      -1.34591884
H        0.36198706      -2.04615147       0.65780908
16
Frame=14 idx=009858 GeodesicLength=1.3907306842253928 rxn_smarts="[O:1]([C@@:2]1([H:9])[C:3]([H:10])([H:11])[C@:4]2([C:5]([H:12])([H:13])[N:6]2[H:14])[C:7]1([H:15])[H:16])[H:8]>>[C:5](=[N:6][H:14])([H:12])[H:13].[O:1]([C@@:2]1([H:9])[C:3]([H:10])([H:11])[C:4]([H:15])=[C:7]1[H:16])[H:8]"
O       -1.79145582      -0.30416112       1.52249937
C       -1.51699574      -0.72969336       0.21570200
C       -1.10360846       0.37386256      -0.80796194
C        0.31557413      -0.16394962      -0.64396122
C        1.97335630       0.92923663      -0.23828464
N        1.18717707       1.16044611       0.84171929
C       -0.13985603      -1.35919665      -0.02951591
H       -1.08528502       0.29524122       1.80341229
H       -2.35204820      -1.34724964      -0.11313315
H       -1.26997240       1.38751499      -0.44227097
H       -1.54859648       0.31274941      -1.80204220
H        1.84664732       1.46459212      -1.17314605
H        2.98355413       0.53305389      -0.12398463
H        1.65925897       0.87473078       1.69458042
H        0.49135059      -1.38425735      -1.35955072
H        0.35089963      -2.04291996       0.65593808
16
Frame=15 idx=009858 GeodesicLength=1.4900435191175598 rxn_smarts="[O:1]([C@@:2]1([H:9])[C:3]([H:10])([H:11])[C@:4]2([C:5]([H:12])([H:13])[N:6]2[H:14])[C:7]1([H:15])[H:16])[H:8]>>[C:5](=[N:6][H:14])([H:12])[H:13].[O:1]([C@@:2]1([H:9])[C:3]([H:10])([H:11])[C:4]([H:15])=[C:7]1[H:16])[H:8]"
O       -1.77450540      -0.29335088       1.52623513
C       -1.51941615      -0.72558699       0.21808331
C       -1.11193165       0.37162885      -0.81538548
C        0.30509298      -0.17161980      -0.65619511
C        1.99162129       0.94321619      -0.22506068
N        1.18001317       1.12369182       0.84395451
C       -0.14972708      -1.36838177      -0.04558139
H       -1.05665521       0.29677709       1.79845403
H       -2.36287728      -1.33732407      -0.09994292
H       -1.27716528       1.38813998      -0.45648585
H       -1.56435173       0.30517556      -1.80587788
H        1.84947742       1.46191661      -1.16650300
H        3.01459568       0.58691535      -0.09960937
H        1.65893152       0.87603404       1.70458507
H        0.47732992      -1.41695523      -1.37362629
H        0.33956779      -2.04027678       0.65295591
16
Frame=16 idx=009858 GeodesicLength=1.5893533370520119 rxn_smarts="[O:1]([C@@:2]1([H:9])[C:3]([H:10])([H:11])[C@:4]2([C:5]([H:12])([H:13])[N:6]2[H:14])[C:7]1([H:15])[H:16])[H:8]>>[C:5](=[N:6][H:14])([H:12])[H:13].[O:1]([C@@:2]1([H:9])[C:3]([H:10])([H:11])[C:4]([H:15])=[C:7]1[H:16])[H:8]"
O       -1.75715811      -0.28323481       1.52993151
C       -1.52181733      -0.72154373       0.22047045
C       -1.12027113       0.36970750      -0.82226666
C        0.29429995      -0.17986222      -0.66892850
C        2.01058991       0.95745471      -0.21142183
N        1.17465676       1.08552883       0.84455369
C       -0.16015561      -1.37790436      -0.06191733
H       -1.02772458       0.29725228       1.79339083
H       -2.37374819      -1.32700188      -0.08676712
H       -1.28370050       1.38890870      -0.46951424
H       -1.58065684       0.29869151      -1.80888342
H        1.85432322       1.45593790      -1.16096706
H        3.04544419       0.64506870      -0.07242296
H        1.65679080       0.88048956       1.71427638
H        0.46117166      -1.45113344      -1.38826894
H        0.32795580      -2.03835925       0.64873519
