10
Frame=0 idx=000491 GeodesicLength=0.0 rxn_smarts="[C:1]([C:2]([C:3]#[N:4])([C:5]#[N:6])[H:10])([H:7])([H:8])[H:9]>>[C:1]([C@@:2]1([H:10])[C:5]([N+:4]#[C-:3])=[N:6]1)([H:7])([H:8])[H:9]"
C       -1.24259519      -0.39727729      -0.08135443
C       -0.10065459       0.23372064       0.55437078
C        2.14465201      -1.28399109      -0.45243743
N        2.09417743      -0.11581086      -0.32299674
C        0.76026267       1.10510602      -0.11946507
N        0.67956819       2.24983309      -0.40324492
H       -2.04687734      -0.62534977       0.61506565
H       -0.82955687      -1.36124785      -0.43258741
H       -1.57587383       0.14865957      -0.96171486
H        0.11689752       0.04635753       1.60436445
10
Frame=1 idx=000491 GeodesicLength=0.07066559524062276 rxn_smarts="[C:1]([C:2]([C:3]#[N:4])([C:5]#[N:6])[H:10])([H:7])([H:8])[H:9]>>[C:1]([C@@:2]1([H:10])[C:5]([N+:4]#[C-:3])=[N:6]1)([H:7])([H:8])[H:9]"
C       -1.24175489      -0.39928551      -0.08535760
C       -0.08006692       0.21586324       0.53887225
C        2.13159158      -1.27629980      -0.42975761
N        2.13083320      -0.10440824      -0.34272195
C        0.77006592       1.09669188      -0.14006173
N        0.64413070       2.25136241      -0.35935417
H       -2.05165850      -0.58784157       0.61652882
H       -0.86057649      -1.38136563      -0.41890942
H       -1.56662976       0.13865022      -0.97381701
H        0.12406516       0.04663301       1.59457842
10
Frame=2 idx=000491 GeodesicLength=0.14030481779173343 rxn_smarts="[C:1]([C:2]([C:3]#[N:4])([C:5]#[N:6])[H:10])([H:7])([H:8])[H:9]>>[C:1]([C@@:2]1([H:10])[C:5]([N+:4]#[C-:3])=[N:6]1)([H:7])([H:8])[H:9]"
C       -1.24022012      -0.40140184      -0.08924403
C       -0.06075918       0.19933992       0.52478707
C        2.11874697      -1.26613976      -0.40943009
N        2.16356812      -0.09401818      -0.36509010
C        0.77904784       1.08997075      -0.15823976
N        0.61098364       2.24951139      -0.31477950
H       -2.05612383      -0.54862360       0.61574968
H       -0.89053960      -1.40093895      -0.40146714
H       -1.55496229       0.12591854      -0.98770316
H        0.13025844       0.04638173       1.58541703
10
Frame=3 idx=000491 GeodesicLength=0.2092431642655977 rxn_smarts="[C:1]([C:2]([C:3]#[N:4])([C:5]#[N:6])[H:10])([H:7])([H:8])[H:9]>>[C:1]([C@@:2]1([H:10])[C:5]([N+:4]#[C-:3])=[N:6]1)([H:7])([H:8])[H:9]"
C       -1.23809634      -0.40351177      -0.09302791
C       -0.04257517       0.18399799       0.51229297
C        2.10632184      -1.25402230      -0.39064619
N        2.19273738      -0.08469626      -0.38994931
C        0.78756042       1.08487080      -0.17348610
N        0.57942655       2.24451282      -0.27104937
H       -2.05998977      -0.50854907       0.61274242
H       -0.91949601      -1.41934721      -0.38148637
H       -1.54146480       0.11146792      -1.00255841
H        0.13557590       0.04527708       1.57716826
10
Frame=4 idx=000491 GeodesicLength=0.27774252630375235 rxn_smarts="[C:1]([C:2]([C:3]#[N:4])([C:5]#[N:6])[H:10])([H:7])([H:8])[H:9]>>[C:1]([C@@:2]1([H:10])[C:5]([N+:4]#[C-:3])=[N:6]1)([H:7])([H:8])[H:9]"
C       -1.23546855      -0.40562706      -0.09677394
C       -0.02543465       0.16975784       0.50125821
C        2.09467455      -1.24029220      -0.37175082
N        2.21821766      -0.07656126      -0.41836249
C        0.79560589       1.08122437      -0.18604506
N        0.54948466       2.23698137      -0.22799894
H       -2.06301950      -0.46818206       0.60761628
H       -0.94752408      -1.43632716      -0.35980533
H       -1.52663049       0.09570049      -1.01792002
H        0.14009451       0.04332567       1.56978211
10
Frame=5 idx=000491 GeodesicLength=0.34595805486394193 rxn_smarts="[C:1]([C:2]([C:3]#[N:4])([C:5]#[N:6])[H:10])([H:7])([H:8])[H:9]>>[C:1]([C@@:2]1([H:10])[C:5]([N+:4]#[C-:3])=[N:6]1)([H:7])([H:8])[H:9]"
C       -1.23231008      -0.40777506      -0.10045710
C       -0.00926843       0.15658216       0.49183715
C        2.08360494      -1.22495541      -0.35343679
N        2.24007995      -0.06962323      -0.45011779
C        0.80332247       1.07895146      -0.19569998
N        0.52093173       2.22737410      -0.18565317
H       -2.06546649      -0.42718646       0.60002569
H       -0.97475855      -1.45200918      -0.33599653
H       -1.50996492       0.07820266      -1.03399118
H        0.14382939       0.04043896       1.56348970
10
Frame=6 idx=000491 GeodesicLength=0.4140738232393801 rxn_smarts="[C:1]([C:2]([C:3]#[N:4])([C:5]#[N:6])[H:10])([H:7])([H:8])[H:9]>>[C:1]([C@@:2]1([H:10])[C:5]([N+:4]#[C-:3])=[N:6]1)([H:7])([H:8])[H:9]"
C       -1.22863557      -0.41004280      -0.10403853
C        0.00599233       0.14444746       0.48403943
C        2.07290604      -1.20799892      -0.33641495
N        2.25851794      -0.06382479      -0.48467286
C        0.81072772       1.07793602      -0.20260816
N        0.49378123       2.21614112      -0.14376175
H       -2.06747113      -0.38531084       0.58967277
H       -1.00144411      -1.46651309      -0.30974354
H       -1.49122411       0.05849487      -1.05084047
H        0.14684965       0.03667096       1.55836804
10
Frame=7 idx=000491 GeodesicLength=0.4821910606039146 rxn_smarts="[C:1]([C:2]([C:3]#[N:4])([C:5]#[N:6])[H:10])([H:7])([H:8])[H:9]>>[C:1]([C@@:2]1([H:10])[C:5]([N+:4]#[C-:3])=[N:6]1)([H:7])([H:8])[H:9]"
C       -1.22459196      -0.41245821      -0.10754438
C        0.02039135       0.13327708       0.47756678
C        2.06296038      -1.18946268      -0.31974107
N        2.27363117      -0.05927794      -0.52179816
C        0.81777124       1.07785517      -0.20750184
N        0.46837833       2.20346584      -0.10227841
H       -2.06866477      -0.34347550       0.57698362
H       -1.02766318      -1.47950792      -0.28213826
H       -1.47128521       0.03719361      -1.06776846
H        0.14907265       0.03239055       1.55422018
10
Frame=8 idx=000491 GeodesicLength=0.5504134582787543 rxn_smarts="[C:1]([C:2]([C:3]#[N:4])([C:5]#[N:6])[H:10])([H:7])([H:8])[H:9]>>[C:1]([C@@:2]1([H:10])[C:5]([N+:4]#[C-:3])=[N:6]1)([H:7])([H:8])[H:9]"
C       -1.22007681      -0.41500804      -0.11091175
C        0.03406333       0.12301571       0.47265588
C        2.05341806      -1.16944666      -0.30453686
N        2.28539951      -0.05594218      -0.56109537
C        0.82466129       1.07876483      -0.20990344
N        0.44409595       2.18963218      -0.06134891
H       -2.06926393      -0.30108325       0.56140333
H       -1.05359979      -1.49106985      -0.25255572
H       -1.44934383       0.01375451      -1.08500207
H        0.15064622       0.02738274       1.55129491
10
Frame=9 idx=000491 GeodesicLength=0.6187955103349883 rxn_smarts="[C:1]([C:2]([C:3]#[N:4])([C:5]#[N:6])[H:10])([H:7])([H:8])[H:9]>>[C:1]([C@@:2]1([H:10])[C:5]([N+:4]#[C-:3])=[N:6]1)([H:7])([H:8])[H:9]"
C       -1.21510204      -0.41769161      -0.11423966
C        0.04704273       0.11363186       0.46921351
C        2.04491144      -1.14785040      -0.28915811
N        2.29305773      -0.05422307      -0.60376508
C        0.83140226       1.08053031      -0.21008712
N        0.42120463       2.17485756      -0.02059692
H       -2.06900094      -0.25878567       0.54305355
H       -1.07918604      -1.50096359      -0.22182983
H       -1.42577431      -0.01137739      -1.10215027
H        0.15144455       0.02187198       1.54955993
10
Frame=10 idx=000491 GeodesicLength=0.6875034179712065 rxn_smarts="[C:1]([C:2]([C:3]#[N:4])([C:5]#[N:6])[H:10])([H:7])([H:8])[H:9]>>[C:1]([C@@:2]1([H:10])[C:5]([N+:4]#[C-:3])=[N:6]1)([H:7])([H:8])[H:9]"
C       -1.20960177      -0.42053321      -0.11751112
C        0.05940883       0.10510177       0.46731880
C        2.03735015      -1.12454945      -0.27413926
N        2.29629777      -0.05418827      -0.64958054
C        0.83805141       1.08314407      -0.20799485
N        0.39958147       2.15934820       0.02019920
H       -2.06788453      -0.21631230       0.52155892
H       -1.10462344      -1.50918963      -0.18968820
H       -1.40012323      -0.03863798      -1.11926604
H        0.15154333       0.01581680       1.54910308
10
Frame=11 idx=000491 GeodesicLength=0.756525422944843 rxn_smarts="[C:1]([C:2]([C:3]#[N:4])([C:5]#[N:6])[H:10])([H:7])([H:8])[H:9]>>[C:1]([C@@:2]1([H:10])[C:5]([N+:4]#[C-:3])=[N:6]1)([H:7])([H:8])[H:9]"
C       -1.20351475      -0.42341319      -0.12071715
C        0.07124713       0.09740620       0.46703685
C        2.03104696      -1.09951355      -0.25895975
N        2.29448345      -0.05633847      -0.69856592
C        0.84487264       1.08646608      -0.20352535
N        0.37890161       2.14313451       0.06045668
H       -2.06569575      -0.17443270       0.49714921
H       -1.12963552      -1.51542354      -0.15706513
H       -1.37257272      -0.06727320      -1.13581969
H        0.15086695       0.00938787       1.55001026
10
Frame=12 idx=000491 GeodesicLength=0.8260272927935342 rxn_smarts="[C:1]([C:2]([C:3]#[N:4])([C:5]#[N:6])[H:10])([H:7])([H:8])[H:9]>>[C:1]([C@@:2]1([H:10])[C:5]([N+:4]#[C-:3])=[N:6]1)([H:7])([H:8])[H:9]"
C       -1.19700914      -0.42642944      -0.12379365
C        0.08263005       0.09042142       0.46801047
C        2.02579391      -1.07270435      -0.24465595
N        2.28845376      -0.06024361      -0.74870292
C        0.85162493       1.09032317      -0.19752331
N        0.35942184       2.12630604       0.10026112
H       -2.06229320      -0.13313586       0.47010565
H       -1.15468582      -1.51975585      -0.12405974
H       -1.34361072      -0.09742908      -1.15157512
H        0.14967439       0.00264757       1.55193345
10
Frame=13 idx=000491 GeodesicLength=0.896009853541377 rxn_smarts="[C:1]([C:2]([C:3]#[N:4])([C:5]#[N:6])[H:10])([H:7])([H:8])[H:9]>>[C:1]([C@@:2]1([H:10])[C:5]([N+:4]#[C-:3])=[N:6]1)([H:7])([H:8])[H:9]"
C       -1.19027092      -0.42954985      -0.12662181
C        0.09367366       0.08399029       0.46990877
C        2.02117843      -1.04452918      -0.23222466
N        2.27950097      -0.06535144      -0.79788868
C        0.85824151       1.09456606      -0.19054597
N        0.34084917       2.10885231       0.13902000
H       -2.05756086      -0.09270598       0.44096889
H       -1.18002311      -1.52211277      -0.09104471
H       -1.31386227      -0.12875736      -1.16611616
H        0.14827341      -0.00440208       1.55454435
10
Frame=14 idx=000491 GeodesicLength=0.9664033150966134 rxn_smarts="[C:1]([C:2]([C:3]#[N:4])([C:5]#[N:6])[H:10])([H:7])([H:8])[H:9]>>[C:1]([C@@:2]1([H:10])[C:5]([N+:4]#[C-:3])=[N:6]1)([H:7])([H:8])[H:9]"
C       -1.18341017      -0.43269945      -0.12916867
C        0.10444800       0.07802808       0.47251626
C        2.01725415      -1.01521815      -0.22131949
N        2.26805889      -0.07162829      -0.84556847
C        0.86471320       1.09908809      -0.18294523
N        0.32304832       2.09080891       0.17636671
H       -2.05142959      -0.05370976       0.41035942
H       -1.20551934      -1.52244392      -0.05877505
H       -1.28393566      -0.16057714      -1.17911217
H        0.14677219      -0.01164836       1.55764670
10
Frame=15 idx=000491 GeodesicLength=1.0370934775596952 rxn_smarts="[C:1]([C:2]([C:3]#[N:4])([C:5]#[N:6])[H:10])([H:7])([H:8])[H:9]>>[C:1]([C@@:2]1([H:10])[C:5]([N+:4]#[C-:3])=[N:6]1)([H:7])([H:8])[H:9]"
C       -1.17663566      -0.43585946      -0.13137362
C        0.11500868       0.07240711       0.47547953
C        2.01383625      -0.98511851      -0.21204743
N        2.25530531      -0.07864382      -0.89063583
C        0.87088334       1.10377560      -0.17530760
N        0.30598542       2.07220356       0.21203994
H       -2.04392503      -0.01645596       0.37898387
H       -1.23124553      -1.52084410      -0.02768856
H       -1.25459264      -0.19242108      -1.19035697
H        0.14537984      -0.01904334       1.56090667
10
Frame=16 idx=000491 GeodesicLength=1.1079618897310828 rxn_smarts="[C:1]([C:2]([C:3]#[N:4])([C:5]#[N:6])[H:10])([H:7])([H:8])[H:9]>>[C:1]([C@@:2]1([H:10])[C:5]([N+:4]#[C-:3])=[N:6]1)([H:7])([H:8])[H:9]"
C       -1.17013126      -0.43902885      -0.13317990
C        0.12539939       0.06700275       0.47850051
C        2.01061886      -0.95463240      -0.20460442
N        2.24248602      -0.08584483      -0.93229160
C        0.87659554       1.10856891      -0.16805388
N        0.28958131       2.05306967       0.24592093
H       -2.03513957       0.01900341       0.34734550
H       -1.25733676      -1.51743771       0.00211861
H       -1.22636941      -0.22408385      -1.19980061
H        0.14429588      -0.02661710       1.56404487
