13
Frame=0 idx=000290 GeodesicLength=0.0 rxn_smarts="[C:1]([C:2]1([C:3]([H:9])([H:10])[H:11])[C:4]([H:12])([H:13])[O:5]1)([H:6])([H:7])[H:8]>>[C:1]([C:2]([C:4]([C:3]([H:9])([H:10])[H:11])([H:12])[H:13])=[O:5])([H:6])([H:7])[H:8]"
C       -1.28250595      -0.80842632      -0.02462402
C       -0.19966390       0.19571844      -0.41447798
C        1.26422762      -0.38973748       0.05598086
C       -0.04177336       1.42106031       0.37537167
O       -0.09067526       0.55676809      -1.65680135
H       -1.26827312      -1.06466233       1.03657381
H       -2.25400079      -0.38389666      -0.27639990
H       -1.13965987      -1.71302603      -0.61832385
H        1.26884858      -0.64823909       1.11429511
H        2.07659323       0.29254948      -0.18670951
H        1.35277152      -1.27680024      -0.56564357
H       -0.19528074       2.35842019      -0.14950706
H        0.50939208       1.46027168       1.31026580
13
Frame=1 idx=000290 GeodesicLength=0.07190834026312477 rxn_smarts="[C:1]([C:2]1([C:3]([H:9])([H:10])[H:11])[C:4]([H:12])([H:13])[O:5]1)([H:6])([H:7])[H:8]>>[C:1]([C:2]([C:4]([C:3]([H:9])([H:10])[H:11])([H:12])[H:13])=[O:5])([H:6])([H:7])[H:8]"
C       -1.29358214      -0.80789048      -0.02179480
C       -0.20735675       0.18490452      -0.41828351
C        1.27487059      -0.38420665       0.05472583
C       -0.02135575       1.41122477       0.36006853
O       -0.10869711       0.57564461      -1.65186762
H       -1.29616585      -1.04185295       1.04460439
H       -2.26187727      -0.38997150      -0.29570344
H       -1.13895492      -1.72629505      -0.59089056
H        1.27374344      -0.66718942       1.10685301
H        2.09445457       0.29596691      -0.16917961
H        1.37730255      -1.26038494      -0.58084099
H       -0.20037773       2.35478648      -0.14467840
H        0.50799637       1.45526370       1.30698716
13
Frame=2 idx=000290 GeodesicLength=0.14376182585828473 rxn_smarts="[C:1]([C:2]1([C:3]([H:9])([H:10])[H:11])[C:4]([H:12])([H:13])[O:5]1)([H:6])([H:7])[H:8]>>[C:1]([C:2]([C:4]([C:3]([H:9])([H:10])[H:11])([H:12])[H:13])=[O:5])([H:6])([H:7])[H:8]"
C       -1.30461700      -0.80689705      -0.01891212
C       -0.21471737       0.17413670      -0.42244465
C        1.28584412      -0.37874143       0.05319103
C       -0.00094543       1.40104063       0.34441499
O       -0.12684621       0.59410472      -1.64673399
H       -1.32454895      -1.01742842       1.05215694
H       -2.26936827      -0.39651001      -0.31551302
H       -1.13833235      -1.73909219      -0.56175473
H        1.27886779      -0.68668751       1.09836839
H        2.11282152       0.29892107      -0.15063358
H        1.40211587      -1.24326387      -0.59656997
H       -0.20633719       2.35035893      -0.13860452
H        0.50606347       1.45005843       1.30303523
13
Frame=3 idx=000290 GeodesicLength=0.21553209198490975 rxn_smarts="[C:1]([C:2]1([C:3]([H:9])([H:10])[H:11])[C:4]([H:12])([H:13])[O:5]1)([H:6])([H:7])[H:8]>>[C:1]([C:2]([C:4]([C:3]([H:9])([H:10])[H:11])([H:12])[H:13])=[O:5])([H:6])([H:7])[H:8]"
C       -1.31560700      -0.80548659      -0.01597989
C       -0.22180453       0.16342067      -0.42694221
C        1.29711963      -0.37330801       0.05140122
C        0.01933844       1.39053646       0.32843922
O       -0.14515319       0.61214674      -1.64138582
H       -1.35334233      -0.99149527       1.05912343
H       -2.27647524      -0.40362554      -0.33571291
H       -1.13782407      -1.75131455      -0.53095421
H        1.28420082      -0.70668440       1.08881798
H        2.13156809       0.30144589      -0.13102304
H        1.42719880      -1.22536754      -0.61279232
H       -0.21280834       2.34507045      -0.13135002
H        0.50358890       1.44466171       1.29835856
13
Frame=4 idx=000290 GeodesicLength=0.2871873232233182 rxn_smarts="[C:1]([C:2]1([C:3]([H:9])([H:10])[H:11])[C:4]([H:12])([H:13])[O:5]1)([H:6])([H:7])[H:8]>>[C:1]([C:2]([C:4]([C:3]([H:9])([H:10])[H:11])([H:12])[H:13])=[O:5])([H:6])([H:7])[H:8]"
C       -1.32655320      -0.80371043      -0.01300395
C       -0.22868225       0.15276142      -0.43174689
C        1.30866274      -0.36786943       0.04938969
C        0.03936586       1.37973590       0.31219708
O       -0.16365145       0.62977536      -1.63579585
H       -1.38246935      -0.96419757       1.06539872
H       -2.28320822      -0.41143051      -0.35617957
H       -1.13745872      -1.76286073      -0.49855691
H        1.28972530      -0.72712248       1.07818678
H        2.15054953       0.30358121      -0.11031867
H        1.45253353      -1.20662328      -0.62945716
H       -0.21940605       2.33888231      -0.12303531
H        0.50059227       1.43907823       1.29292204
13
Frame=5 idx=000290 GeodesicLength=0.35871305149736943 rxn_smarts="[C:1]([C:2]1([C:3]([H:9])([H:10])[H:11])[C:4]([H:12])([H:13])[O:5]1)([H:6])([H:7])[H:8]>>[C:1]([C:2]([C:4]([C:3]([H:9])([H:10])[H:11])([H:12])[H:13])=[O:5])([H:6])([H:7])[H:8]"
C       -1.33746219      -0.80163152      -0.00999021
C       -0.23541824       0.14215931      -0.43682938
C        1.32043748      -0.36238860       0.04720237
C        0.05899928       1.36865340       0.29574160
O       -0.18237880       0.64699553      -1.62994126
H       -1.41183827      -0.93572729       1.07088886
H       -2.28958940      -0.42002307      -0.37677580
H       -1.13728215      -1.77362999      -0.46467078
H        1.29543254      -0.74794763       1.06647677
H        2.16961423       0.30536991      -0.08850230
H        1.47810291      -1.18695526      -0.64649442
H       -0.22573026       2.33180573      -0.11381994
H        0.49711286       1.43331950       1.28671449
13
Frame=6 idx=000290 GeodesicLength=0.43007645536374395 rxn_smarts="[C:1]([C:2]1([C:3]([H:9])([H:10])[H:11])[C:4]([H:12])([H:13])[O:5]1)([H:6])([H:7])[H:8]>>[C:1]([C:2]([C:4]([C:3]([H:9])([H:10])[H:11])([H:12])[H:13])=[O:5])([H:6])([H:7])[H:8]"
C       -1.34834055      -0.79932079      -0.00694023
C       -0.24208949       0.13161968      -0.44215014
C        1.33239011      -0.35682158       0.04488463
C        0.07808159       1.35733185       0.27913051
O       -0.20138069       0.66380806      -1.62376976
H       -1.44136255      -0.90629229       1.07550189
H       -2.29564369      -0.42950404      -0.39734642
H       -1.13731989      -1.78354234      -0.42942312
H        1.30130594      -0.76911788       1.05366141
H        2.18858477       0.30687970      -0.06554589
H        1.50388365      -1.16627751      -0.66383483
H       -0.23129439       2.32384563      -0.10391540
H        0.49318519       1.42739152       1.27974733
13
Frame=7 idx=000290 GeodesicLength=0.5012721174928205 rxn_smarts="[C:1]([C:2]1([C:3]([H:9])([H:10])[H:11])[C:4]([H:12])([H:13])[O:5]1)([H:6])([H:7])[H:8]>>[C:1]([C:2]([C:4]([C:3]([H:9])([H:10])[H:11])([H:12])[H:13])=[O:5])([H:6])([H:7])[H:8]"
C       -1.35920149      -0.79682151      -0.00385309
C       -0.24873451       0.12112315      -0.44766609
C        1.34450035      -0.35115647       0.04246170
C        0.09657677       1.34570597       0.26252539
O       -0.22067008       0.68024836      -1.61723952
H       -1.47111449      -0.87593314       1.07920149
H       -2.30135607      -0.44001646      -0.41792976
H       -1.13755442      -1.79253642      -0.39276860
H        1.30735559      -0.79062626       1.03971590
H        2.20731878       0.30811041      -0.04147953
H        1.52986935      -1.14446855      -0.68149988
H       -0.23591854       2.31513027      -0.09354787
H        0.48892875       1.42124066       1.27207987
13
Frame=8 idx=000290 GeodesicLength=0.5722859341869154 rxn_smarts="[C:1]([C:2]1([C:3]([H:9])([H:10])[H:11])[C:4]([H:12])([H:13])[O:5]1)([H:6])([H:7])[H:8]>>[C:1]([C:2]([C:4]([C:3]([H:9])([H:10])[H:11])([H:12])[H:13])=[O:5])([H:6])([H:7])[H:8]"
C       -1.37001415      -0.79418004      -0.00072294
C       -0.25542247       0.11066986      -0.45334096
C        1.35669284      -0.34538292       0.03998846
C        0.11430251       1.33382936       0.24589050
O       -0.24028525       0.69628370      -1.61026229
H       -1.50092324      -0.84485993       1.08187614
H       -2.30670818      -0.45157186      -0.43830661
H       -1.13798617      -1.80051158      -0.35487375
H        1.31355870      -0.81249182       1.02456564
H        2.22560409       0.30908145      -0.01624872
H        1.55604671      -1.12145736      -0.69937789
H       -0.23919734       2.30570153      -0.08290968
H        0.48433195       1.41488960       1.26372212
13
Frame=9 idx=000290 GeodesicLength=0.6432193320178909 rxn_smarts="[C:1]([C:2]1([C:3]([H:9])([H:10])[H:11])[C:4]([H:12])([H:13])[O:5]1)([H:6])([H:7])[H:8]>>[C:1]([C:2]([C:4]([C:3]([H:9])([H:10])[H:11])([H:12])[H:13])=[O:5])([H:6])([H:7])[H:8]"
C       -1.38090417      -0.79147136       0.00245332
C       -0.26219590       0.10025165      -0.45917157
C        1.36904319      -0.33947578       0.03751327
C        0.13128956       1.32169150       0.22935499
O       -0.26021771       0.71196656      -1.60291764
H       -1.53093312      -0.81324162       1.08357689
H       -2.31187027      -0.46428381      -0.45847693
H       -1.13873757      -1.80743304      -0.31580890
H        1.32002491      -0.83468710       1.00827569
H        2.24348715       0.30982795       0.01008558
H        1.58248394      -1.09714134      -0.71745667
H       -0.24102947       2.29569241      -0.07226356
H        0.47955947       1.40830398       1.25483554
13
Frame=10 idx=000290 GeodesicLength=0.71383389621928 rxn_smarts="[C:1]([C:2]1([C:3]([H:9])([H:10])[H:11])[C:4]([H:12])([H:13])[O:5]1)([H:6])([H:7])[H:8]>>[C:1]([C:2]([C:4]([C:3]([H:9])([H:10])[H:11])([H:12])[H:13])=[O:5])([H:6])([H:7])[H:8]"
C       -1.39167973      -0.78868627       0.00566277
C       -0.26903438       0.08986279      -0.46504617
C        1.38136100      -0.33349077       0.03507184
C        0.14751178       1.30927994       0.21302552
O       -0.28040061       0.72732092      -1.59489275
H       -1.56093933      -0.78116198       1.08407579
H       -2.31650144      -0.47810713      -0.47832436
H       -1.13965104      -1.81320534      -0.27562200
H        1.32662551      -0.85718427       0.99067335
H        2.26054609       0.31025512       0.03738941
H        1.60895436      -1.07157235      -0.73553074
H       -0.24142021       2.28523136      -0.06179634
H        0.47462799       1.40145798       1.24531369
13
Frame=11 idx=000290 GeodesicLength=0.7843468668411275 rxn_smarts="[C:1]([C:2]1([C:3]([H:9])([H:10])[H:11])[C:4]([H:12])([H:13])[O:5]1)([H:6])([H:7])[H:8]>>[C:1]([C:2]([C:4]([C:3]([H:9])([H:10])[H:11])([H:12])[H:13])=[O:5])([H:6])([H:7])[H:8]"
C       -1.40252092      -0.78585945       0.00893239
C       -0.27600406       0.07948405      -0.47103204
C        1.39377350      -0.32739970       0.03269183
C        0.16295080       1.29661188       0.19683663
O       -0.30085011       0.74228896      -1.58641010
H       -1.59111026      -0.74866282       1.08350651
H       -2.32087916      -0.49312974      -0.49781857
H       -1.14087076      -1.81775605      -0.23435277
H        1.33351472      -0.88004790       0.97178069
H        2.27694611       0.31039077       0.06577760
H        1.63567996      -1.04454211      -0.75369065
H       -0.24026617       2.27429553      -0.05160063
H        0.46963634       1.39432656       1.23537912
13
Frame=12 idx=000290 GeodesicLength=0.8547394070030033 rxn_smarts="[C:1]([C:2]1([C:3]([H:9])([H:10])[H:11])[C:4]([H:12])([H:13])[O:5]1)([H:6])([H:7])[H:8]>>[C:1]([C:2]([C:4]([C:3]([H:9])([H:10])[H:11])([H:12])[H:13])=[O:5])([H:6])([H:7])[H:8]"
C       -1.41336809      -0.78298926       0.01226866
C       -0.28309404       0.06909735      -0.47708598
C        1.40622550      -0.32125588       0.03038569
C        0.17765536       1.28362405       0.18086715
O       -0.32153242       0.75693665      -1.57733309
H       -1.62150292      -0.71566456       1.08174807
H       -2.32481049      -0.50947749      -0.51707180
H       -1.14232733      -1.82102321      -0.19179985
H        1.34069149      -0.90331860       0.95146102
H        2.29251211       0.31012980       0.09511280
H        1.66257817      -1.01598320      -0.77187569
H       -0.23765205       2.26307867      -0.04174446
H        0.46462473       1.38684568       1.22506748
13
Frame=13 idx=000290 GeodesicLength=0.9250589081921545 rxn_smarts="[C:1]([C:2]1([C:3]([H:9])([H:10])[H:11])[C:4]([H:12])([H:13])[O:5]1)([H:6])([H:7])[H:8]>>[C:1]([C:2]([C:4]([C:3]([H:9])([H:10])[H:11])([H:12])[H:13])=[O:5])([H:6])([H:7])[H:8]"
C       -1.42430427      -0.78008750       0.01568363
C       -0.29032850       0.05869512      -0.48321196
C        1.41877854      -0.31507234       0.02815672
C        0.19168727       1.27036541       0.16514352
O       -0.34242593       0.77124434      -1.56768339
H       -1.65228184      -0.68214564       1.07877009
H       -2.32838011      -0.52721942      -0.53604792
H       -1.14405909      -1.82291818      -0.14795861
H        1.34825642      -0.92700211       0.92961570
H        2.30728097       0.30945619       0.12539490
H        1.68974886      -0.98583905      -0.79005296
H       -0.23365839       2.25153413      -0.03229110
H        0.45968609       1.37898904       1.21448138
13
Frame=14 idx=000290 GeodesicLength=0.9952889046096687 rxn_smarts="[C:1]([C:2]1([C:3]([H:9])([H:10])[H:11])[C:4]([H:12])([H:13])[O:5]1)([H:6])([H:7])[H:8]>>[C:1]([C:2]([C:4]([C:3]([H:9])([H:10])[H:11])([H:12])[H:13])=[O:5])([H:6])([H:7])[H:8]"
C       -1.43515554      -0.77711104       0.01921407
C       -0.29769058       0.04827420      -0.48935806
C        1.43126199      -0.30891574       0.02600985
C        0.20501964       1.25677838       0.14960347
O       -0.36349926       0.78526723      -1.55726663
H       -1.68331171      -0.64796164       1.07436236
H       -2.33120900      -0.54647297      -0.55473728
H       -1.14591555      -1.82329175      -0.10255967
H        1.35611382      -0.95128424       0.90594295
H        2.32091357       0.30818176       0.15667995
H        1.71703192      -0.95390403      -0.80813953
H       -0.22831401       2.23977058      -0.02328393
H        0.45475470       1.37066924       1.20353243
13
Frame=15 idx=000290 GeodesicLength=1.0655295453883453 rxn_smarts="[C:1]([C:2]1([C:3]([H:9])([H:10])[H:11])[C:4]([H:12])([H:13])[O:5]1)([H:6])([H:7])[H:8]>>[C:1]([C:2]([C:4]([C:3]([H:9])([H:10])[H:11])([H:12])[H:13])=[O:5])([H:6])([H:7])[H:8]"
C       -1.44619259      -0.77412106       0.02285460
C       -0.30523164       0.03780376      -0.49559235
C        1.44390369      -0.30276925       0.02395420
C        0.21777491       1.24289494       0.13432582
O       -0.38472325       0.79894442      -1.54629993
H       -1.71493838      -0.61322121       1.06861009
H       -2.33365622      -0.56735681      -0.57313897
H       -1.14814505      -1.82205893      -0.05569205
H        1.36450435      -0.97600649       0.88048841
H        2.33374158       0.30632667       0.18886670
H        1.74467452      -0.92016953      -0.82613270
H       -0.22170242       2.22780213      -0.01473202
H        0.44999050       1.36193135       1.19248821
13
Frame=16 idx=000290 GeodesicLength=1.1356227920282351 rxn_smarts="[C:1]([C:2]1([C:3]([H:9])([H:10])[H:11])[C:4]([H:12])([H:13])[O:5]1)([H:6])([H:7])[H:8]>>[C:1]([C:2]([C:4]([C:3]([H:9])([H:10])[H:11])([H:12])[H:13])=[O:5])([H:6])([H:7])[H:8]"
C       -1.45709060      -0.77104669       0.02659116
C       -0.31290244       0.02731427      -0.50180683
C        1.45641247      -0.29673318       0.02201825
C        0.22988945       1.22867786       0.11927109
O       -0.40599583       0.81234684      -1.53444738
H       -1.74677596      -0.57806044       1.06119474
H       -2.33517499      -0.58967363      -0.59101885
H       -1.15045953      -1.81898903      -0.00742365
H        1.37322890      -1.00107298       0.85308849
H        2.34523286       0.30372219       0.22166990
H        1.77230180      -0.88479095      -0.84359839
H       -0.21396819       2.21563083      -0.00666184
H        0.44530204       1.35267491       1.18112332
