14
Frame=0 idx=002043 GeodesicLength=0.0 rxn_smarts="[C:1]1([H:7])([H:8])[C:2]([H:9])([H:10])[O:3][C:4]([H:11])([H:12])[O:5][C:6]1([H:13])[H:14]>>[C:1]([C:2]([O:3][H:12])([H:9])[H:10])([C:6]([O+:5]=[C-:4][H:11])([H:13])[H:14])([H:7])[H:8]"
C        0.94929028       0.57731530       0.17689990
C        1.06167675      -0.88856528      -0.25995054
O        0.08227511      -1.71661006       0.28586630
C       -1.76863558      -0.56444737       0.27059328
O       -1.44303452       0.63826613       0.58046763
C       -0.36553538       1.22572934      -0.20226709
H        1.08048095       0.65729414       1.25972252
H        1.75024991       1.15370752      -0.29516979
H        1.04291147      -0.91303665      -1.36526810
H        2.04902676      -1.26417041       0.03620464
H       -2.43803188      -0.97277547       1.03396450
H       -1.00197160      -1.30515549      -0.30665359
H       -0.39293810       2.28554306       0.04513911
H       -0.60576414       1.08690526      -1.25954882
14
Frame=1 idx=002043 GeodesicLength=0.04526635429202213 rxn_smarts="[C:1]1([H:7])([H:8])[C:2]([H:9])([H:10])[O:3][C:4]([H:11])([H:12])[O:5][C:6]1([H:13])[H:14]>>[C:1]([C:2]([O:3][H:12])([H:9])[H:10])([C:6]([O+:5]=[C-:4][H:11])([H:13])[H:14])([H:7])[H:8]"
C        0.94946651       0.57891543       0.17778890
C        1.06034257      -0.88659013      -0.25872225
O        0.07366458      -1.71097906       0.28193743
C       -1.75865709      -0.57063413       0.28201827
O       -1.44436356       0.64131407       0.57841530
C       -0.36600641       1.22610368      -0.20290989
H        1.07963224       0.65766417       1.26078748
H        1.75119498       1.15474418      -0.29354073
H        1.04466991      -0.91172098      -1.36381501
H        2.04345597      -1.26755586       0.04300758
H       -2.43141682      -0.97252021       1.04592240
H       -1.00413036      -1.31051191      -0.33236101
H       -0.39275110       2.28657209       0.04182474
H       -0.60510143       1.08519866      -1.26035321
14
Frame=2 idx=002043 GeodesicLength=0.09053861822129639 rxn_smarts="[C:1]1([H:7])([H:8])[C:2]([H:9])([H:10])[O:3][C:4]([H:11])([H:12])[O:5][C:6]1([H:13])[H:14]>>[C:1]([C:2]([O:3][H:12])([H:9])[H:10])([C:6]([O+:5]=[C-:4][H:11])([H:13])[H:14])([H:7])[H:8]"
C        0.94966112       0.58049357       0.17867089
C        1.05901763      -0.88461662      -0.25758507
O        0.06537792      -1.70546222       0.27815910
C       -1.74850632      -0.57676623       0.29315517
O       -1.44577242       0.64420131       0.57617160
C       -0.36646408       1.22647239      -0.20351138
H        1.07878070       0.65795450       1.26184777
H        1.75214434       1.15578448      -0.29190579
H        1.04604436      -0.91041664      -1.36243722
H        2.03796558      -1.27083740       0.04937351
H       -2.42518256      -0.97211193       1.05710271
H       -1.00614146      -1.31587336      -0.35659028
H       -0.39258813       2.28755237       0.03869990
H       -0.60433668       1.08362578      -1.26115091
14
Frame=3 idx=002043 GeodesicLength=0.1358097809060776 rxn_smarts="[C:1]1([H:7])([H:8])[C:2]([H:9])([H:10])[O:3][C:4]([H:11])([H:12])[O:5][C:6]1([H:13])[H:14]>>[C:1]([C:2]([O:3][H:12])([H:9])[H:10])([C:6]([O+:5]=[C-:4][H:11])([H:13])[H:14])([H:7])[H:8]"
C        0.94987640       0.58205306       0.17954214
C        1.05770431      -0.88264724      -0.25652289
O        0.05739127      -1.70004130       0.27455082
C       -1.73823632      -0.58280640       0.30400796
O       -1.44724229       0.64693416       0.57377652
C       -0.36691219       1.22683812      -0.20406661
H        1.07794910       0.65818606       1.26289820
H        1.75309454       1.15682394      -0.29028894
H        1.04706536      -0.90913641      -1.36112343
H        2.03255598      -1.27402605       0.05534413
H       -2.41929438      -0.97158091       1.06755345
H       -1.00801355      -1.32126868      -0.37950110
H       -0.39245392       2.28848932       0.03576526
H       -0.60348432       1.08218234      -1.26193551
14
Frame=4 idx=002043 GeodesicLength=0.18109110554048227 rxn_smarts="[C:1]1([H:7])([H:8])[C:2]([H:9])([H:10])[O:3][C:4]([H:11])([H:12])[O:5][C:6]1([H:13])[H:14]>>[C:1]([C:2]([O:3][H:12])([H:9])[H:10])([C:6]([O+:5]=[C-:4][H:11])([H:13])[H:14])([H:7])[H:8]"
C        0.95010610       0.58359483       0.18040856
C        1.05639885      -0.88068135      -0.25552698
O        0.04966562      -1.69471133       0.27108325
C       -1.72789536      -0.58873442       0.31460078
O       -1.44876372       0.64952787       0.57123958
C       -0.36735120       1.22720219      -0.20458679
H        1.07712412       0.65836097       1.26394474
H        1.75404826       1.15786270      -0.28867172
H        1.04777858      -0.90787131      -1.35986776
H        2.02721333      -1.27713216       0.06097086
H       -2.41365732      -0.97095286       1.07738776
H       -1.00977357      -1.32670873      -0.40125821
H       -0.39234414       2.28938986       0.03299134
H       -0.60254957       1.08085374      -1.26271540
14
Frame=5 idx=002043 GeodesicLength=0.22638091466283702 rxn_smarts="[C:1]1([H:7])([H:8])[C:2]([H:9])([H:10])[O:3][C:4]([H:11])([H:12])[O:5][C:6]1([H:13])[H:14]>>[C:1]([C:2]([O:3][H:12])([H:9])[H:10])([C:6]([O+:5]=[C-:4][H:11])([H:13])[H:14])([H:7])[H:8]"
C        0.95034279       0.58511742       0.18127535
C        1.05509672      -0.87871853      -0.25459099
O        0.04216642      -1.68946332       0.26772771
C       -1.71751712      -0.59452840       0.32495716
O       -1.45033213       0.65199692       0.56856900
C       -0.36778280       1.22756473      -0.20508274
H        1.07628798       0.65847459       1.26499419
H        1.75500539       1.15889935      -0.28703644
H        1.04822364      -0.90661544      -1.35866620
H        2.02192029      -1.28016696       0.06629726
H       -2.40818376      -0.97025371       1.08670337
H       -1.01143479      -1.33218941      -0.42199818
H       -0.39225770       2.29025838       0.03034923
H       -0.60153492       1.07962437      -1.26349872
14
Frame=6 idx=002043 GeodesicLength=0.2716725111982742 rxn_smarts="[C:1]1([H:7])([H:8])[C:2]([H:9])([H:10])[O:3][C:4]([H:11])([H:12])[O:5][C:6]1([H:13])[H:14]>>[C:1]([C:2]([O:3][H:12])([H:9])[H:10])([C:6]([O+:5]=[C-:4][H:11])([H:13])[H:14])([H:7])[H:8]"
C        0.95058841       0.58662506       0.18213946
C        1.05379870      -0.87675986      -0.25370340
O        0.03487683      -1.68428812       0.26449773
C       -1.70713391      -0.60017522       0.33507977
O       -1.45193105       0.65434461       0.56578912
C       -0.36820795       1.22792739      -0.20554916
H        1.07546059       0.65854681       1.26603939
H        1.75596237       1.15993233      -0.28540193
H        1.04841950      -0.90537451      -1.35750939
H        2.01667800      -1.28313488       0.07135169
H       -2.40285936      -0.96949712       1.09552549
H       -1.01300804      -1.33773780      -0.44182486
H       -0.39219216       2.29109801       0.02784319
H       -0.60045194       1.07849330      -1.26427711
14
Frame=7 idx=002043 GeodesicLength=0.31698569563989293 rxn_smarts="[C:1]1([H:7])([H:8])[C:2]([H:9])([H:10])[O:3][C:4]([H:11])([H:12])[O:5][C:6]1([H:13])[H:14]>>[C:1]([C:2]([O:3][H:12])([H:9])[H:10])([C:6]([O+:5]=[C-:4][H:11])([H:13])[H:14])([H:7])[H:8]"
C        0.95083640       0.58811656       0.18300380
C        1.05249875      -0.87480531      -0.25285953
O        0.02776211      -1.67918111       0.26135073
C       -1.69676641      -0.60566582       0.34498253
O       -1.45355957       0.65658556       0.56290926
C       -0.36862824       1.22829069      -0.20599397
H        1.07463142       0.65857477       1.26708385
H        1.75691669       1.16096041      -0.28375906
H        1.04840650      -0.90414258      -1.35638975
H        2.01146162      -1.28604574       0.07618142
H       -2.39761783      -0.96869799       1.10394924
H       -1.01448974      -1.34335156      -0.46085268
H       -0.39214678       2.29191320       0.02545011
H       -0.59930489       1.07744891      -1.26505596
14
Frame=8 idx=002043 GeodesicLength=0.3622986869951726 rxn_smarts="[C:1]1([H:7])([H:8])[C:2]([H:9])([H:10])[O:3][C:4]([H:11])([H:12])[O:5][C:6]1([H:13])[H:14]>>[C:1]([C:2]([O:3][H:12])([H:9])[H:10])([C:6]([O+:5]=[C-:4][H:11])([H:13])[H:14])([H:7])[H:8]"
C        0.95108909       0.58959418       0.18386703
C        1.05119999      -0.87285597      -0.25205127
O        0.02081233      -1.67413330       0.25830319
C       -1.68643810      -0.61099128       0.35467713
O       -1.45520589       0.65872316       0.55994797
C       -0.36904488       1.22865563      -0.20641483
H        1.07381221       0.65856958       1.26812516
H        1.75786783       1.16198273      -0.28211896
H        1.04819885      -0.90292331      -1.35530507
H        2.00627920      -1.28890364       0.08080062
H       -2.39245555      -0.96786700       1.11198639
H       -1.01589143      -1.34904539      -0.47915638
H       -0.39212132       2.29270622       0.02317049
H       -0.59810234       1.07648840      -1.26583149
14
Frame=9 idx=002043 GeodesicLength=0.40760956809865234 rxn_smarts="[C:1]1([H:7])([H:8])[C:2]([H:9])([H:10])[O:3][C:4]([H:11])([H:12])[O:5][C:6]1([H:13])[H:14]>>[C:1]([C:2]([O:3][H:12])([H:9])[H:10])([C:6]([O+:5]=[C-:4][H:11])([H:13])[H:14])([H:7])[H:8]"
C        0.95134762       0.59106002       0.18472686
C        1.04990088      -0.87091135      -0.25127268
O        0.01401493      -1.66913613       0.25535846
C       -1.67616234      -0.61614725       0.36417489
O       -1.45685928       0.66076210       0.55692411
C       -0.36945741       1.22902183      -0.20680928
H        1.07301275       0.65854064       1.26915847
H        1.75881432       1.16299871      -0.28049137
H        1.04780714      -0.90171813      -1.35424769
H        2.00112751      -1.29170864       0.08522222
H       -2.38737870      -0.96700940       1.11965126
H       -1.01720334      -1.35483643      -0.49680094
H       -0.39211196       2.29347755       0.02100329
H       -0.59685213       1.07560648      -1.26659759
14
Frame=10 idx=002043 GeodesicLength=0.45292765183945805 rxn_smarts="[C:1]1([H:7])([H:8])[C:2]([H:9])([H:10])[O:3][C:4]([H:11])([H:12])[O:5][C:6]1([H:13])[H:14]>>[C:1]([C:2]([O:3][H:12])([H:9])[H:10])([C:6]([O+:5]=[C-:4][H:11])([H:13])[H:14])([H:7])[H:8]"
C        0.95160413       0.59251197       0.18559037
C        1.04859822      -0.86897122      -0.25052363
O        0.00734527      -1.66418864       0.25248093
C       -1.66595113      -0.62113243       0.37348781
O       -1.45852843       0.66271813       0.55382824
C       -0.36986816       1.22939112      -0.20718865
H        1.07220940       0.65847816       1.27019450
H        1.75975859       1.16400652      -0.27885155
H        1.04726039      -0.90051851      -1.35321906
H        1.99599204      -1.29447065       0.08947578
H       -2.38231835      -0.96613139       1.12703955
H       -1.01843174      -1.36072184      -0.51387269
H       -0.39211742       2.29423296       0.01892462
H       -0.59555280       1.07479582      -1.26736623
14
Frame=11 idx=002043 GeodesicLength=0.49824554849556413 rxn_smarts="[C:1]1([H:7])([H:8])[C:2]([H:9])([H:10])[O:3][C:4]([H:11])([H:12])[O:5][C:6]1([H:13])[H:14]>>[C:1]([C:2]([O:3][H:12])([H:9])[H:10])([C:6]([O+:5]=[C-:4][H:11])([H:13])[H:14])([H:7])[H:8]"
C        0.95185988       0.59395205       0.18645549
C        1.04729204      -0.86703556      -0.24979895
O        0.00079484      -1.65928418       0.24967664
C       -1.65581459      -0.62594464       0.38262860
O       -1.46020428       0.66459493       0.55067576
C       -0.37027718       1.22976338      -0.20755002
H        1.07141152       0.65839046       1.27122891
H        1.76069807       1.16500631      -0.27721007
H        1.04656706      -0.89932611      -1.35221401
H        1.99087304      -1.29719108       0.09357028
H       -2.37728367      -0.96523554       1.13415558
H       -1.01957079      -1.36671563      -0.53042227
H       -0.39213505       2.29497288       0.01693577
H       -0.59421089       1.07405272      -1.26813172
14
Frame=12 idx=002043 GeodesicLength=0.5435598190193882 rxn_smarts="[C:1]1([H:7])([H:8])[C:2]([H:9])([H:10])[O:3][C:4]([H:11])([H:12])[O:5][C:6]1([H:13])[H:14]>>[C:1]([C:2]([O:3][H:12])([H:9])[H:10])([C:6]([O+:5]=[C-:4][H:11])([H:13])[H:14])([H:7])[H:8]"
C        0.95211638       0.59538169       0.18732060
C        1.04598284      -0.86510423      -0.24909489
O       -0.00564528      -1.65441665       0.24694647
C       -1.64575836      -0.63058355       0.39161006
O       -1.46188071       0.66639769       0.54748185
C       -0.37068495       1.23013851      -0.20789153
H        1.07062727       0.65828382       1.27225917
H        1.76163177       1.16599783      -0.27557571
H        1.04573747      -0.89814149      -1.35122915
H        1.98577058      -1.29987110       0.09751482
H       -2.37228849      -0.96432285       1.14100887
H       -1.02061244      -1.37283049      -0.54649681
H       -0.39216296       2.29569808       0.01503636
H       -0.59283312       1.07337276      -1.26889012
14
Frame=13 idx=002043 GeodesicLength=0.5888746153850357 rxn_smarts="[C:1]1([H:7])([H:8])[C:2]([H:9])([H:10])[O:3][C:4]([H:11])([H:12])[O:5][C:6]1([H:13])[H:14]>>[C:1]([C:2]([O:3][H:12])([H:9])[H:10])([C:6]([O+:5]=[C-:4][H:11])([H:13])[H:14])([H:7])[H:8]"
C        0.95236706       0.59679899       0.18819069
C        1.04466751      -0.86317725      -0.24841158
O       -0.01199490      -1.64958627       0.24425840
C       -1.63578931      -0.63504992       0.40044448
O       -1.46356344       0.66813679       0.54423765
C       -0.37109284       1.23051725      -0.20822158
H        1.06983742       0.65814921       1.27329221
H        1.76256059       1.16698059      -0.27392822
H        1.04479648      -0.89695773      -1.35026508
H        1.98067153      -1.30251796       0.10133387
H       -2.36727847      -0.96339458       1.14767433
H       -1.02156141      -1.37906085      -0.56216224
H       -0.39220108       2.29641218       0.01320635
H       -0.59141915       1.07274954      -1.26964929
14
Frame=14 idx=002043 GeodesicLength=0.634193933879072 rxn_smarts="[C:1]1([H:7])([H:8])[C:2]([H:9])([H:10])[O:3][C:4]([H:11])([H:12])[O:5][C:6]1([H:13])[H:14]>>[C:1]([C:2]([O:3][H:12])([H:9])[H:10])([C:6]([O+:5]=[C-:4][H:11])([H:13])[H:14])([H:7])[H:8]"
C        0.95260621       0.59820193       0.18907126
C        1.04334297      -0.86125454      -0.24774950
O       -0.01827191      -1.64479345       0.24158355
C       -1.62591209      -0.63934492       0.40914370
O       -1.46525770       0.66982054       0.54093484
C       -0.37150197       1.23089865      -0.20854843
H        1.06902494       0.65798016       1.27433489
H        1.76348417       1.16795556      -0.27224899
H        1.04376728      -0.89576605      -1.34932263
H        1.97556384      -1.30513803       0.10504674
H       -2.36220873      -0.96244830       1.15421992
H       -1.02242127      -1.38540347      -0.57747736
H       -0.39224776       2.29711619       0.01142881
H       -0.58996797       1.07217571      -1.27041681
14
Frame=15 idx=002043 GeodesicLength=0.6795139168774146 rxn_smarts="[C:1]1([H:7])([H:8])[C:2]([H:9])([H:10])[O:3][C:4]([H:11])([H:12])[O:5][C:6]1([H:13])[H:14]>>[C:1]([C:2]([O:3][H:12])([H:9])[H:10])([C:6]([O+:5]=[C-:4][H:11])([H:13])[H:14])([H:7])[H:8]"
C        0.95283504       0.59959191       0.18996065
C        1.04200997      -0.85933584      -0.24710654
O       -0.02448149      -1.64003315       0.23892299
C       -1.61612694      -0.64347047       0.41772198
O       -1.46695920       0.67145250       0.53758370
C       -0.37191271       1.23128309      -0.20886996
H        1.06819476       0.65778026       1.27538488
H        1.76440209       1.16892249      -0.27054440
H        1.04265617      -0.89456722      -1.34839987
H        1.97044824      -1.30773239       0.10865739
H       -2.35709548      -0.96148107       1.16064889
H       -1.02318372      -1.39186949      -0.59247488
H       -0.39230243       2.29781125       0.00970413
H       -0.58848431       1.07164811      -1.27118897
14
Frame=16 idx=002043 GeodesicLength=0.7248319699149762 rxn_smarts="[C:1]1([H:7])([H:8])[C:2]([H:9])([H:10])[O:3][C:4]([H:11])([H:12])[O:5][C:6]1([H:13])[H:14]>>[C:1]([C:2]([O:3][H:12])([H:9])[H:10])([C:6]([O+:5]=[C-:4][H:11])([H:13])[H:14])([H:7])[H:8]"
C        0.95305460       0.60096998       0.19085720
C        1.04066935      -0.85742067      -0.24648132
O       -0.03062846      -1.63530062       0.23627624
C       -1.60643189      -0.64742882       0.42619477
O       -1.46866443       0.67303637       0.53419395
C       -0.37232544       1.23167046      -0.20918422
H        1.06735069       0.65755218       1.27644002
H        1.76531403       1.16988086      -0.26882022
H        1.04146983      -0.89336113      -1.34749554
H        1.96532532      -1.31030160       0.11216901
H       -2.35195697      -0.96048869       1.16696459
H       -1.02383961      -1.39846889      -0.60718465
H       -0.39236462       2.29849765       0.00803231
H       -0.58697239       1.07116291      -1.27196214
