14
Frame=0 idx=007118 GeodesicLength=0.0 rxn_smarts="[N:1](=[C:2]1\[O:3][C:4]([H:9])([H:10])[C@@:5]2([H:11])[C:6]([H:12])([H:13])[C@@:7]12[H:14])\[H:8]>>[C:5]1([H:11])=[C:7]([H:14])[C:6]1([H:12])[H:13].[N:1](=[C:2])[H:8].[O:3]=[C:4]([H:9])[H:10]"
N        2.07764055      -1.86900015       0.46956496
C        1.24361399      -1.06239031       0.38484458
O        1.52159419       0.86124544      -0.76419639
C        0.62962447       1.67025815      -0.51684145
C       -1.13913411       0.65925750       0.37189803
C       -1.43487219      -0.47980976      -0.54306303
C       -0.76435646      -0.55407536       0.78120201
H        2.92353511      -2.38877385       0.39172881
H       -0.07526898       1.98463202      -1.30036336
H        0.69242646       2.32418644       0.36710550
H       -1.63091104       1.52015941       0.78808673
H       -0.81433718      -0.58591277      -1.43591348
H       -2.43774545      -0.89164001      -0.64402471
H       -0.79180940      -1.18813673       1.64997179
14
Frame=1 idx=007118 GeodesicLength=0.06278783756432427 rxn_smarts="[N:1](=[C:2]1\[O:3][C:4]([H:9])([H:10])[C@@:5]2([H:11])[C:6]([H:12])([H:13])[C@@:7]12[H:14])\[H:8]>>[C:5]1([H:11])=[C:7]([H:14])[C:6]1([H:12])[H:13].[N:1](=[C:2])[H:8].[O:3]=[C:4]([H:9])[H:10]"
N        2.05897296      -1.88000226       0.45151513
C        1.24361139      -1.04750779       0.47311396
O        1.54125714       0.83206220      -0.71966018
C        0.64159267       1.65068171      -0.50991384
C       -1.14732985       0.66520405       0.36424008
C       -1.43283320      -0.48695652      -0.53776193
C       -0.77692134      -0.54571982       0.79578591
H        2.93458329      -2.32191203       0.27036868
H       -0.02498391       1.97019176      -1.32375974
H        0.68595265       2.31376146       0.36786687
H       -1.65472124       1.52500852       0.76419738
H       -0.80285401      -0.60742024      -1.42171869
H       -2.43615948      -0.89579607      -0.64369124
H       -0.83016709      -1.17159498       1.66941761
14
Frame=2 idx=007118 GeodesicLength=0.12921695075262363 rxn_smarts="[N:1](=[C:2]1\[O:3][C:4]([H:9])([H:10])[C@@:5]2([H:11])[C:6]([H:12])([H:13])[C@@:7]12[H:14])\[H:8]>>[C:5]1([H:11])=[C:7]([H:14])[C:6]1([H:12])[H:13].[N:1](=[C:2])[H:8].[O:3]=[C:4]([H:9])[H:10]"
N        2.03756100      -1.88560438       0.43092717
C        1.24444508      -1.03644561       0.55028300
O        1.55916634       0.80234114      -0.68120654
C        0.65384957       1.62994800      -0.50438141
C       -1.15233631       0.66892063       0.35819309
C       -1.43184439      -0.49352510      -0.53273342
C       -0.78600543      -0.54078109       0.80737161
H        2.93393377      -2.24324550       0.17022680
H        0.02510650       1.95669878      -1.34453586
H        0.68350799       2.30014175       0.36815764
H       -1.67324757       1.52658883       0.74578443
H       -0.79591361      -0.62623721      -1.41022780
H       -2.43642495      -0.89791110      -0.64143468
H       -0.86179798      -1.16088914       1.68357597
14
Frame=3 idx=007118 GeodesicLength=0.19671917442297165 rxn_smarts="[N:1](=[C:2]1\[O:3][C:4]([H:9])([H:10])[C@@:5]2([H:11])[C:6]([H:12])([H:13])[C@@:7]12[H:14])\[H:8]>>[C:5]1([H:11])=[C:7]([H:14])[C:6]1([H:12])[H:13].[N:1](=[C:2])[H:8].[O:3]=[C:4]([H:9])[H:10]"
N        2.02453414      -1.87912215       0.42747556
C        1.24699526      -1.02568659       0.62069477
O        1.57645199       0.77491631      -0.64490269
C        0.66548454       1.60987138      -0.49949610
C       -1.15556507       0.67081016       0.35252997
C       -1.43018060      -0.50057806      -0.52849275
C       -0.79179482      -0.53798627       0.81667993
H        2.91159439      -2.17033321       0.06735131
H        0.07513240       1.94383007      -1.36385988
H        0.68112678       2.28661890       0.36789725
H       -1.69002233       1.52515932       0.72953363
H       -0.79021777      -0.64314009      -1.40107092
H       -2.43589644      -0.90106806      -0.63877291
H       -0.88764245      -1.15329172       1.69443281
14
Frame=4 idx=007118 GeodesicLength=0.26611016975067087 rxn_smarts="[N:1](=[C:2]1\[O:3][C:4]([H:9])([H:10])[C@@:5]2([H:11])[C:6]([H:12])([H:13])[C@@:7]12[H:14])\[H:8]>>[C:5]1([H:11])=[C:7]([H:14])[C:6]1([H:12])[H:13].[N:1](=[C:2])[H:8].[O:3]=[C:4]([H:9])[H:10]"
N        2.01007231      -1.87293488       0.41863945
C        1.24978031      -1.01842169       0.68036796
O        1.59242010       0.74834095      -0.61258184
C        0.67650880       1.58981766      -0.49590079
C       -1.15719886       0.67178602       0.34817300
C       -1.43017291      -0.50653662      -0.52443770
C       -0.79513365      -0.53708859       0.82370108
H        2.88722773      -2.09272265      -0.01393958
H        0.12456250       1.93199685      -1.38173837
H        0.68028077       2.27229285       0.36669985
H       -1.70399704       1.52203681       0.71738579
H       -0.78902134      -0.65696916      -1.39440006
H       -2.43736010      -0.90283916      -0.63406636
H       -0.90796861      -1.14875838       1.70209757
14
Frame=5 idx=007118 GeodesicLength=0.336932147255047 rxn_smarts="[N:1](=[C:2]1\[O:3][C:4]([H:9])([H:10])[C@@:5]2([H:11])[C:6]([H:12])([H:13])[C@@:7]12[H:14])\[H:8]>>[C:5]1([H:11])=[C:7]([H:14])[C:6]1([H:12])[H:13].[N:1](=[C:2])[H:8].[O:3]=[C:4]([H:9])[H:10]"
N        1.99755463      -1.86422095       0.41269475
C        1.25381960      -1.01169791       0.73437897
O        1.60780812       0.72399475      -0.58173335
C        0.68672787       1.57067620      -0.49297313
C       -1.15790528       0.67194652       0.34427779
C       -1.43002590      -0.51245171      -0.52072900
C       -0.79620565      -0.53726720       0.82932453
H        2.85400302      -2.01785710      -0.08851687
H        0.17390105       1.92098958      -1.39853621
H        0.67908105       2.25862634       0.36482857
H       -1.71712909       1.51724579       0.70695905
H       -0.78911270      -0.66906006      -1.38936225
H       -2.43853832      -0.90517936      -0.62862500
H       -0.92397841      -1.14574488       1.70801215
14
Frame=6 idx=007118 GeodesicLength=0.40853334485456666 rxn_smarts="[N:1](=[C:2]1\[O:3][C:4]([H:9])([H:10])[C@@:5]2([H:11])[C:6]([H:12])([H:13])[C@@:7]12[H:14])\[H:8]>>[C:5]1([H:11])=[C:7]([H:14])[C:6]1([H:12])[H:13].[N:1](=[C:2])[H:8].[O:3]=[C:4]([H:9])[H:10]"
N        1.98748864      -1.85370717       0.40907676
C        1.25890494      -1.00536560       0.78277123
O        1.62225892       0.70152120      -0.55315685
C        0.69598167       1.55238921      -0.49103090
C       -1.15793422       0.67149173       0.34095430
C       -1.43030814      -0.51793208      -0.51746154
C       -0.79541642      -0.53853236       0.83339704
H        2.81537047      -1.94635282      -0.15468849
H        0.22273471       1.91122812      -1.41427987
H        0.67779394       2.24521671       0.36227992
H       -1.72932119       1.51104816       0.69879785
H       -0.79111418      -0.67920069      -1.38610011
H       -2.44015545      -0.90731225      -0.62250444
H       -0.93628369      -1.14449215       1.71194510
14
Frame=7 idx=007118 GeodesicLength=0.4807515416544075 rxn_smarts="[N:1](=[C:2]1\[O:3][C:4]([H:9])([H:10])[C@@:5]2([H:11])[C:6]([H:12])([H:13])[C@@:7]12[H:14])\[H:8]>>[C:5]1([H:11])=[C:7]([H:14])[C:6]1([H:12])[H:13].[N:1](=[C:2])[H:8].[O:3]=[C:4]([H:9])[H:10]"
N        1.97968540      -1.84208454       0.40697209
C        1.26485031      -0.99938221       0.82626555
O        1.63586485       0.68082173      -0.52646833
C        0.70427658       1.53491997      -0.49003755
C       -1.15752255       0.67059279       0.33813316
C       -1.43109188      -0.52295795      -0.51458610
C       -0.79310592      -0.54067779       0.83610797
H        2.77309283      -1.87836323      -0.21305827
H        0.27120314       1.90261938      -1.42906451
H        0.67625782       2.23215891       0.35902722
H       -1.74083891       1.50371208       0.69261385
H       -0.79489010      -0.68758066      -1.38438852
H       -2.44227643      -0.90918523      -0.61578067
H       -0.94550515      -1.14459325       1.71426414
14
Frame=8 idx=007118 GeodesicLength=0.553451814115037 rxn_smarts="[N:1](=[C:2]1\[O:3][C:4]([H:9])([H:10])[C@@:5]2([H:11])[C:6]([H:12])([H:13])[C@@:7]12[H:14])\[H:8]>>[C:5]1([H:11])=[C:7]([H:14])[C:6]1([H:12])[H:13].[N:1](=[C:2])[H:8].[O:3]=[C:4]([H:9])[H:10]"
N        1.97342851      -1.82997199       0.40519684
C        1.27151467      -0.99376226       0.86543261
O        1.64874026       0.66187796      -0.50124011
C        0.71163282       1.51825076      -0.48993283
C       -1.15686159       0.66940177       0.33573668
C       -1.43236637      -0.52756463      -0.51200822
C       -0.78954561      -0.54346859       0.83768604
H        2.72881093      -1.81392885      -0.26398543
H        0.31946580       1.89505368      -1.44293688
H        0.67429707       2.21958602       0.35503544
H       -1.75193645       1.49546579       0.68807306
H       -0.80023009      -0.69442881      -1.38394964
H       -2.44484849      -0.91089080      -0.60846810
H       -0.95210146      -1.14562005       1.71536054
14
Frame=9 idx=007118 GeodesicLength=0.6265328192801001 rxn_smarts="[N:1](=[C:2]1\[O:3][C:4]([H:9])([H:10])[C@@:5]2([H:11])[C:6]([H:12])([H:13])[C@@:7]12[H:14])\[H:8]>>[C:5]1([H:11])=[C:7]([H:14])[C:6]1([H:12])[H:13].[N:1](=[C:2])[H:8].[O:3]=[C:4]([H:9])[H:10]"
N        1.96805595      -1.81779520       0.40293879
C        1.27875572      -0.98857769       0.90077327
O        1.66100631       0.64466246      -0.47702903
C        0.71810343       1.50233240      -0.49064506
C       -1.15609962       0.66803799       0.33367872
C       -1.43409087      -0.53181501      -0.50963314
C       -0.78497692      -0.54669262       0.83835097
H        2.68375678      -1.75291237      -0.30813655
H        0.36771495       1.88838835      -1.45589475
H        0.67177232       2.20760049       0.35026541
H       -1.76282085       1.48649938       0.68482552
H       -0.80690702      -0.69999285      -1.38450679
H       -2.44778725      -0.91255408      -0.60057981
H       -0.95648294      -1.14718125       1.71559247
14
Frame=10 idx=007118 GeodesicLength=0.699819688370746 rxn_smarts="[N:1](=[C:2]1\[O:3][C:4]([H:9])([H:10])[C@@:5]2([H:11])[C:6]([H:12])([H:13])[C@@:7]12[H:14])\[H:8]>>[C:5]1([H:11])=[C:7]([H:14])[C:6]1([H:12])[H:13].[N:1](=[C:2])[H:8].[O:3]=[C:4]([H:9])[H:10]"
N        1.96328538      -1.80575177       0.39990134
C        1.28641198      -0.98389154       0.93263411
O        1.67266202       0.62899375      -0.45373040
C        0.72372543       1.48704447      -0.49220625
C       -1.15534478       0.66658788       0.33192778
C       -1.43636141      -0.53568589      -0.50741490
C       -0.77964043      -0.55025096       0.83819980
H        2.63924053      -1.69505443      -0.34591220
H        0.41601738       1.88254690      -1.46791395
H        0.66870783       2.19611713       0.34467035
H       -1.77353359       1.47697101       0.68277714
H       -0.81492310      -0.70442339      -1.38589594
H       -2.45120257      -0.91407415      -0.59213398
H       -0.95904467      -1.14912899       1.71509710
14
Frame=11 idx=007118 GeodesicLength=0.7732270312439657 rxn_smarts="[N:1](=[C:2]1\[O:3][C:4]([H:9])([H:10])[C@@:5]2([H:11])[C:6]([H:12])([H:13])[C@@:7]12[H:14])\[H:8]>>[C:5]1([H:11])=[C:7]([H:14])[C:6]1([H:12])[H:13].[N:1](=[C:2])[H:8].[O:3]=[C:4]([H:9])[H:10]"
N        1.95863179      -1.79405437       0.39571187
C        1.29435921      -0.97978266       0.96137466
O        1.68376829       0.61478149      -0.43107272
C        0.72856565       1.47229414      -0.49459160
C       -1.15468260       0.66512649       0.33041750
C       -1.43916008      -0.53922604      -0.50528087
C       -0.77372873      -0.55400276       0.83738770
H        2.59612852      -1.64001938      -0.37796694
H        0.46450599       1.87740810      -1.47893698
H        0.66506522       2.18513393       0.33820418
H       -1.78416525       1.46701741       0.68169884
H       -0.82413428      -0.70792892      -1.38790401
H       -2.45505222      -0.91551821      -0.58313698
H       -0.96010150      -1.15122922       1.71409536
14
Frame=12 idx=007118 GeodesicLength=0.846720101717181 rxn_smarts="[N:1](=[C:2]1\[O:3][C:4]([H:9])([H:10])[C@@:5]2([H:11])[C:6]([H:12])([H:13])[C@@:7]12[H:14])\[H:8]>>[C:5]1([H:11])=[C:7]([H:14])[C:6]1([H:12])[H:13].[N:1](=[C:2])[H:8].[O:3]=[C:4]([H:9])[H:10]"
N        1.95390499      -1.78270147       0.39048815
C        1.30255914      -0.97615211       0.98744929
O        1.69438083       0.60196385      -0.40885049
C        0.73270599       1.45801709      -0.49777868
C       -1.15415599       0.66368582       0.32907183
C       -1.44239464      -0.54251045      -0.50319963
C       -0.76736123      -0.55785248       0.83602902
H        2.55446262      -1.58765815      -0.40529093
H        0.51328359       1.87291693      -1.48886088
H        0.66082853       2.17462211       0.33085898
H       -1.79477567       1.45670442       0.68139145
H       -0.83433121      -0.71069712      -1.39037545
H       -2.45921651      -0.91698789      -0.57365472
H       -0.95989045      -1.15335053       1.71272204
14
Frame=13 idx=007118 GeodesicLength=0.9203027382364838 rxn_smarts="[N:1](=[C:2]1\[O:3][C:4]([H:9])([H:10])[C@@:5]2([H:11])[C:6]([H:12])([H:13])[C@@:7]12[H:14])\[H:8]>>[C:5]1([H:11])=[C:7]([H:14])[C:6]1([H:12])[H:13].[N:1](=[C:2])[H:8].[O:3]=[C:4]([H:9])[H:10]"
N        1.94915991      -1.77157486       0.38459158
C        1.31100870      -0.97283011       1.01130779
O        1.70453942       0.59046566      -0.38694775
C        0.73623641       1.44414884      -0.50176633
C       -1.15377222       0.66226885       0.32782654
C       -1.44597464      -0.54560274      -0.50117232
C       -0.76060869      -0.56175848       0.83418161
H        2.51387709      -1.53787319      -0.42884800
H        0.56240847       1.86905242      -1.49756463
H        0.65602182       2.16451562       0.32263564
H       -1.80536942       1.44605627       0.68172871
H       -0.84534383      -0.71286396      -1.39322325
H       -2.46359073      -0.91854586      -0.56377196
H       -0.95859230      -1.15545845       1.71102236
14
Frame=14 idx=007118 GeodesicLength=0.993972731872109 rxn_smarts="[N:1](=[C:2]1\[O:3][C:4]([H:9])([H:10])[C@@:5]2([H:11])[C:6]([H:12])([H:13])[C@@:7]12[H:14])\[H:8]>>[C:5]1([H:11])=[C:7]([H:14])[C:6]1([H:12])[H:13].[N:1](=[C:2])[H:8].[O:3]=[C:4]([H:9])[H:10]"
N        1.94454123      -1.76054991       0.37837816
C        1.31969214      -0.96966274       1.03330336
O        1.71424119       0.58015575      -0.36538237
C        0.73923340       1.43060189      -0.50659943
C       -1.15352314       0.66087169       0.32664639
C       -1.44988307      -0.54852057      -0.49921621
C       -0.75353243      -0.56572473       0.83184620
H        2.47417548      -1.49050779      -0.44924286
H        0.61187465       1.86581026      -1.50494126
H        0.65071941       2.15469634       0.31351863
H       -1.81588764       1.43509208       0.68269833
H       -0.85712899      -0.71449873      -1.39641865
H       -2.46816533      -0.92016043      -0.55354918
H       -0.95635690      -1.15760311       1.70895889
14
Frame=15 idx=007118 GeodesicLength=1.067756170922322 rxn_smarts="[N:1](=[C:2]1\[O:3][C:4]([H:9])([H:10])[C@@:5]2([H:11])[C:6]([H:12])([H:13])[C@@:7]12[H:14])\[H:8]>>[C:5]1([H:11])=[C:7]([H:14])[C:6]1([H:12])[H:13].[N:1](=[C:2])[H:8].[O:3]=[C:4]([H:9])[H:10]"
N        1.94025639      -1.74948341       0.37224622
C        1.32861376      -0.96645954       1.05377812
O        1.72348355       0.57090532      -0.34421396
C        0.74177723       1.41729884      -0.51232839
C       -1.15338204       0.65948011       0.32550032
C       -1.45409976      -0.55127534      -0.49736252
C       -0.74616170      -0.56977536       0.82899474
H        2.43500082      -1.44544557      -0.46699239
H        0.66163583       1.86319916      -1.51088181
H        0.64500772       2.14504048       0.30350288
H       -1.82625124       1.42381336       0.68431474
H       -0.86966344      -0.71563458      -1.39996787
H       -2.47292820      -0.92179488      -0.54304651
H       -0.95328892      -1.15986858       1.70645643
14
Frame=16 idx=007118 GeodesicLength=1.1416969044364427 rxn_smarts="[N:1](=[C:2]1\[O:3][C:4]([H:9])([H:10])[C@@:5]2([H:11])[C:6]([H:12])([H:13])[C@@:7]12[H:14])\[H:8]>>[C:5]1([H:11])=[C:7]([H:14])[C:6]1([H:12])[H:13].[N:1](=[C:2])[H:8].[O:3]=[C:4]([H:9])[H:10]"
N        1.93656069      -1.73822411       0.36661331
C        1.33778762      -0.96300189       1.07305523
O        1.73226212       0.56258267      -0.32354816
C        0.74394552       1.40416828      -0.51901509
C       -1.15330728       0.65807284       0.32436832
C       -1.45861734      -0.55386187      -0.49565540
C       -0.73850293      -0.57395752       0.82556640
H        2.39594270      -1.40260453      -0.48247822
H        0.71160523       1.86122916      -1.51529246
H        0.63898228       2.13542178       0.29258263
H       -1.83635514       1.41220810       0.68663966
H       -0.88296280      -0.71626047      -1.40391112
H       -2.47788329      -0.92338937      -0.53231931
H       -0.94945736      -1.16238308       1.70339420
