15
Frame=0 idx=006710 GeodesicLength=0.0 rxn_smarts="[O:1]([C:2]([C@@:3]1([H:11])[O:4][C@@:5]2([H:12])[C:6]([H:13])([H:14])[C@@:7]12[H:15])([H:9])[H:10])[H:8]>>[O:1]([C:2](/[C:3](=[C:7](\[C@@:5]1([H:12])[O:4][C:6]1([H:13])[H:14])[H:15])[H:11])([H:9])[H:10])[H:8]"
O        2.54625412       0.67598207       0.52485295
C        1.67449588      -0.11818239      -0.25186579
C        0.40444673      -0.48766051       0.46745423
O       -0.49809054       0.67013200       0.68624473
C       -1.63435955      -0.23552079       0.28158407
C       -1.67590694       0.83765486      -0.72726192
C       -0.68187446      -1.24478105      -0.19561930
H        2.11170586       1.51227594       0.70387117
H        1.40789436       0.36794946      -1.19781886
H        2.20789258      -1.04082066      -0.49168528
H        0.62943795      -0.76957202       1.50847247
H       -2.41848997      -0.32144462       1.03757713
H       -1.86302095       1.86529182      -0.43593002
H       -1.38290013       0.60337029      -1.73855599
H       -0.82748496      -2.31467436      -0.17131965
15
Frame=1 idx=006710 GeodesicLength=0.09878520790922998 rxn_smarts="[O:1]([C:2]([C@@:3]1([H:11])[O:4][C@@:5]2([H:12])[C:6]([H:13])([H:14])[C@@:7]12[H:15])([H:9])[H:10])[H:8]>>[O:1]([C:2](/[C:3](=[C:7](\[C@@:5]1([H:12])[O:4][C:6]1([H:13])[H:14])[H:15])[H:11])([H:9])[H:10])[H:8]"
O        2.52876312       0.70198905       0.52586480
C        1.68185535      -0.11975467      -0.24919411
C        0.41511784      -0.50729699       0.46611716
O       -0.49280505       0.67882875       0.69767732
C       -1.62975599      -0.22120098       0.30510067
C       -1.66145470       0.83127589      -0.72302538
C       -0.68786562      -1.22845313      -0.20015891
H        2.06670984       1.52385310       0.70411127
H        1.41804305       0.35129897      -1.20362296
H        2.23646259      -1.03366270      -0.47358790
H        0.64581613      -0.82383663       1.49525989
H       -2.41683546      -0.30545402       1.05648010
H       -1.83588718       1.86855881      -0.45951379
H       -1.41677752       0.57984096      -1.74306320
H       -0.85138640      -2.29598641      -0.19844497
15
Frame=2 idx=006710 GeodesicLength=0.1975659039871011 rxn_smarts="[O:1]([C:2]([C@@:3]1([H:11])[O:4][C@@:5]2([H:12])[C:6]([H:13])([H:14])[C@@:7]12[H:15])([H:9])[H:10])[H:8]>>[O:1]([C:2](/[C:3](=[C:7](\[C@@:5]1([H:12])[O:4][C:6]1([H:13])[H:14])[H:15])[H:11])([H:9])[H:10])[H:8]"
O        2.51130109       0.72617470       0.52784123
C        1.68945979      -0.12110720      -0.24623152
C        0.42578702      -0.52657586       0.46424734
O       -0.48779025       0.68874748       0.70816195
C       -1.62454950      -0.20669735       0.32786168
C       -1.64755239       0.82451343      -0.71943884
C       -0.69321988      -1.21190530      -0.20390446
H        2.02330976       1.53341099       0.70505619
H        1.42924926       0.33580037      -1.20859853
H        2.26468847      -1.02567910      -0.45585387
H        0.66200020      -0.87793099       1.48015355
H       -2.41461316      -0.28933065       1.07461849
H       -1.81019993       1.87038458      -0.48395185
H       -1.45315218       0.55650549      -1.74615823
H       -0.87471830      -2.27631059      -0.22380314
15
Frame=3 idx=006710 GeodesicLength=0.2963227541227806 rxn_smarts="[O:1]([C:2]([C@@:3]1([H:11])[O:4][C@@:5]2([H:12])[C:6]([H:13])([H:14])[C@@:7]12[H:15])([H:9])[H:10])[H:8]>>[O:1]([C:2](/[C:3](=[C:7](\[C@@:5]1([H:12])[O:4][C:6]1([H:13])[H:14])[H:15])[H:11])([H:9])[H:10])[H:8]"
O        2.49395988       0.74857996       0.53082375
C        1.69732495      -0.12228582      -0.24294137
C        0.43644098      -0.54549684       0.46184962
O       -0.48307741       0.69997182       0.71758496
C       -1.61877340      -0.19198246       0.34986636
C       -1.63429307       0.81736069      -0.71653067
C       -0.69793733      -1.19515107      -0.20694151
H        1.98154617       1.54111964       0.70665270
H        1.44154044       0.32137903      -1.21276940
H        2.29255713      -1.01701115      -0.43834541
H        0.67793747      -0.93190763       1.46307894
H       -2.41178780      -0.27306235       1.09205929
H       -1.78612958       1.87078896      -0.50925711
H       -1.49187475       0.53341694      -1.74763933
H       -0.89743368      -2.25571972      -0.24749082
15
Frame=4 idx=006710 GeodesicLength=0.3950370974710978 rxn_smarts="[O:1]([C:2]([C@@:3]1([H:11])[O:4][C@@:5]2([H:12])[C:6]([H:13])([H:14])[C@@:7]12[H:15])([H:9])[H:10])[H:8]>>[O:1]([C:2](/[C:3](=[C:7](\[C@@:5]1([H:12])[O:4][C:6]1([H:13])[H:14])[H:15])[H:11])([H:9])[H:10])[H:8]"
O        2.47681358       0.76924782       0.53484340
C        1.70545968      -0.12333369      -0.23929070
C        0.44706461      -0.56406475       0.45893117
O       -0.47870146       0.71258575       0.72583008
C       -1.61245775      -0.17702829       0.37111877
C       -1.62178063       0.80980791      -0.71431819
C       -0.70202396      -1.17820369      -0.20934434
H        1.94143773       1.54714122       0.70884277
H        1.45493751       0.30796284      -1.21615420
H        2.32005309      -1.00779052      -0.42093558
H        0.69358283      -0.98582139       1.44394493
H       -2.40832079      -0.25663901       1.10887858
H       -1.76385883       1.86978746      -0.53543310
H       -1.53270853       0.51063277      -1.74732109
H       -0.91949708      -2.23428445      -0.26959249
15
Frame=5 idx=006710 GeodesicLength=0.49369072477144244 rxn_smarts="[O:1]([C:2]([C@@:3]1([H:11])[O:4][C@@:5]2([H:12])[C:6]([H:13])([H:14])[C@@:7]12[H:15])([H:9])[H:10])[H:8]>>[O:1]([C:2](/[C:3](=[C:7](\[C@@:5]1([H:12])[O:4][C:6]1([H:13])[H:14])[H:15])[H:11])([H:9])[H:10])[H:8]"
O        2.45992341       0.78821969       0.53993490
C        1.71386805      -0.12428852      -0.23524734
C        0.45764307      -0.58229079       0.45550122
O       -0.47469523       0.72667341       0.73277789
C       -1.60562566      -0.16180423       0.39162575
C       -1.61011809       0.80184719      -0.71281086
C       -0.70549162      -1.16107507      -0.21118002
H        1.90299422       1.55162967       0.71157734
H        1.46945684       0.29549436      -1.21876199
H        2.34715617      -0.99813762      -0.40351153
H        0.70889443      -1.03973167       1.42264307
H       -2.40416434      -0.24004942       1.12515826
H       -1.74356498       1.86739713      -0.56248326
H       -1.57539491       0.48818931      -1.74504367
H       -0.94088135      -2.21207345      -0.29017974
15
Frame=6 idx=006710 GeodesicLength=0.5922826509161432 rxn_smarts="[O:1]([C:2]([C@@:3]1([H:11])[O:4][C@@:5]2([H:12])[C:6]([H:13])([H:14])[C@@:7]12[H:15])([H:9])[H:10])[H:8]>>[O:1]([C:2](/[C:3](=[C:7](\[C@@:5]1([H:12])[O:4][C:6]1([H:13])[H:14])[H:15])[H:11])([H:9])[H:10])[H:8]"
O        2.44333572       0.80553356       0.54611459
C        1.72255025      -0.12518643      -0.23079209
C        0.46816253      -0.60019514       0.45157296
O       -0.47110652       0.74231507       0.73831561
C       -1.59830947      -0.14627610       0.41141192
C       -1.59944267       0.79346806      -0.71199930
C       -0.70835981      -1.14378094      -0.21249181
H        1.86619015       1.55471873       0.71481735
H        1.48510157       0.28391979      -1.22061160
H        2.37386329      -0.98816277      -0.38598790
H        0.72385555      -1.09369787       1.39904893
H       -2.39928625      -0.22327633       1.14101202
H       -1.72545859       1.86363068      -0.59039737
H       -1.61951686       0.46614559      -1.74072017
H       -0.96157889      -2.18915589      -0.30929314
15
Frame=7 idx=006710 GeodesicLength=0.6908069630572053 rxn_smarts="[O:1]([C:2]([C@@:3]1([H:11])[O:4][C@@:5]2([H:12])[C:6]([H:13])([H:14])[C@@:7]12[H:15])([H:9])[H:10])[H:8]>>[O:1]([C:2](/[C:3](=[C:7](\[C@@:5]1([H:12])[O:4][C:6]1([H:13])[H:14])[H:15])[H:11])([H:9])[H:10])[H:8]"
O        2.42709798       0.82123074       0.55348027
C        1.73152005      -0.12604147      -0.22586089
C        0.47861195      -0.61779507       0.44713715
O       -0.46794745       0.75959348       0.74230106
C       -1.59049881      -0.13039139       0.43045654
C       -1.58978106       0.78468461      -0.71188179
C       -0.71065409      -1.12630052      -0.21336387
H        1.83107408       1.55656022       0.71847428
H        1.50191947       0.27322596      -1.22164419
H        2.40014571      -0.97793654      -0.36820752
H        0.73838436      -1.14783710       1.37295191
H       -2.39359163      -0.20629594       1.15647509
H       -1.70965769       1.85849968      -0.61916767
H       -1.66502823       0.44437233      -1.73415785
H       -0.98159466      -2.16556901      -0.32699252
15
Frame=8 idx=006710 GeodesicLength=0.7891785914227484 rxn_smarts="[O:1]([C:2]([C@@:3]1([H:11])[O:4][C@@:5]2([H:12])[C:6]([H:13])([H:14])[C@@:7]12[H:15])([H:9])[H:10])[H:8]>>[O:1]([C:2](/[C:3](=[C:7](\[C@@:5]1([H:12])[O:4][C:6]1([H:13])[H:14])[H:15])[H:11])([H:9])[H:10])[H:8]"
O        2.41112433       0.83534442       0.56193695
C        1.74064264      -0.12687950      -0.22050093
C        0.48895676      -0.63513077       0.44222541
O       -0.46523811       0.77856272       0.74466829
C       -1.58218721      -0.11412412       0.44882936
C       -1.58126014       0.77544790      -0.71238347
C       -0.71239370      -1.10871257      -0.21373603
H        1.79744158       1.55721059       0.72268398
H        1.51969204       0.26339846      -1.22188205
H        2.42587419      -0.96755665      -0.35029572
H        0.75257020      -1.20206502       1.34421616
H       -2.38704831      -0.18906522       1.17168783
H       -1.69629449       1.85199740      -0.64874985
H       -1.71094089       0.42301634      -1.72552394
H       -1.00093887      -2.14144398      -0.34317601
15
Frame=9 idx=006710 GeodesicLength=0.8875020584192589 rxn_smarts="[O:1]([C:2]([C@@:3]1([H:11])[O:4][C@@:5]2([H:12])[C:6]([H:13])([H:14])[C@@:7]12[H:15])([H:9])[H:10])[H:8]>>[O:1]([C:2](/[C:3](=[C:7](\[C@@:5]1([H:12])[O:4][C:6]1([H:13])[H:14])[H:15])[H:11])([H:9])[H:10])[H:8]"
O        2.39565169       0.84788066       0.57164797
C        1.75011248      -0.12772634      -0.21467507
C        0.49925976      -0.65225706       0.43687688
O       -0.46305413       0.79929059       0.74535796
C       -1.57350745      -0.09739631       0.46658324
C       -1.57407827       0.76580634      -0.71355338
C       -0.71365636      -1.09099114      -0.21367832
H        1.76542715       1.55676311       0.72748132
H        1.53861894       0.25443610      -1.22139727
H        2.45132178      -0.95709670      -0.33215579
H        0.76646871      -1.25652017       1.31271554
H       -2.37979854      -0.17152002       1.18684099
H       -1.68569884       1.84416612      -0.67920416
H       -1.75736439       0.40197108      -1.71494803
H       -1.01970253      -2.11680626      -0.35789188
15
Frame=10 idx=006710 GeodesicLength=0.9856972435349693 rxn_smarts="[O:1]([C:2]([C@@:3]1([H:11])[O:4][C@@:5]2([H:12])[C:6]([H:13])([H:14])[C@@:7]12[H:15])([H:9])[H:10])[H:8]>>[O:1]([C:2](/[C:3](=[C:7](\[C@@:5]1([H:12])[O:4][C:6]1([H:13])[H:14])[H:15])[H:11])([H:9])[H:10])[H:8]"
O        2.38028459       0.85898429       0.58249246
C        1.75965316      -0.12862563      -0.20833875
C        0.50934490      -0.66922603       0.43095777
O       -0.46146184       0.82184009       0.74410337
C       -1.56429409      -0.08020949       0.48371279
C       -1.56831757       0.75573354      -0.71508092
C       -0.71449533      -1.07313050      -0.21321616
H        1.73473882       1.55544462       0.73238501
H        1.55854065       0.24615743      -1.22006529
H        2.47610859      -0.94660491      -0.31348662
H        0.77963700      -1.31116366       1.27806135
H       -2.37119493      -0.15371974       1.20210764
H       -1.67790823       1.83496270      -0.71014733
H       -1.80280407       0.38125790      -1.70226647
H       -1.03783164      -2.09170060      -0.37121885
15
Frame=11 idx=006710 GeodesicLength=1.0838204369916322 rxn_smarts="[O:1]([C:2]([C@@:3]1([H:11])[O:4][C@@:5]2([H:12])[C:6]([H:13])([H:14])[C@@:7]12[H:15])([H:9])[H:10])[H:8]>>[O:1]([C:2](/[C:3](=[C:7](\[C@@:5]1([H:12])[O:4][C:6]1([H:13])[H:14])[H:15])[H:11])([H:9])[H:10])[H:8]"
O        2.36496476       0.86853854       0.59463782
C        1.76915520      -0.12948962      -0.20144071
C        0.51932122      -0.68610520       0.42456835
O       -0.46025756       0.84623554       0.74086757
C       -1.55432920      -0.06241138       0.50014406
C       -1.56346586       0.74525192      -0.71711930
C       -0.71474400      -1.05518643      -0.21224157
H        1.70521716       1.55312705       0.73802330
H        1.57918476       0.23895771      -1.21765290
H        2.50009190      -0.93607079      -0.29456741
H        0.79249486      -1.36610965       1.23984816
H       -2.36145628      -0.13538737       1.21709370
H       -1.67242617       1.82442191      -0.74196158
H       -1.84842861       0.36046942      -1.68744204
H       -1.05532217      -2.06624166      -0.38275746
15
Frame=12 idx=006710 GeodesicLength=1.1819265247947461 rxn_smarts="[O:1]([C:2]([C@@:3]1([H:11])[O:4][C@@:5]2([H:12])[C:6]([H:13])([H:14])[C@@:7]12[H:15])([H:9])[H:10])[H:8]>>[O:1]([C:2](/[C:3](=[C:7](\[C@@:5]1([H:12])[O:4][C:6]1([H:13])[H:14])[H:15])[H:11])([H:9])[H:10])[H:8]"
O        2.34996356       0.87660745       0.60825183
C        1.77892528      -0.13040623      -0.19398104
C        0.52922879      -0.70297688       0.41767708
O       -0.45962369       0.87252500       0.73561991
C       -1.54389136      -0.04394512       0.51603526
C       -1.56008410       0.73437106      -0.71960007
C       -0.71462500      -1.03712061      -0.21087458
H        1.67700513       1.54994411       0.74427882
H        1.60090859       0.23263030      -1.21439787
H        2.52375447      -0.92558497      -0.27520252
H        0.80496096      -1.42129610       1.19798423
H       -2.35064378      -0.11647528       1.23237288
H       -1.66986091       1.81251044      -0.77452795
H       -1.89362789       0.33964121      -1.67092160
H       -1.07239005      -2.04042438      -0.39271439
15
Frame=13 idx=006710 GeodesicLength=1.28006390709468 rxn_smarts="[O:1]([C:2]([C@@:3]1([H:11])[O:4][C@@:5]2([H:12])[C:6]([H:13])([H:14])[C@@:7]12[H:15])([H:9])[H:10])[H:8]>>[O:1]([C:2](/[C:3](=[C:7](\[C@@:5]1([H:12])[O:4][C:6]1([H:13])[H:14])[H:15])[H:11])([H:9])[H:10])[H:8]"
O        2.33501207       0.88320846       0.62339636
C        1.78882143      -0.13138766      -0.18589036
C        0.53903415      -0.71992667       0.41020026
O       -0.45950073       0.90075982       0.72815072
C       -1.53278129      -0.02470637       0.53135521
C       -1.55803637       0.72308222      -0.72241207
C       -0.71410453      -1.01893905      -0.20910741
H        1.64982992       1.54593435       0.75118222
H        1.62361855       0.22718971      -1.21013290
H        2.54692759      -0.91518071      -0.25526169
H        0.81696486      -1.47667768       1.15195823
H       -2.33844211      -0.09682109       1.24793893
H       -1.67010895       1.79918116      -0.80778074
H       -1.93820386       0.31859130      -1.65263805
H       -1.08903072      -2.01430777      -0.40095871
15
Frame=14 idx=006710 GeodesicLength=1.3782633539852305 rxn_smarts="[O:1]([C:2]([C@@:3]1([H:11])[O:4][C@@:5]2([H:12])[C:6]([H:13])([H:14])[C@@:7]12[H:15])([H:9])[H:10])[H:8]>>[O:1]([C:2](/[C:3](=[C:7](\[C@@:5]1([H:12])[O:4][C:6]1([H:13])[H:14])[H:15])[H:11])([H:9])[H:10])[H:8]"
O        2.31999800       0.88832590       0.64018947
C        1.79883227      -0.13244974      -0.17711287
C        0.54874638      -0.73705644       0.40205925
O       -0.45985762       0.93097319       0.71827277
C       -1.52089578      -0.00458710       0.54609391
C       -1.55730520       0.71138305      -0.72550377
C       -0.71320069      -1.00064692      -0.20694366
H        1.62352849       1.54108629       0.75884299
H        1.64733954       0.22267710      -1.20477153
H        2.56961816      -0.90489382      -0.23462841
H        0.82849599      -1.53215419       1.10132638
H       -2.32467148      -0.07625348       1.26386922
H       -1.67322091       1.78437759      -0.84170826
H       -1.98208734       0.29716701      -1.63264297
H       -1.10531982      -1.98794844      -0.40734252
15
Frame=15 idx=006710 GeodesicLength=1.4765889245441997 rxn_smarts="[O:1]([C:2]([C@@:3]1([H:11])[O:4][C@@:5]2([H:12])[C:6]([H:13])([H:14])[C@@:7]12[H:15])([H:9])[H:10])[H:8]>>[O:1]([C:2](/[C:3](=[C:7](\[C@@:5]1([H:12])[O:4][C:6]1([H:13])[H:14])[H:15])[H:11])([H:9])[H:10])[H:8]"
O        2.30476891       0.89192360       0.65879193
C        1.80896129      -0.13362090      -0.16757338
C        0.55838102      -0.75446784       0.39313952
O       -0.46065503       0.96320289       0.70575505
C       -1.50809969       0.01654437       0.56022003
C       -1.55786260       0.69925723      -0.72883468
C       -0.71191480      -0.98223755      -0.20441297
H        1.59790820       1.53536458       0.76737825
H        1.67214566       0.21911736      -1.19820698
H        2.59184542      -0.89477045      -0.21313333
H        0.83952683      -1.58756996       1.04556775
H       -2.30909996      -0.05455413       1.28023407
H       -1.67924578       1.76800665      -0.87629890
H       -2.02534614       0.27519477      -1.61091270
H       -1.12131332      -1.96139062      -0.41171367
15
Frame=16 idx=006710 GeodesicLength=1.5751041889129958 rxn_smarts="[O:1]([C:2]([C@@:3]1([H:11])[O:4][C@@:5]2([H:12])[C:6]([H:13])([H:14])[C@@:7]12[H:15])([H:9])[H:10])[H:8]>>[O:1]([C:2](/[C:3](=[C:7](\[C@@:5]1([H:12])[O:4][C:6]1([H:13])[H:14])[H:15])[H:11])([H:9])[H:10])[H:8]"
O        2.28914438       0.89394933       0.67938245
C        1.81921791      -0.13493281      -0.15718608
C        0.56795360      -0.77227376       0.38328332
O       -0.46183565       0.99748210       0.69031213
C       -1.49423046       0.03883332       0.57368342
C       -1.55968939       0.68667501      -0.73236687
C       -0.71025365      -0.96371151      -0.20154798
H        1.57274613       1.52869948       0.77693336
H        1.69814734       0.21654193      -1.19031367
H        2.61362742      -0.88486060      -0.19056943
H        0.85003173      -1.64269590       0.98408800
H       -2.29144754      -0.03146770       1.29710242
H       -1.68826362       1.74994559      -0.91153750
H       -2.06805381       0.25250299      -1.58738880
H       -1.13709441      -1.93468748      -0.41387475
