15
Frame=0 idx=006428 GeodesicLength=0.0 rxn_smarts="[C:1]([O:2][C:3](=[O:4])[C@@:5]([C:6]([H:12])([H:13])[H:14])([O:7][H:15])[H:11])([H:8])([H:9])[H:10]>>[C:1]([O:2][H:13])([H:8])([H:9])[H:10].[C:3]1(=[O:4])[C@@:5]([O:7][H:15])([H:11])[C:6]1([H:12])[H:14]"
C        2.27424700       0.52880458       0.52617531
O        0.89604842       0.65782981       0.84089990
C       -0.09121040      -0.91880340       0.21597005
O        0.63836321      -1.76397236      -0.05629955
C       -1.45158137      -0.33873457       0.23613299
C       -1.10555747       0.47317977      -0.96555272
O       -2.47621997      -1.29656958       0.26600289
H        2.65310001      -0.38371453       0.98716606
H        2.81435023       1.38734956       0.92609761
H        2.42484327       0.46887131      -0.55457699
H       -1.52650965       0.29064902       1.12328094
H       -1.06707859      -0.09807546      -1.89093156
H        0.38974982       1.00772459       0.03692616
H       -1.62327200       1.42485139      -1.04727859
H       -2.74927251      -1.43939007      -0.64401245
15
Frame=1 idx=006428 GeodesicLength=0.11900583246386497 rxn_smarts="[C:1]([O:2][C:3](=[O:4])[C@@:5]([C:6]([H:12])([H:13])[H:14])([O:7][H:15])[H:11])([H:8])([H:9])[H:10]>>[C:1]([O:2][H:13])([H:8])([H:9])[H:10].[C:3]1(=[O:4])[C@@:5]([O:7][H:15])([H:11])[C:6]1([H:12])[H:14]"
C        2.28120999       0.51695947       0.52924286
O        0.90016120       0.66646208       0.82002524
C       -0.09656241      -0.90015403       0.20297144
O        0.61726575      -1.76333904      -0.06609926
C       -1.45980291      -0.32827977       0.24479648
C       -1.11465525       0.48252479      -0.96048635
O       -2.48624811      -1.28166344       0.27703118
H        2.64136934      -0.40265071       0.99153018
H        2.82569156       1.36423122       0.94661112
H        2.45421431       0.46089458      -0.54828864
H       -1.52724185       0.29844548       1.13475394
H       -1.05928229      -0.07311809      -1.89455082
H        0.37591129       1.04874962       0.00943439
H       -1.65461264       1.42042311      -1.05502084
H       -2.69741798      -1.50948527      -0.63195092
15
Frame=2 idx=006428 GeodesicLength=0.238019811716427 rxn_smarts="[C:1]([O:2][C:3](=[O:4])[C@@:5]([C:6]([H:12])([H:13])[H:14])([O:7][H:15])[H:11])([H:8])([H:9])[H:10]>>[C:1]([O:2][H:13])([H:8])([H:9])[H:10].[C:3]1(=[O:4])[C@@:5]([O:7][H:15])([H:11])[C:6]1([H:12])[H:14]"
C        2.28773956       0.50521636       0.53258758
O        0.90430808       0.67460454       0.79855038
C       -0.10130572      -0.88216056       0.18886781
O        0.59693662      -1.76286790      -0.07624358
C       -1.46717943      -0.31877323       0.25250238
C       -1.12326812       0.49151304      -0.95615980
O       -2.49568374      -1.26763392       0.28453907
H        2.62929129      -0.42109481       0.99601342
H        2.83522259       1.34139049       0.96776379
H        2.48382480       0.45285406      -0.54110514
H       -1.52756399       0.30459930       1.14561756
H       -1.05147208      -0.04760209      -1.89886289
H        0.36110445       1.09005169      -0.01833851
H       -1.68505598       1.41504950      -1.06300897
H       -2.64689834      -1.57514649      -0.61272310
15
Frame=3 idx=006428 GeodesicLength=0.3570193767833768 rxn_smarts="[C:1]([O:2][C:3](=[O:4])[C@@:5]([C:6]([H:12])([H:13])[H:14])([O:7][H:15])[H:11])([H:8])([H:9])[H:10]>>[C:1]([O:2][H:13])([H:8])([H:9])[H:10].[C:3]1(=[O:4])[C@@:5]([O:7][H:15])([H:11])[C:6]1([H:12])[H:14]"
C        2.29386405       0.49353091       0.53617893
O        0.90855736       0.68225637       0.77644584
C       -0.10545834      -0.86478149       0.17368489
O        0.57734676      -1.76252165      -0.08678655
C       -1.47370754      -0.31016810       0.25931468
C       -1.13142139       0.50019977      -0.95249946
O       -2.50442570      -1.25449187       0.28903291
H        2.61687577      -0.43912142       1.00056764
H        2.84297994       1.31879087       0.98947535
H        2.51366883       0.44471580      -0.53300521
H       -1.52738173       0.30919148       1.15590433
H       -1.04354482      -0.02143852      -1.90376230
H        0.34519103       1.13172803      -0.04633564
H       -1.71465703       1.40878662      -1.07118338
H       -2.59788718      -1.63667680      -0.58703202
15
Frame=4 idx=006428 GeodesicLength=0.47607690194604 rxn_smarts="[C:1]([O:2][C:3](=[O:4])[C@@:5]([C:6]([H:12])([H:13])[H:14])([O:7][H:15])[H:11])([H:8])([H:9])[H:10]>>[C:1]([O:2][H:13])([H:8])([H:9])[H:10].[C:3]1(=[O:4])[C@@:5]([O:7][H:15])([H:11])[C:6]1([H:12])[H:14]"
C        2.29967265       0.48187621       0.54005037
O        0.91299229       0.68947047       0.75363456
C       -0.10905082      -0.84799283       0.15735493
O        0.55848039      -1.76226214      -0.09797550
C       -1.47941401      -0.30241699       0.26529179
C       -1.13918459       0.50865007      -0.94950576
O       -2.51244733      -1.24228978       0.29100659
H        2.60411573      -0.45680800       1.00523993
H        2.84905925       1.29640219       1.01183865
H        2.54393573       0.43645250      -0.52391854
H       -1.52660765       0.31232481       1.16569787
H       -1.03548367       0.00547410      -1.90927711
H        0.32809254       1.17390893      -0.07461446
H       -1.74352673       1.40170515      -1.07953994
H       -2.55063376      -1.69449471      -0.55528338
15
Frame=5 idx=006428 GeodesicLength=0.5951332347607035 rxn_smarts="[C:1]([O:2][C:3](=[O:4])[C@@:5]([C:6]([H:12])([H:13])[H:14])([O:7][H:15])[H:11])([H:8])([H:9])[H:10]>>[C:1]([O:2][H:13])([H:8])([H:9])[H:10].[C:3]1(=[O:4])[C@@:5]([O:7][H:15])([H:11])[C:6]1([H:12])[H:14]"
C        2.30514872       0.47015082       0.54420089
O        0.91765551       0.69620123       0.73005483
C       -0.11207342      -0.83171556       0.13986990
O        0.54035652      -1.76201276      -0.10985945
C       -1.48426642      -0.29543225       0.27043576
C       -1.14662529       0.51692314      -0.94713888
O       -2.51958228      -1.23093075       0.29068912
H        2.59100125      -0.47424710       1.01003473
H        2.85341228       1.27411910       1.03476495
H        2.57455572       0.42795102      -0.51375889
H       -1.52513352       0.31406456       1.17494383
H       -1.02734009       0.03326570      -1.91530271
H        0.30958673       1.21664928      -0.10312839
H       -1.77178093       1.39384381      -1.08804713
H       -2.50491479      -1.74883023      -0.51775854
15
Frame=6 idx=006428 GeodesicLength=0.7141425419481832 rxn_smarts="[C:1]([O:2][C:3](=[O:4])[C@@:5]([C:6]([H:12])([H:13])[H:14])([O:7][H:15])[H:11])([H:8])([H:9])[H:10]>>[C:1]([O:2][H:13])([H:8])([H:9])[H:10].[C:3]1(=[O:4])[C@@:5]([O:7][H:15])([H:11])[C:6]1([H:12])[H:14]"
C        2.31034855       0.45834183       0.54868699
O        0.92262024       0.70251729       0.70556861
C       -0.11458813      -0.81592848       0.12108518
O        0.52292211      -1.76171247      -0.12284520
C       -1.48828183      -0.28918750       0.27477251
C       -1.15375944       0.52507303      -0.94540669
O       -2.52581281      -1.22053865       0.28844131
H        2.57740969      -0.49149600       1.01502014
H        2.85607526       1.25193076       1.05838897
H        2.60577935       0.41918307      -0.50238413
H       -1.52287296       0.31446780       1.18368908
H       -1.01910981       0.06205053      -1.92185935
H        0.28964005       1.26007409      -0.13200333
H       -1.79944846       1.38522506      -1.09668324
H       -2.46092181      -1.80000034      -0.47447085
15
Frame=7 idx=006428 GeodesicLength=0.833022139896452 rxn_smarts="[C:1]([O:2][C:3](=[O:4])[C@@:5]([C:6]([H:12])([H:13])[H:14])([O:7][H:15])[H:11])([H:8])([H:9])[H:10]>>[C:1]([O:2][H:13])([H:8])([H:9])[H:10].[C:3]1(=[O:4])[C@@:5]([O:7][H:15])([H:11])[C:6]1([H:12])[H:14]"
C        2.31525180       0.44634175       0.55352964
O        0.92794269       0.70836660       0.68008329
C       -0.11659048      -0.80054370       0.10092473
O        0.50619014      -1.76125772      -0.13706862
C       -1.49142608      -0.28360691       0.27825633
C       -1.16065542       0.53314938      -0.94429412
O       -2.53094887      -1.21109915       0.28431175
H        2.56328332      -0.50862573       1.02024255
H        2.85698696       1.22973042       1.08264660
H        2.63757088       0.40998616      -0.48964899
H       -1.51971970       0.31354976       1.19184160
H       -1.01090879       0.09196182      -1.92886078
H        0.26800906       1.30424472      -0.16119227
H       -1.82664901       1.37584694      -1.10542862
H       -2.41833650      -1.84804433      -0.42534308
15
Frame=8 idx=006428 GeodesicLength=0.9518800173373541 rxn_smarts="[C:1]([O:2][C:3](=[O:4])[C@@:5]([C:6]([H:12])([H:13])[H:14])([O:7][H:15])[H:11])([H:8])([H:9])[H:10]>>[C:1]([O:2][H:13])([H:8])([H:9])[H:10].[C:3]1(=[O:4])[C@@:5]([O:7][H:15])([H:11])[C:6]1([H:12])[H:14]"
C        2.31987969       0.43405772       0.55879197
O        0.93370457       0.71374930       0.65350570
C       -0.11807926      -0.78554369       0.07925819
O        0.49018612      -1.76065188      -0.15283918
C       -1.49368226      -0.27862278       0.28086802
C       -1.16739961       0.54124911      -0.94386601
O       -2.53480979      -1.20274645       0.27839427
H        2.54855345      -0.52574791       1.02582060
H        2.85611994       1.20747206       1.10759287
H        2.67001263       0.40017785      -0.47541365
H       -1.51557590       0.31137159       1.19943306
H       -1.00287622       0.12313374      -1.93639156
H        0.24446281       1.34933061      -0.19068644
H       -1.85354534       1.36580682      -1.11434193
H       -2.37695083      -1.89303607      -0.37012590
15
Frame=9 idx=006428 GeodesicLength=1.0705198649675163 rxn_smarts="[C:1]([O:2][C:3](=[O:4])[C@@:5]([C:6]([H:12])([H:13])[H:14])([O:7][H:15])[H:11])([H:8])([H:9])[H:10]>>[C:1]([O:2][H:13])([H:8])([H:9])[H:10].[C:3]1(=[O:4])[C@@:5]([O:7][H:15])([H:11])[C:6]1([H:12])[H:14]"
C        2.32408115       0.42145013       0.56453481
O        0.93992074       0.71874080       0.62548031
C       -0.11912996      -0.77089309       0.05579904
O        0.47479073      -1.75976243      -0.17089271
C       -1.49494868      -0.27423764       0.28260730
C       -1.17386831       0.54946501      -0.94411928
O       -2.53713627      -1.19576016       0.27106654
H        2.53271874      -0.54298364       1.03175911
H        2.85314996       1.18501929       1.13348023
H        2.70337035       0.38978807      -0.45936909
H       -1.51024625       0.30789352       1.20642583
H       -0.99488993       0.15579798      -1.94439429
H        0.21899982       1.39545624      -0.22082279
H       -1.88003328       1.35502257      -1.12337280
H       -2.33677881      -1.93499664      -0.30818220
15
Frame=10 idx=006428 GeodesicLength=1.1889885764705792 rxn_smarts="[C:1]([O:2][C:3](=[O:4])[C@@:5]([C:6]([H:12])([H:13])[H:14])([O:7][H:15])[H:11])([H:8])([H:9])[H:10]>>[C:1]([O:2][H:13])([H:8])([H:9])[H:10].[C:3]1(=[O:4])[C@@:5]([O:7][H:15])([H:11])[C:6]1([H:12])[H:14]"
C        2.32788873       0.40831439       0.57083836
O        0.94674041       0.72320162       0.59603052
C       -0.11967361      -0.75645420       0.03048702
O        0.46010194      -1.75847268      -0.19129932
C       -1.49520174      -0.27031630       0.28331169
C       -1.18029024       0.55783160      -0.94511586
O       -2.53755905      -1.19023952       0.26191502
H        2.51588562      -0.56040492       1.03820337
H        2.84813042       1.16224723       1.16015297
H        2.73742009       0.37840424      -0.44130756
H       -1.50362704       0.30313448       1.21265492
H       -0.98743688       0.18998305      -1.95286374
H        0.19113201       1.44268019      -0.25130664
H       -1.90645132       1.34350300      -1.13256932
H       -2.29705933      -1.97341217      -0.23913143
15
Frame=11 idx=006428 GeodesicLength=1.3073767797623426 rxn_smarts="[C:1]([O:2][C:3](=[O:4])[C@@:5]([C:6]([H:12])([H:13])[H:14])([O:7][H:15])[H:11])([H:8])([H:9])[H:10]>>[C:1]([O:2][H:13])([H:8])([H:9])[H:10].[C:3]1(=[O:4])[C@@:5]([O:7][H:15])([H:11])[C:6]1([H:12])[H:14]"
C        2.33116597       0.39452704       0.57775506
O        0.95423308       0.72716629       0.56490769
C       -0.11972590      -0.74222125       0.00309735
O        0.44606052      -1.75680674      -0.21465245
C       -1.49436384      -0.26681791       0.28298083
C       -1.18662460       0.56651724      -0.94692646
O       -2.53559831      -1.18671604       0.25107601
H        2.49765405      -0.57820284       1.04521813
H        2.84076644       1.13905005       1.18772671
H        2.77227013       0.36581629      -0.42099326
H       -1.49559820       0.29710056       1.21818254
H       -0.98048404       0.22592299      -1.96189781
H        0.16060579       1.49127183      -0.28221122
H       -1.93287503       1.33128224      -1.14201399
H       -2.25748607      -2.00788974      -0.16224912
15
Frame=12 idx=006428 GeodesicLength=1.4256715745186328 rxn_smarts="[C:1]([O:2][C:3](=[O:4])[C@@:5]([C:6]([H:12])([H:13])[H:14])([O:7][H:15])[H:11])([H:8])([H:9])[H:10]>>[C:1]([O:2][H:13])([H:8])([H:9])[H:10].[C:3]1(=[O:4])[C@@:5]([O:7][H:15])([H:11])[C:6]1([H:12])[H:14]"
C        2.33384307       0.37995348       0.58533367
O        0.96255514       0.73063537       0.53187888
C       -0.11927051      -0.72813669      -0.02652874
O        0.43260639      -1.75476869      -0.24129612
C       -1.49236515      -0.26368957       0.28160664
C       -1.19291599       0.57558662      -0.94955043
O       -2.53062696      -1.18584723       0.23867068
H        2.47773849      -0.59646974       1.05289842
H        2.83088188       1.11536932       1.21616281
H        2.80795462       0.35167746      -0.39813730
H       -1.48600961       0.28981331       1.22299244
H       -0.97417928       0.26370363      -1.97145225
H        0.12705893       1.54141905      -0.31347962
H       -1.95950934       1.31819419      -1.15172194
H       -2.21776169      -2.03744050      -0.07737713
15
Frame=13 idx=006428 GeodesicLength=1.544011058342096 rxn_smarts="[C:1]([O:2][C:3](=[O:4])[C@@:5]([C:6]([H:12])([H:13])[H:14])([O:7][H:15])[H:11])([H:8])([H:9])[H:10]>>[C:1]([O:2][H:13])([H:8])([H:9])[H:10].[C:3]1(=[O:4])[C@@:5]([O:7][H:15])([H:11])[C:6]1([H:12])[H:14]"
C        2.33572719       0.36442599       0.59357321
O        0.97186216       0.73361066       0.49654336
C       -0.11825077      -0.71415252      -0.05859723
O        0.41966075      -1.75243898      -0.27139039
C       -1.48899393      -0.26087089       0.27928856
C       -1.19920143       0.58511100      -0.95298161
O       -2.52173647      -1.18832643       0.22512280
H        2.45571174      -0.61533787       1.06131476
H        2.81804360       1.09102777       1.24550545
H        2.84447773       0.33561828      -0.37242701
H       -1.47449269       0.28132566       1.22716554
H       -0.96859663       0.30356761      -1.98152208
H        0.08999397       1.59332954      -0.34513908
H       -1.98665213       1.30387440      -1.16173502
H       -2.17755310      -2.06076423       0.01527875
15
Frame=14 idx=006428 GeodesicLength=1.6622677555611114 rxn_smarts="[C:1]([O:2][C:3](=[O:4])[C@@:5]([C:6]([H:12])([H:13])[H:14])([O:7][H:15])[H:11])([H:8])([H:9])[H:10]>>[C:1]([O:2][H:13])([H:8])([H:9])[H:10].[C:3]1(=[O:4])[C@@:5]([O:7][H:15])([H:11])[C:6]1([H:12])[H:14]"
C        2.33681087       0.34791562       0.60238887
O        0.98247626       0.73606095       0.45877657
C       -0.11665379      -0.70020843      -0.09266641
O        0.40703747      -1.74992128      -0.30408216
C       -1.48413284      -0.25825665       0.27644421
C       -1.20552645       0.59479695      -0.95689779
O       -2.50824101      -1.19468188       0.21157975
H        2.43150163      -0.63461528       1.07053955
H        2.80231711       1.06628315       1.27517278
H        2.88152441       0.31718327      -0.34374608
H       -1.46066475       0.27199801       1.23084327
H       -0.96411520       0.34492458      -1.99159627
H        0.04897341       1.64690888      -0.37707016
H       -2.01440872       1.28768362      -1.17184524
H       -2.13689842      -2.07607151       0.11215911
15
Frame=15 idx=006428 GeodesicLength=1.7804674535603076 rxn_smarts="[C:1]([O:2][C:3](=[O:4])[C@@:5]([C:6]([H:12])([H:13])[H:14])([O:7][H:15])[H:11])([H:8])([H:9])[H:10]>>[C:1]([O:2][H:13])([H:8])([H:9])[H:10].[C:3]1(=[O:4])[C@@:5]([O:7][H:15])([H:11])[C:6]1([H:12])[H:14]"
C        2.33703425       0.33041254       0.61165797
O        0.99473483       0.73787321       0.41827455
C       -0.11446370      -0.68628321      -0.12834967
O        0.39456938      -1.74727938      -0.33842880
C       -1.47751265      -0.25568673       0.27358981
C       -1.21190869       0.60435082      -0.96095983
O       -2.48977186      -1.20467560       0.19941688
H        2.40498306      -0.65405609       1.08055265
H        2.78355967       1.04126730       1.30474270
H        2.91886793       0.29606567      -0.31188392
H       -1.44382582       0.26231546       1.23423137
H       -0.96102622       0.38730473      -2.00119198
H        0.00343987       1.70196615      -0.40925174
H       -2.04282565       1.26889117      -1.18183935
H       -2.09585440      -2.08246603       0.20943934
15
Frame=16 idx=006428 GeodesicLength=1.8989965607611152 rxn_smarts="[C:1]([O:2][C:3](=[O:4])[C@@:5]([C:6]([H:12])([H:13])[H:14])([O:7][H:15])[H:11])([H:8])([H:9])[H:10]>>[C:1]([O:2][H:13])([H:8])([H:9])[H:10].[C:3]1(=[O:4])[C@@:5]([O:7][H:15])([H:11])[C:6]1([H:12])[H:14]"
C        2.33638923       0.31197761       0.62121195
O        1.00897213       0.73892660       0.37488044
C       -0.11167291      -0.67254844      -0.16514917
O        0.38220035      -1.74491358      -0.37346120
C       -1.46890550      -0.25297577       0.27139976
C       -1.21823003       0.61361217      -0.96490164
O       -2.46661464      -1.21747448       0.19017291
H        2.37618525      -0.67351876       1.09133685
H        2.76162423       1.01634273       1.33378867
H        2.95629657       0.27209604      -0.27689230
H       -1.42336894       0.25294434       1.23781364
H       -0.95934034       0.43026020      -2.01007273
H       -0.04722835       1.75857481      -0.44163461
H       -2.07168373       1.24713291      -1.19164410
H       -2.05462332      -2.08043639       0.30315151
