14
Frame=0 idx=004407 GeodesicLength=0.0 rxn_smarts="[C:1]([C@@:2]([C:3]([O:4][H:13])([H:11])[H:12])([C:5]#[C:6][H:14])[H:10])([H:7])([H:8])[H:9]>>[C:1]([C@@:2]1([H:10])[C:3]([H:11])([H:12])[O:4][C:5]1=[C:6]([H:13])[H:14])([H:7])([H:8])[H:9]"
C       -0.49474862      -1.64357653       0.02404875
C       -0.48281462      -0.20122318      -0.44807088
C       -0.93205010       0.92641012       0.49765928
O       -0.08204750       1.95671269       0.04250056
C        0.86764547       0.41024341      -0.55849970
C        2.05600240       0.74142822      -0.33035042
H        0.04086735      -1.74657794       0.96931378
H       -0.03389811      -2.30895074      -0.70763695
H       -1.52353442      -1.97496863       0.17426072
H       -1.00771212      -0.09002413      -1.39990057
H       -1.98550283       1.18824488       0.37034307
H       -0.75708278       0.65539494       1.54953072
H        1.26728158       1.70001168       0.13667234
H        3.06759434       0.38687516      -0.31987073
14
Frame=1 idx=004407 GeodesicLength=0.0607500522919089 rxn_smarts="[C:1]([C@@:2]([C:3]([O:4][H:13])([H:11])[H:12])([C:5]#[C:6][H:14])[H:10])([H:7])([H:8])[H:9]>>[C:1]([C@@:2]1([H:10])[C:3]([H:11])([H:12])[O:4][C:5]1=[C:6]([H:13])[H:14])([H:7])([H:8])[H:9]"
C       -0.49379538      -1.64171323       0.02663914
C       -0.48120464      -0.20024911      -0.44801625
C       -0.93712128       0.92366167       0.49869278
O       -0.08211348       1.95545641       0.05370666
C        0.86867548       0.41126890      -0.55392174
C        2.05944711       0.74334849      -0.33715514
H        0.03497919      -1.74270858       0.97597193
H       -0.02450204      -2.30634631      -0.70031182
H       -1.52344181      -1.97416427       0.16867842
H       -0.99972308      -0.09079017      -1.40350156
H       -1.98995869       1.18331278       0.36369484
H       -0.77080591       0.65182719       1.55140286
H        1.27608426       1.71991536       0.14816286
H        3.06348028       0.36718088      -0.34404298
14
Frame=2 idx=004407 GeodesicLength=0.12149416381580178 rxn_smarts="[C:1]([C@@:2]([C:3]([O:4][H:13])([H:11])[H:12])([C:5]#[C:6][H:14])[H:10])([H:7])([H:8])[H:9]>>[C:1]([C@@:2]1([H:10])[C:3]([H:11])([H:12])[O:4][C:5]1=[C:6]([H:13])[H:14])([H:7])([H:8])[H:9]"
C       -0.49307140      -1.63998568       0.02927281
C       -0.47952180      -0.19941120      -0.44790402
C       -0.94207001       0.92084349       0.49966991
O       -0.08180041       1.95391450       0.06513266
C        0.86990428       0.41188239      -0.54913832
C        2.06290565       0.74505832      -0.34357003
H        0.02871225      -1.73908017       0.98267391
H       -0.01542654      -2.30393514      -0.69282077
H       -1.52357558      -1.97334561       0.16302864
H       -0.99150386      -0.09161335      -1.40706185
H       -1.99414032       1.17857146       0.35679959
H       -0.78465079       0.64813267       1.55316938
H        1.28510000       1.74016131       0.15967760
H        3.05913852       0.34880700      -0.36892951
14
Frame=3 idx=004407 GeodesicLength=0.18223124547813097 rxn_smarts="[C:1]([C@@:2]([C:3]([O:4][H:13])([H:11])[H:12])([C:5]#[C:6][H:14])[H:10])([H:7])([H:8])[H:9]>>[C:1]([C@@:2]1([H:10])[C:3]([H:11])([H:12])[O:4][C:5]1=[C:6]([H:13])[H:14])([H:7])([H:8])[H:9]"
C       -0.49259641      -1.63840208       0.03196736
C       -0.47774948      -0.19871965      -0.44771941
C       -0.94691263       0.91795607       0.50057849
O       -0.08109265       1.95207041       0.07681887
C        0.87135762       0.41205855      -0.54407847
C        2.06639895       0.74652724      -0.34945290
H        0.02200148      -1.73569955       0.98945924
H       -0.00666501      -2.30173622      -0.68511942
H       -1.52396232      -1.97251067       0.15728219
H       -0.98299420      -0.09250388      -1.41058632
H       -1.99804935       1.17403824       0.34959291
H       -0.79869244       0.64431360       1.55482041
H        1.29431925       1.76077023       0.17127987
H        3.05463718       0.33183769      -0.39484281
14
Frame=4 idx=004407 GeodesicLength=0.24294829590857966 rxn_smarts="[C:1]([C@@:2]([C:3]([O:4][H:13])([H:11])[H:12])([C:5]#[C:6][H:14])[H:10])([H:7])([H:8])[H:9]>>[C:1]([C@@:2]1([H:10])[C:3]([H:11])([H:12])[O:4][C:5]1=[C:6]([H:13])[H:14])([H:7])([H:8])[H:9]"
C       -0.49233037      -1.63695376       0.03468758
C       -0.47591911      -0.19816296      -0.44748644
C       -0.95161295       0.91499824       0.50144509
O       -0.08001615       1.94993234       0.08872838
C        0.87298271       0.41183375      -0.53888761
C        2.06988885       0.74781751      -0.35504014
H        0.01497896      -1.73255222       0.99624038
H        0.00176431      -2.29972948      -0.67729303
H       -1.52454082      -1.97166973       0.15149919
H       -0.97431672      -0.09345488      -1.41404840
H       -2.00166340       1.16969827       0.34220149
H       -0.81279401       0.64036526       1.55636034
H        1.30371012       1.78183750       0.18274739
H        3.04986859       0.31604014      -0.42115421
14
Frame=5 idx=004407 GeodesicLength=0.3036773849394892 rxn_smarts="[C:1]([C@@:2]([C:3]([O:4][H:13])([H:11])[H:12])([C:5]#[C:6][H:14])[H:10])([H:7])([H:8])[H:9]>>[C:1]([C@@:2]1([H:10])[C:3]([H:11])([H:12])[O:4][C:5]1=[C:6]([H:13])[H:14])([H:7])([H:8])[H:9]"
C       -0.49230888      -1.63565506       0.03746310
C       -0.47400083      -0.19775794      -0.44718052
C       -0.95619412       0.91197031       0.50224968
O       -0.07854268       1.94747527       0.10091510
C        0.87482680       0.41116333      -0.53344364
C        2.07341630       0.74886551      -0.36009875
H        0.00753256      -1.72965299       1.00308467
H        0.00986790      -2.29794707      -0.66926891
H       -1.52536131      -1.97081579       0.14562996
H       -0.96536596      -0.09448110      -1.41745998
H       -2.00498481       1.16557338       0.33452089
H       -0.82707123       0.63629313       1.55777631
H        1.31326818       1.80338195       0.19419761
H        3.04491807       0.30158706      -0.44838553
14
Frame=6 idx=004407 GeodesicLength=0.36437243878610837 rxn_smarts="[C:1]([C@@:2]([C:3]([O:4][H:13])([H:11])[H:12])([C:5]#[C:6][H:14])[H:10])([H:7])([H:8])[H:9]>>[C:1]([C@@:2]1([H:10])[C:3]([H:11])([H:12])[O:4][C:5]1=[C:6]([H:13])[H:14])([H:7])([H:8])[H:9]"
C       -0.49247482      -1.63449117       0.04023700
C       -0.47204296      -0.19748420      -0.44683864
C       -0.96060578       0.90886827       0.50303648
O       -0.07670788       1.94471568       0.11333020
C        0.87681238       0.41010446      -0.52795659
C        2.07691912       0.74977159      -0.36498302
H       -0.00014623      -1.72698500       1.00986366
H        0.01762205      -2.29635313      -0.66118054
H       -1.52633959      -1.96996371       0.13975487
H       -0.95632439      -0.09556408      -1.42078752
H       -2.00798746       1.16163840       0.32674220
H       -0.84132622       0.63208239       1.55908467
H        1.32294609       1.82552552       0.20529887
H        3.03965568       0.28813498      -0.47560164
14
Frame=7 idx=004407 GeodesicLength=0.4250642920711557 rxn_smarts="[C:1]([C@@:2]([C:3]([O:4][H:13])([H:11])[H:12])([C:5]#[C:6][H:14])[H:10])([H:7])([H:8])[H:9]>>[C:1]([C@@:2]1([H:10])[C:3]([H:11])([H:12])[O:4][C:5]1=[C:6]([H:13])[H:14])([H:7])([H:8])[H:9]"
C       -0.49288576      -1.63348360       0.04305769
C       -0.46999758      -0.19736831      -0.44642317
C       -0.96488052       0.90569333       0.50377195
O       -0.07446199       1.94161251       0.12605216
C        0.87901486       0.40858564      -0.52223529
C        2.08046468       0.75042820      -0.36934232
H       -0.00823357      -1.72457280       1.01668478
H        0.02503365      -2.29499684      -0.65291112
H       -1.52755604      -1.96910074       0.13380040
H       -0.94702590      -0.09672655      -1.42404989
H       -2.01066967       1.15793233       0.31869946
H       -0.85573433       0.62774235       1.56026508
H        1.33274184       1.84826133       0.21624335
H        3.03419033       0.27599313      -0.50361306
14
Frame=8 idx=004407 GeodesicLength=0.4857272999755772 rxn_smarts="[C:1]([C@@:2]([C:3]([O:4][H:13])([H:11])[H:12])([C:5]#[C:6][H:14])[H:10])([H:7])([H:8])[H:9]>>[C:1]([C@@:2]1([H:10])[C:3]([H:11])([H:12])[O:4][C:5]1=[C:6]([H:13])[H:14])([H:7])([H:8])[H:9]"
C       -0.49344339      -1.63260431       0.04582551
C       -0.46794862      -0.19736951      -0.44599706
C       -0.96894714       0.90243691       0.50453472
O       -0.07187641       1.93820311       0.13899632
C        0.88130286       0.40671679      -0.51662165
C        2.08393885       0.75102014      -0.37376966
H       -0.01641185      -1.72238759       1.02333841
H        0.03207529      -2.29380576      -0.64469439
H       -1.52887317      -1.96825171       0.12788730
H       -0.93777514      -0.09792824      -1.42720152
H       -2.01300998       1.15440128       0.31071341
H       -0.86997786       0.62324235       1.56135815
H        1.34257922       1.87179000       0.22651690
H        3.02836735       0.26453655      -0.53088643
14
Frame=9 idx=004407 GeodesicLength=0.5463991521895739 rxn_smarts="[C:1]([C@@:2]([C:3]([O:4][H:13])([H:11])[H:12])([C:5]#[C:6][H:14])[H:10])([H:7])([H:8])[H:9]>>[C:1]([C@@:2]1([H:10])[C:3]([H:11])([H:12])[O:4][C:5]1=[C:6]([H:13])[H:14])([H:7])([H:8])[H:9]"
C       -0.49428870      -1.63190280       0.04866498
C       -0.46577629      -0.19755207      -0.44546553
C       -0.97288310       0.89910339       0.50523859
O       -0.06883288       1.93440612       0.15232428
C        0.88386209       0.40432367      -0.51064417
C        2.08751175       0.75127724      -0.37741670
H       -0.02511593      -1.72048735       1.03009101
H        0.03876352      -2.29289775      -0.63623277
H       -1.53048407      -1.96738210       0.12184168
H       -0.92815684      -0.09922412      -1.43028706
H       -2.01500518       1.15112984       0.30237896
H       -0.88447657       0.61861247       1.56231333
H        1.35248835       1.89601707       0.23660674
H        3.02239385       0.25457639      -0.55941333
14
Frame=10 idx=004407 GeodesicLength=0.60703070915355 rxn_smarts="[C:1]([C@@:2]([C:3]([O:4][H:13])([H:11])[H:12])([C:5]#[C:6][H:14])[H:10])([H:7])([H:8])[H:9]>>[C:1]([C@@:2]1([H:10])[C:3]([H:11])([H:12])[O:4][C:5]1=[C:6]([H:13])[H:14])([H:7])([H:8])[H:9]"
C       -0.49532577      -1.63135211       0.05146773
C       -0.46356773      -0.19787388      -0.44489634
C       -0.97661033       0.89568151       0.50596843
O       -0.06539310       1.93025009       0.16596500
C        0.88656046       0.40151338      -0.50465673
C        2.09106151       0.75139521      -0.38089924
H       -0.03402295      -1.71885058       1.03672227
H        0.04506158      -2.29219938      -0.62777603
H       -1.53225644      -1.96651556       0.11578302
H       -0.91848827      -0.10056644      -1.43326314
H       -2.01662745       1.14806913       0.29402984
H       -0.89889685       0.61381294       1.56317589
H        1.36237829       1.92114608       0.24596516
H        3.01612706       0.24548959      -0.58758586
14
Frame=11 idx=004407 GeodesicLength=0.6676531551896988 rxn_smarts="[C:1]([C@@:2]([C:3]([O:4][H:13])([H:11])[H:12])([C:5]#[C:6][H:14])[H:10])([H:7])([H:8])[H:9]>>[C:1]([C@@:2]1([H:10])[C:3]([H:11])([H:12])[O:4][C:5]1=[C:6]([H:13])[H:14])([H:7])([H:8])[H:9]"
C       -0.49658601      -1.63096637       0.05425339
C       -0.46129396      -0.19834921      -0.44426443
C       -0.98013675       0.89216919       0.50671874
O       -0.06152209       1.92570319       0.17997977
C        0.88944140       0.39824236      -0.49855136
C        2.09463320       0.75131035      -0.38402864
H       -0.04322547      -1.71749947       1.04328061
H        0.05096712      -2.29173957      -0.61927441
H       -1.53423322      -1.96564368       0.10966574
H       -0.90867907      -0.10196124      -1.43613165
H       -2.01786363       1.14524215       0.28559496
H       -0.91332542       0.60884177       1.56394179
H        1.37220814       1.94723921       0.25459538
H        3.00961578       0.23741130      -0.61577987
14
Frame=12 idx=004407 GeodesicLength=0.7282435663261023 rxn_smarts="[C:1]([C@@:2]([C:3]([O:4][H:13])([H:11])[H:12])([C:5]#[C:6][H:14])[H:10])([H:7])([H:8])[H:9]>>[C:1]([C@@:2]1([H:10])[C:3]([H:11])([H:12])[O:4][C:5]1=[C:6]([H:13])[H:14])([H:7])([H:8])[H:9]"
C       -0.49801873      -1.63073206       0.05694953
C       -0.45900474      -0.19895076      -0.44360511
C       -0.98341642       0.88855529       0.50755386
O       -0.05724786       1.92077293       0.19435609
C        0.89243369       0.39457003      -0.49251955
C        2.09815259       0.75114495      -0.38713601
H       -0.05254354      -1.71643555       1.04963339
H        0.05645762      -2.29147504      -0.61089076
H       -1.53634828      -1.96477879       0.10354257
H       -0.89891085      -0.10336616      -1.43886828
H       -2.01869839       1.14262197       0.27728223
H       -0.92757600       0.60366122       1.56465306
H        1.38188096       1.97447987       0.26209600
H        3.00283996       0.22993212      -0.64304702
14
Frame=13 idx=004407 GeodesicLength=0.788829086172015 rxn_smarts="[C:1]([C@@:2]([C:3]([O:4][H:13])([H:11])[H:12])([C:5]#[C:6][H:14])[H:10])([H:7])([H:8])[H:9]>>[C:1]([C@@:2]1([H:10])[C:3]([H:11])([H:12])[O:4][C:5]1=[C:6]([H:13])[H:14])([H:7])([H:8])[H:9]"
C       -0.49967229      -1.63067050       0.05958082
C       -0.45665884      -0.19969924      -0.44288282
C       -0.98645793       0.88483390       0.50846964
O       -0.05251475       1.91541597       0.20917769
C        0.89560116       0.39042989      -0.48640776
C        2.10168130       0.75080698      -0.38994300
H       -0.06211170      -1.71569663       1.05584439
H        0.06152258      -2.29144822      -0.60255882
H       -1.53866738      -1.96390608       0.09734686
H       -0.88905577      -0.10478571      -1.44147542
H       -2.01910895       1.14023942       0.26900219
H       -0.94175462       0.59826676       1.56530812
H        1.39133480       2.00294797       0.26843340
H        2.99586239       0.22326549      -0.66989529
14
Frame=14 idx=004407 GeodesicLength=0.8494072741135616 rxn_smarts="[C:1]([C@@:2]([C:3]([O:4][H:13])([H:11])[H:12])([C:5]#[C:6][H:14])[H:10])([H:7])([H:8])[H:9]>>[C:1]([C@@:2]1([H:10])[C:3]([H:11])([H:12])[O:4][C:5]1=[C:6]([H:13])[H:14])([H:7])([H:8])[H:9]"
C       -0.50151506      -1.63077281       0.06208596
C       -0.45428725      -0.20057105      -0.44211621
C       -0.98922665       0.88099277       0.50952892
O       -0.04733146       1.90962560       0.22447137
C        0.89890053       0.38586235      -0.48032957
C        2.10517012       0.75038661      -0.39264429
H       -0.07181103      -1.71529864       1.06181367
H        0.06614444      -2.29162642      -0.59441134
H       -1.54115131      -1.96302961       0.09109621
H       -0.87923191      -0.10617361      -1.44393299
H       -2.01908177       1.13807959       0.26091483
H       -0.95573696       0.59261521       1.56595268
H        1.40044273       2.03284057       0.27322044
H        2.98871558       0.21706945      -0.69564968
14
Frame=15 idx=004407 GeodesicLength=0.9100001933604409 rxn_smarts="[C:1]([C@@:2]([C:3]([O:4][H:13])([H:11])[H:12])([C:5]#[C:6][H:14])[H:10])([H:7])([H:8])[H:9]>>[C:1]([C@@:2]1([H:10])[C:3]([H:11])([H:12])[O:4][C:5]1=[C:6]([H:13])[H:14])([H:7])([H:8])[H:9]"
C       -0.50376511      -1.63112609       0.06464468
C       -0.45170051      -0.20167992      -0.44115863
C       -0.99177184       0.87703353       0.51061690
O       -0.04148985       1.90325001       0.24046964
C        0.90261365       0.38055896      -0.47361466
C        2.10891134       0.74942614      -0.39405243
H       -0.08227333      -1.71534694       1.06789598
H        0.07027627      -2.29221172      -0.58601628
H       -1.54407672      -1.96208473       0.08456352
H       -0.86883214      -0.10762646      -1.44626757
H       -2.01852378       1.13627888       0.25248153
H       -0.97003838       0.58675610       1.56649300
H        1.40923869       2.06402933       0.27687618
H        2.98143172       0.21274293      -0.72293187
14
Frame=16 idx=004407 GeodesicLength=0.9706067721225655 rxn_smarts="[C:1]([C@@:2]([C:3]([O:4][H:13])([H:11])[H:12])([C:5]#[C:6][H:14])[H:10])([H:7])([H:8])[H:9]>>[C:1]([C@@:2]1([H:10])[C:3]([H:11])([H:12])[O:4][C:5]1=[C:6]([H:13])[H:14])([H:7])([H:8])[H:9]"
C       -0.50618797      -1.63164542       0.06696484
C       -0.44911125      -0.20287899      -0.44016235
C       -0.99396578       0.87292417       0.51197938
O       -0.03515093       1.89639273       0.25707195
C        0.90643342       0.37484305      -0.46703030
C        2.11257741       0.74847678      -0.39553631
H       -0.09274884      -1.71581320       1.07357413
H        0.07390461      -2.29297327      -0.57803023
H       -1.54715006      -1.96112448       0.07794535
H       -0.85859031      -0.10894185      -1.44840780
H       -2.01746259       1.13470223       0.24450537
H       -0.98396025       0.58054445       1.56711787
H        1.41735196       2.09705324       0.27812059
H        2.97406059       0.20844054      -0.74811247
