15
Frame=0 idx=006684 GeodesicLength=0.0 rxn_smarts="[C:1]([C@@:2]1([O:3][H:11])[C:4]([H:12])([H:13])[C:5]([H:14])([H:15])[C:6]1=[O:7])([H:8])([H:9])[H:10]>>[C:1]([C:2]1=[C:4]([H:13])[C:5]([H:14])([H:15])[C:6]1=[O:7])([H:8])([H:9])[H:10].[O:3]([H:11])[H:12]"
C       -1.73940151      -0.66229468      -0.17623110
C       -0.37427320      -0.10484315      -0.01562388
O       -0.68869019       1.73247590      -0.03957444
C        0.53909643      -0.00610147       1.08779043
C        1.79148470      -0.25500469       0.22870334
C        0.81867712      -0.27778245      -0.95344870
O        0.90646149      -0.47293595      -2.12556580
H       -2.39310831      -0.32705439       0.62754425
H       -2.17014376      -0.37936000      -1.13520025
H       -1.66865284      -1.75271002      -0.13454534
H       -0.34950284       2.22898039      -0.79499827
H        0.12607432       1.32272024       0.79060706
H        0.36065680      -0.34313015       2.10000321
H        2.55733800       0.52266464       0.20139950
H        2.28398378      -1.22562422       0.33913998
15
Frame=1 idx=006684 GeodesicLength=0.09475035170302705 rxn_smarts="[C:1]([C@@:2]1([O:3][H:11])[C:4]([H:12])([H:13])[C:5]([H:14])([H:15])[C:6]1=[O:7])([H:8])([H:9])[H:10]>>[C:1]([C:2]1=[C:4]([H:13])[C:5]([H:14])([H:15])[C:6]1=[O:7])([H:8])([H:9])[H:10].[O:3]([H:11])[H:12]"
C       -1.73466438      -0.66806193      -0.16829248
C       -0.37234440      -0.10183195      -0.01391040
O       -0.69670580       1.74568166      -0.05966335
C        0.54030797       0.00181444       1.09077602
C        1.79076015      -0.27042903       0.23578704
C        0.82069601      -0.27964870      -0.94846802
O        0.91014524      -0.41467470      -2.12907068
H       -2.38159901      -0.35762270       0.65089824
H       -2.18089949      -0.36249465      -1.11327854
H       -1.65659894      -1.75851409      -0.15596370
H       -0.35961709       2.20428262      -0.83969098
H        0.12496107       1.35979126       0.79184274
H        0.35856590      -0.34429762       2.09983266
H        2.56922031       0.49460211       0.21282599
H        2.26777246      -1.24859672       0.34637545
15
Frame=2 idx=006684 GeodesicLength=0.18948341116530243 rxn_smarts="[C:1]([C@@:2]1([O:3][H:11])[C:4]([H:12])([H:13])[C:5]([H:14])([H:15])[C:6]1=[O:7])([H:8])([H:9])[H:10]>>[C:1]([C:2]1=[C:4]([H:13])[C:5]([H:14])([H:15])[C:6]1=[O:7])([H:8])([H:9])[H:10].[O:3]([H:11])[H:12]"
C       -1.72978708      -0.67367374      -0.16066618
C       -0.37031079      -0.09876903      -0.01256756
O       -0.70490681       1.75882107      -0.07991606
C        0.54172318       0.00955101       1.09333423
C        1.78984027      -0.28579064       0.24239723
C        0.82276317      -0.28106220      -0.94415457
O        0.91454821      -0.35862977      -2.13005383
H       -2.36926198      -0.38853295       0.67356369
H       -2.19174268      -0.34574987      -1.09063156
H       -1.64493914      -1.76336614      -0.17807835
H       -0.37033432       2.17950331      -0.88215272
H        0.12378940       1.39780262       0.79249663
H        0.35668951      -0.34532208       2.09925579
H        2.58063394       0.46644729       0.22396323
H        2.25129513      -1.27122890       0.35321003
15
Frame=3 idx=006684 GeodesicLength=0.2841784341069774 rxn_smarts="[C:1]([C@@:2]1([O:3][H:11])[C:4]([H:12])([H:13])[C:5]([H:14])([H:15])[C:6]1=[O:7])([H:8])([H:9])[H:10]>>[C:1]([C:2]1=[C:4]([H:13])[C:5]([H:14])([H:15])[C:6]1=[O:7])([H:8])([H:9])[H:10].[O:3]([H:11])[H:12]"
C       -1.72475955      -0.67914989      -0.15333595
C       -0.36817240      -0.09566156      -0.01154576
O       -0.71331274       1.77189559      -0.10030480
C        0.54333682       0.01711560       1.09551909
C        1.78873300      -0.30109387       0.24859462
C        0.82490487      -0.28194691      -0.94041801
O        0.91962286      -0.30488004      -2.12885002
H       -2.35607788      -0.41986744       0.69554299
H       -2.20264112      -0.32911406      -1.06720586
H       -1.63366476      -1.76726227      -0.20092783
H       -0.38160587       2.15469498      -0.92252934
H        0.12250409       1.43681586       0.79261985
H        0.35500838      -0.34617795       2.09833497
H        2.59160154       0.43818278       0.23487533
H        2.23452278      -1.29355082       0.35963072
15
Frame=4 idx=006684 GeodesicLength=0.37883853544014445 rxn_smarts="[C:1]([C@@:2]1([O:3][H:11])[C:4]([H:12])([H:13])[C:5]([H:14])([H:15])[C:6]1=[O:7])([H:8])([H:9])[H:10]>>[C:1]([C:2]1=[C:4]([H:13])[C:5]([H:14])([H:15])[C:6]1=[O:7])([H:8])([H:9])[H:10].[O:3]([H:11])[H:12]"
C       -1.71958021      -0.68451143      -0.14627930
C       -0.36593269      -0.09252681      -0.01079703
O       -0.72193503       1.78489540      -0.12081486
C        0.54514439       0.02450505       1.09738305
C        1.78744242      -0.31634935       0.25443295
C        0.82713802      -0.28227965      -0.93717251
O        0.92532510      -0.25339854      -2.12574771
H       -2.34203366      -0.45169507       0.71683116
H       -2.21356057      -0.31259078      -1.04295274
H       -1.62278357      -1.77019785      -0.22453609
H       -0.39336557       2.12987925      -0.96095733
H        0.12106167       1.47691424       0.79222971
H        0.35350669      -0.34684801       2.09713665
H        2.60213243       0.40979263       0.24560733
H        2.21744057      -1.31558907       0.36563671
15
Frame=5 idx=006684 GeodesicLength=0.47348319269119665 rxn_smarts="[C:1]([C@@:2]1([O:3][H:11])[C:4]([H:12])([H:13])[C:5]([H:14])([H:15])[C:6]1=[O:7])([H:8])([H:9])[H:10]>>[C:1]([C:2]1=[C:4]([H:13])[C:5]([H:14])([H:15])[C:6]1=[O:7])([H:8])([H:9])[H:10].[O:3]([H:11])[H:12]"
C       -1.71424650      -0.68977568      -0.13947692
C       -0.36359037      -0.08938621      -0.01027086
O       -0.73076673       1.79780578      -0.14147316
C        0.54714221       0.03170189       1.09897962
C        1.78597766      -0.33157639       0.25996725
C        0.82948079      -0.28209307      -0.93432739
O        0.93162184      -0.20403407      -2.12102176
H       -2.32710964      -0.48407000       0.73740441
H       -2.22447052      -0.29620396      -1.01779728
H       -1.61234055      -1.77213978      -0.24889295
H       -0.40555943       2.10503634      -0.99758052
H        0.11941521       1.51817479       0.79132771
H        0.35216531      -0.34733517       2.09572395
H        2.61223119       0.38126241       0.25619932
H        2.20004952      -1.33736687       0.37123856
15
Frame=6 idx=006684 GeodesicLength=0.5681183020016451 rxn_smarts="[C:1]([C@@:2]1([O:3][H:11])[C:4]([H:12])([H:13])[C:5]([H:14])([H:15])[C:6]1=[O:7])([H:8])([H:9])[H:10]>>[C:1]([C:2]1=[C:4]([H:13])[C:5]([H:14])([H:15])[C:6]1=[O:7])([H:8])([H:9])[H:10].[O:3]([H:11])[H:12]"
C       -1.70876338      -0.69496099      -0.13291049
C       -0.36114737      -0.08626672      -0.00993101
O       -0.73980517       1.81060348      -0.16230179
C        0.54932723       0.03867834       1.10035100
C        1.78434330      -0.34678333       0.26523079
C        0.83194192      -0.28141818      -0.93182388
O        0.93848257      -0.15669199      -2.11482679
H       -2.31129921      -0.51702515       0.75724759
H       -2.23534278      -0.27996058      -0.99169034
H       -1.60237674      -1.77307854      -0.27400098
H       -0.41811172       2.08016240      -1.03247700
H        0.11752036       1.56069650       0.78987296
H        0.35097352      -0.34766432       2.09414785
H        2.62188861       0.35259966       0.26666793
H        2.18236887      -1.35889059       0.37644416
15
Frame=7 idx=006684 GeodesicLength=0.6627693117789416 rxn_smarts="[C:1]([C@@:2]1([O:3][H:11])[C:4]([H:12])([H:13])[C:5]([H:14])([H:15])[C:6]1=[O:7])([H:8])([H:9])[H:10]>>[C:1]([C:2]1=[C:4]([H:13])[C:5]([H:14])([H:15])[C:6]1=[O:7])([H:8])([H:9])[H:10].[O:3]([H:11])[H:12]"
C       -1.70313838      -0.70007996      -0.12655727
C       -0.35860387      -0.08319750      -0.00973868
O       -0.74903909       1.82326238      -0.18333497
C        0.55169880       0.04540114       1.10153998
C        1.78254536      -0.36198675       0.27025783
C        0.83452837      -0.28031005      -0.92960025
O        0.94589140      -0.11120366      -2.10730674
H       -2.29459085      -0.55059584       0.77632256
H       -2.24614979      -0.26388162      -0.96455714
H       -1.59295185      -1.77298658      -0.29984775
H       -0.43096469       2.05522650      -1.06574034
H        0.11533594       1.60459128       0.78780966
H        0.34992096      -0.34786796       2.09245684
H        2.63109876       0.32380186       0.27703346
H        2.16441894      -1.38017326       0.38126281
15
Frame=8 idx=006684 GeodesicLength=0.757449864854923 rxn_smarts="[C:1]([C@@:2]1([O:3][H:11])[C:4]([H:12])([H:13])[C:5]([H:14])([H:15])[C:6]1=[O:7])([H:8])([H:9])[H:10]>>[C:1]([C:2]1=[C:4]([H:13])[C:5]([H:14])([H:15])[C:6]1=[O:7])([H:8])([H:9])[H:10].[O:3]([H:11])[H:12]"
C       -1.69737753      -0.70514872      -0.12039762
C       -0.35595592      -0.08020951      -0.00965331
O       -0.75845523       1.83574964      -0.20460351
C        0.55425820       0.05183755       1.10259295
C        1.78059621      -0.37720971       0.27508487
C        0.83725128      -0.27883549      -0.92759383
O        0.95384553      -0.06736619      -2.09859026
H       -2.27695809      -0.58483690       0.79456601
H       -2.25685887      -0.24799118      -0.93629503
H       -1.58416488      -1.77178573      -0.32642849
H       -0.44410538       2.03016802      -1.09745946
H        0.11283632       1.64998334       0.78504080
H        0.34899922      -0.34798154       2.09070158
H        2.63986598       0.29485926       0.28732091
H        2.14622318      -1.40123284       0.38571438
15
Frame=9 idx=006684 GeodesicLength=0.8524250076513865 rxn_smarts="[C:1]([C@@:2]1([O:3][H:11])[C:4]([H:12])([H:13])[C:5]([H:14])([H:15])[C:6]1=[O:7])([H:8])([H:9])[H:10]>>[C:1]([C:2]1=[C:4]([H:13])[C:5]([H:14])([H:15])[C:6]1=[O:7])([H:8])([H:9])[H:10].[O:3]([H:11])[H:12]"
C       -1.69147287      -0.71015604      -0.11442118
C       -0.35319880      -0.07728527      -0.00961387
O       -0.76803298       1.84805005      -0.22617942
C        0.55698355       0.05774500       1.10360049
C        1.77852173      -0.39248057       0.27975309
C        0.84011866      -0.27702336      -0.92571475
O        0.96222935      -0.02501650      -2.08872578
H       -2.25845399      -0.61966743       0.81193806
H       -2.26741740      -0.23219424      -0.90683579
H       -1.57593111      -1.76946958      -0.35361453
H       -0.45753152       2.00493670      -1.12780916
H        0.10996291       1.69711202       0.78132744
H        0.34815953      -0.34831870       2.08893444
H        2.64814289       0.26583454       0.29759289
H        2.12792005      -1.42206662       0.38976807
15
Frame=10 idx=006684 GeodesicLength=0.9474049552598794 rxn_smarts="[C:1]([C@@:2]1([O:3][H:11])[C:4]([H:12])([H:13])[C:5]([H:14])([H:15])[C:6]1=[O:7])([H:8])([H:9])[H:10]>>[C:1]([C:2]1=[C:4]([H:13])[C:5]([H:14])([H:15])[C:6]1=[O:7])([H:8])([H:9])[H:10].[O:3]([H:11])[H:12]"
C       -1.68545852      -0.71511080      -0.10860980
C       -0.35033587      -0.07448869      -0.00960339
O       -0.77777233       1.86012266      -0.24805616
C        0.55988713       0.06325713       1.10456711
C        1.77631736      -0.40779000       0.28427430
C        0.84312549      -0.27496543      -0.92394614
O        0.97111262       0.01599801      -2.07780425
H       -2.23904426      -0.65521720       0.82840819
H       -2.27780081      -0.21657332      -0.87609450
H       -1.56845064      -1.76597044      -0.38149352
H       -0.47112550       1.97947976      -1.15679463
H        0.10669059       1.74597538       0.77670176
H        0.34742872      -0.34874922       2.08717322
H        2.65595860       0.23671213       0.30781351
H        2.10946742      -1.44267997       0.39346428
15
Frame=11 idx=006684 GeodesicLength=1.0423975859875374 rxn_smarts="[C:1]([C@@:2]1([O:3][H:11])[C:4]([H:12])([H:13])[C:5]([H:14])([H:15])[C:6]1=[O:7])([H:8])([H:9])[H:10]>>[C:1]([C:2]1=[C:4]([H:13])[C:5]([H:14])([H:15])[C:6]1=[O:7])([H:8])([H:9])[H:10].[O:3]([H:11])[H:12]"
C       -1.67934105      -0.72001343      -0.10294046
C       -0.34736211      -0.07183877      -0.00957208
O       -0.78766354       1.87193557      -0.27027595
C        0.56296395       0.06832479       1.10555224
C        1.77399792      -0.42315437       0.28868942
C        0.84627961      -0.27271684      -0.92222279
O        0.98046251       0.05582176      -2.06588244
H       -2.21866723      -0.69159977       0.84391025
H       -2.28798719      -0.20109632      -0.84390676
H       -1.56180818      -1.76113514      -0.41014405
H       -0.48488369       1.95369589      -1.18452812
H        0.10298926       1.79672218       0.77101326
H        0.34679449      -0.34935696       2.08546402
H        2.66331963       0.20749773       0.31801800
H        2.09090562      -1.46308634       0.39682545
15
Frame=12 idx=006684 GeodesicLength=1.1373993091205836 rxn_smarts="[C:1]([C@@:2]1([O:3][H:11])[C:4]([H:12])([H:13])[C:5]([H:14])([H:15])[C:6]1=[O:7])([H:8])([H:9])[H:10]>>[C:1]([C:2]1=[C:4]([H:13])[C:5]([H:14])([H:15])[C:6]1=[O:7])([H:8])([H:9])[H:10].[O:3]([H:11])[H:12]"
C       -1.67313044      -0.72486732      -0.09739881
C       -0.34427260      -0.06936078      -0.00947965
O       -0.79769890       1.88344992      -0.29288356
C        0.56621087       0.07288558       1.10660515
C        1.77157892      -0.43858207       0.29302246
C        0.84958377      -0.27032196      -0.92049914
O        0.99025013       0.09456640      -2.05296899
H       -2.19731589      -0.72886482       0.85839405
H       -2.29793603      -0.18573636      -0.81014952
H       -1.55607521      -1.75485864      -0.43959894
H       -0.49876645       1.92751142      -1.21107320
H        0.09880605       1.84950210       0.76411049
H        0.34624901      -0.35025306       2.08383690
H        2.67022445       0.17821772       0.32822650
H        2.07229230      -1.48328812       0.39985624
15
Frame=13 idx=006684 GeodesicLength=1.2323844173106886 rxn_smarts="[C:1]([C@@:2]1([O:3][H:11])[C:4]([H:12])([H:13])[C:5]([H:14])([H:15])[C:6]1=[O:7])([H:8])([H:9])[H:10]>>[C:1]([C:2]1=[C:4]([H:13])[C:5]([H:14])([H:15])[C:6]1=[O:7])([H:8])([H:9])[H:10].[O:3]([H:11])[H:12]"
C       -1.66684167      -0.72965683      -0.09197682
C       -0.34106088      -0.06707236      -0.00928766
O       -0.80787352       1.89463096      -0.31592196
C        0.56962614       0.07688201       1.10777538
C        1.76907484      -0.45408588       0.29729457
C        0.85304360      -0.26780936      -0.91873573
O        1.00045223       0.13233796      -2.03905040
H       -2.17497128      -0.76707395       0.87177181
H       -2.30759311      -0.17048322      -0.77467479
H       -1.55133336      -1.74704479      -0.46987416
H       -0.51274288       1.90085822      -1.23647386
H        0.09408546       1.90447339       0.75581988
H        0.34578210      -0.35154511       2.08231803
H        2.67667984       0.14888617       0.33846083
H        2.05367248      -1.50329721       0.40255490
15
Frame=14 idx=006684 GeodesicLength=1.3273622254937611 rxn_smarts="[C:1]([C@@:2]1([O:3][H:11])[C:4]([H:12])([H:13])[C:5]([H:14])([H:15])[C:6]1=[O:7])([H:8])([H:9])[H:10]>>[C:1]([C:2]1=[C:4]([H:13])[C:5]([H:14])([H:15])[C:6]1=[O:7])([H:8])([H:9])[H:10].[O:3]([H:11])[H:12]"
C       -1.66048329      -0.73438267      -0.08664901
C       -0.33771919      -0.06499240      -0.00893972
O       -0.81819426       1.90542640      -0.33946166
C        0.57321074       0.08024108       1.10912807
C        1.76650649      -0.46968330       0.30153499
C        0.85666067      -0.26521850      -0.91687820
O        1.01103456       0.16927281      -2.02411473
H       -2.15160724      -0.80632726       0.88395907
H       -2.31690240      -0.15530551      -0.73731035
H       -1.54767932      -1.73752321      -0.50101389
H       -0.52675838       1.87365287      -1.26077574
H        0.08874329       1.96182322       0.74590422
H        0.34538895      -0.35336709       2.08094643
H        2.68269739       0.11951472       0.34874966
H        2.03510199      -1.52313115       0.40492084
15
Frame=15 idx=006684 GeodesicLength=1.4223168472653707 rxn_smarts="[C:1]([C@@:2]1([O:3][H:11])[C:4]([H:12])([H:13])[C:5]([H:14])([H:15])[C:6]1=[O:7])([H:8])([H:9])[H:10]>>[C:1]([C:2]1=[C:4]([H:13])[C:5]([H:14])([H:15])[C:6]1=[O:7])([H:8])([H:9])[H:10].[O:3]([H:11])[H:12]"
C       -1.65406657      -0.73903561      -0.08140341
C       -0.33423719      -0.06313941      -0.00838398
O       -0.82867681       1.91577902      -0.36356003
C        0.57696633       0.08288037       1.11072667
C        1.76389629      -0.48539179       0.30576329
C        0.86043878      -0.26257242      -0.91488144
O        1.02196268       0.20548039      -2.00812038
H       -2.12722983      -0.84667989       0.89485423
H       -2.32578421      -0.14019571      -0.69788932
H       -1.54520218      -1.72615397      -0.53302576
H       -0.54074495       1.84584317      -1.28398505
H        0.08268020       2.02174555       0.73410051
H        0.34506329      -0.35586893       2.07975124
H        2.68829100       0.09011686       0.35911528
H        2.01664317      -1.54280763       0.40693814
15
Frame=16 idx=006684 GeodesicLength=1.5172369485619375 rxn_smarts="[C:1]([C@@:2]1([O:3][H:11])[C:4]([H:12])([H:13])[C:5]([H:14])([H:15])[C:6]1=[O:7])([H:8])([H:9])[H:10]>>[C:1]([C:2]1=[C:4]([H:13])[C:5]([H:14])([H:15])[C:6]1=[O:7])([H:8])([H:9])[H:10].[O:3]([H:11])[H:12]"
C       -1.64760011      -0.74359800      -0.07622039
C       -0.33060140      -0.06152268      -0.00755823
O       -0.83934887       1.92562724      -0.38828484
C        0.58089792       0.08472219       1.11264518
C        1.76126754      -0.50123834       0.31000810
C        0.86438735      -0.25988116      -0.91269133
O        1.03319645       0.24106366      -1.99100797
H       -2.10180487      -0.88826376       0.90431524
H       -2.33415514      -0.12513610      -0.65616907
H       -1.54400718      -1.71273141      -0.56596182
H       -0.55463951       1.81737166      -1.30611175
H        0.07578144       2.08446164       0.72007887
H        0.34479855      -0.35919824       2.07877105
H        2.69348490       0.06068269       0.36959261
H        1.99834294      -1.56235941       0.40859436
