18
Frame=0 idx=001807 GeodesicLength=0.0 rxn_smarts="[C:1]([C:2]([C:3]([H:11])([H:12])[H:13])([C:4]1([H:14])[C:5]([H:15])([H:16])[C:6]1([H:17])[H:18])[H:10])([H:7])([H:8])[H:9]>>[C:1]([C:2](=[C:3]([H:12])[H:13])[H:10])([H:7])([H:8])[H:9].[C:4]1([H:14])=[C:6]([H:18])[C:5]1([H:15])[H:16].[H:11][H:17]"
C       -1.48814707       0.17941626       1.27277243
C       -1.17656387       0.45853275      -0.17181837
C       -1.29415536      -0.50256101      -1.13184678
C        1.05889448       0.88136555       0.18626354
C        1.66340528      -0.36760182       0.72122384
C        1.90335127       0.24243971      -0.61966680
H       -0.93677095       0.83014262       1.95227446
H       -2.55477422       0.33047484       1.46153935
H       -1.24990612      -0.85391820       1.53172414
H       -1.25359746       1.49228578      -0.49045234
H        0.25899631      -0.95572072      -1.61793304
H       -1.54188634      -1.52343154      -0.85954438
H       -1.46361472      -0.23347616      -2.16700618
H        0.83495425       1.87802383       0.51947589
H        2.43203106      -0.32702323       1.49023780
H        1.04285234      -1.26667478       0.76134233
H        1.05015388      -0.69725469      -1.53776835
H        2.71477726       0.43498086      -1.30081762
18
Frame=1 idx=001807 GeodesicLength=0.10782474050586273 rxn_smarts="[C:1]([C:2]([C:3]([H:11])([H:12])[H:13])([C:4]1([H:14])[C:5]([H:15])([H:16])[C:6]1([H:17])[H:18])[H:10])([H:7])([H:8])[H:9]>>[C:1]([C:2](=[C:3]([H:12])[H:13])[H:10])([H:7])([H:8])[H:9].[C:4]1([H:14])=[C:6]([H:18])[C:5]1([H:15])[H:16].[H:11][H:17]"
C       -1.51008660       0.19945789       1.26996938
C       -1.15988272       0.44384946      -0.17162093
C       -1.29673766      -0.53113368      -1.12050239
C        1.06358967       0.87522696       0.20882278
C        1.68102641      -0.38384981       0.70553676
C        1.90819177       0.26098924      -0.62208683
H       -0.96690027       0.85860292       1.94809295
H       -2.57789854       0.37071662       1.43273760
H       -1.28938125      -0.83051535       1.55645030
H       -1.22855653       1.47099224      -0.51455466
H        0.25570032      -0.94792448      -1.63672344
H       -1.53881066      -1.54775571      -0.82717057
H       -1.50740603      -0.27418805      -2.15129547
H        0.85980333       1.86165120       0.58393217
H        2.45711057      -0.36014453       1.46743395
H        1.06227846      -1.28432939       0.72891164
H        1.06540934      -0.67203223      -1.56957674
H        2.72255039       0.49038669      -1.28835648
18
Frame=2 idx=001807 GeodesicLength=0.21474151029152116 rxn_smarts="[C:1]([C:2]([C:3]([H:11])([H:12])[H:13])([C:4]1([H:14])[C:5]([H:15])([H:16])[C:6]1([H:17])[H:18])[H:10])([H:7])([H:8])[H:9]>>[C:1]([C:2](=[C:3]([H:12])[H:13])[H:10])([H:7])([H:8])[H:9].[C:4]1([H:14])=[C:6]([H:18])[C:5]1([H:15])[H:16].[H:11][H:17]"
C       -1.53254734       0.22018975       1.26633005
C       -1.14338695       0.42844866      -0.17051763
C       -1.29842032      -0.56000678      -1.10822853
C        1.06805574       0.86791944       0.23184546
C        1.69930156      -0.39995096       0.68888078
C        1.91249921       0.28013012      -0.62422983
H       -0.99707731       0.88759764       1.94261229
H       -2.60057031       0.41213215       1.40195822
H       -1.33134377      -0.80570658       1.58043182
H       -1.20316152       1.44828046      -0.53786036
H        0.25175177      -0.94036801      -1.65515371
H       -1.53531942      -1.57183955      -0.79404529
H       -1.54965531      -0.31497614      -2.13294935
H        0.88443741       1.84179200       0.64887271
H        2.48313199      -0.39265562       1.44278292
H        1.08328158      -1.30210341       0.69508692
H        1.08019146      -0.64515971      -1.60138873
H        2.72883153       0.54627655      -1.27442772
18
Frame=3 idx=001807 GeodesicLength=0.3210949834330268 rxn_smarts="[C:1]([C:2]([C:3]([H:11])([H:12])[H:13])([C:4]1([H:14])[C:5]([H:15])([H:16])[C:6]1([H:17])[H:18])[H:10])([H:7])([H:8])[H:9]>>[C:1]([C:2](=[C:3]([H:12])[H:13])[H:10])([H:7])([H:8])[H:9].[C:4]1([H:14])=[C:6]([H:18])[C:5]1([H:15])[H:16].[H:11][H:17]"
C       -1.55554499       0.24167381       1.26175483
C       -1.12712839       0.41237055      -0.16849892
C       -1.29929712      -0.58923395      -1.09501151
C        1.07234978       0.85935375       0.25544484
C        1.71839409      -0.41592376       0.67126726
C        1.91625400       0.29995274      -0.62599477
H       -1.02728399       0.91721502       1.93575117
H       -2.62274460       0.45470095       1.36899260
H       -1.37583200      -0.77935085       1.60354129
H       -1.17746239       1.42418695      -0.56040136
H        0.24701380      -0.93317102      -1.67313675
H       -1.53161127      -1.59571027      -0.76005242
H       -1.59033401      -0.35592940      -2.11206817
H        0.90891827       1.81823888       0.71451956
H        2.51039641      -0.42457279       1.41622513
H        1.10599685      -1.32002886       0.65980212
H        1.09444820      -0.61656743      -1.63309071
H        2.73346735       0.60279569      -1.25904418
18
Frame=4 idx=001807 GeodesicLength=0.42680894388842416 rxn_smarts="[C:1]([C:2]([C:3]([H:11])([H:12])[H:13])([C:4]1([H:14])[C:5]([H:15])([H:16])[C:6]1([H:17])[H:18])[H:10])([H:7])([H:8])[H:9]>>[C:1]([C:2](=[C:3]([H:12])[H:13])[H:10])([H:7])([H:8])[H:9].[C:4]1([H:14])=[C:6]([H:18])[C:5]1([H:15])[H:16].[H:11][H:17]"
C       -1.57900553       0.26398200       1.25615137
C       -1.11111725       0.39563001      -0.16552060
C       -1.29936385      -0.61887790      -1.08078377
C        1.07646853       0.84938954       0.27970816
C        1.73828924      -0.43177742       0.65264207
C        1.91937916       0.32048756      -0.62726160
H       -1.05741799       0.94751218       1.92741103
H       -2.64422635       0.49844711       1.33371504
H       -1.42283004      -0.75126306       1.62559338
H       -1.15146592       1.39866274      -0.58214481
H        0.24144970      -0.92640529      -1.69059084
H       -1.52770733      -1.61938646      -0.72502323
H       -1.62941183      -0.39714936      -2.08864836
H        0.93321470       1.79073480       0.78090019
H        2.53887164      -0.45588362       1.38768489
H        1.13045005      -1.33807649       0.62285361
H        1.10809423      -0.58604825      -1.66464166
H        2.73632885       0.66002192      -1.24204486
18
Frame=5 idx=001807 GeodesicLength=0.5318657851645076 rxn_smarts="[C:1]([C:2]([C:3]([H:11])([H:12])[H:13])([C:4]1([H:14])[C:5]([H:15])([H:16])[C:6]1([H:17])[H:18])[H:10])([H:7])([H:8])[H:9]>>[C:1]([C:2](=[C:3]([H:12])[H:13])[H:10])([H:7])([H:8])[H:9].[C:4]1([H:14])=[C:6]([H:18])[C:5]1([H:15])[H:16].[H:11][H:17]"
C       -1.60284148       0.28718026       1.24941633
C       -1.09538066       0.37826495      -0.16155072
C       -1.29863731      -0.64899302      -1.06547385
C        1.08041479       0.83789419       0.30469842
C        1.75897377      -0.44750044       0.63295285
C        1.92180669       0.34177270      -0.62789745
H       -1.08735701       0.97855344       1.91748050
H       -2.66481799       0.54333280       1.29599159
H       -1.47227085      -0.72126254       1.64638439
H       -1.12518849       1.37169631      -0.60306228
H        0.23499456      -0.92013099      -1.70742689
H       -1.52363304      -1.64286884      -0.68876636
H       -1.66688952      -0.43876326      -2.06270494
H        0.95725864       1.75899848       0.84805550
H        2.56854785      -0.48655921       1.35708286
H        1.15665712      -1.35619030       0.58403589
H        1.12103484      -0.55338470      -1.69597970
H        2.73732810       0.71796017      -1.22323614
18
Frame=6 idx=001807 GeodesicLength=0.6362211965396095 rxn_smarts="[C:1]([C:2]([C:3]([H:11])([H:12])[H:13])([C:4]1([H:14])[C:5]([H:15])([H:16])[C:6]1([H:17])[H:18])[H:10])([H:7])([H:8])[H:9]>>[C:1]([C:2](=[C:3]([H:12])[H:13])[H:10])([H:7])([H:8])[H:9].[C:4]1([H:14])=[C:6]([H:18])[C:5]1([H:15])[H:16].[H:11][H:17]"
C       -1.62692326       0.31130900       1.24144468
C       -1.07995686       0.36032057      -0.15657115
C       -1.29714903      -0.67961592      -1.04902170
C        1.08418662       0.82472921       0.33045452
C        1.78041386      -0.46305621       0.61216592
C        1.92345881       0.36382366      -0.62775302
H       -1.11691295       1.01035556       1.90584998
H       -2.68427232       0.58929762       1.25572825
H       -1.52402426      -0.68919872       1.66567197
H       -1.09866546       1.34328543      -0.62312097
H        0.22757425      -0.91445185      -1.72353064
H       -1.51947095      -1.66613075      -0.65112845
H       -1.70272465      -0.48085463      -2.03427130
H        0.98095951       1.72274955       0.91593882
H        2.59938134      -0.51651638       1.32436972
H        1.18460778      -1.37426696       0.54317286
H        1.13315941      -0.51838611      -1.72700054
H        2.73635817       0.77660691      -1.20239895
18
Frame=7 idx=001807 GeodesicLength=0.7398413852078952 rxn_smarts="[C:1]([C:2]([C:3]([H:11])([H:12])[H:13])([C:4]1([H:14])[C:5]([H:15])([H:16])[C:6]1([H:17])[H:18])[H:10])([H:7])([H:8])[H:9]>>[C:1]([C:2](=[C:3]([H:12])[H:13])[H:10])([H:7])([H:8])[H:9].[C:4]1([H:14])=[C:6]([H:18])[C:5]1([H:15])[H:16].[H:11][H:17]"
C       -1.65108369       0.33638066       1.23213520
C       -1.06489497       0.34185716      -0.15058057
C       -1.29494582      -0.71076271      -1.03137687
C        1.08777711       0.80977088       0.35697893
C        1.80254743      -0.47837454       0.59026515
C        1.92425887       0.38663847      -0.62666945
H       -1.14584307       1.04289054       1.89242267
H       -2.70230967       0.63623755       1.21287751
H       -1.57788908      -0.65495614       1.68318657
H       -1.07195345       1.31344903      -0.64228491
H        0.21910352      -0.90950271      -1.73878310
H       -1.51533748      -1.68911333      -0.61198184
H       -1.73686581      -0.52348414      -2.00340698
H        1.00419971       1.68172928       0.98443794
H        2.63128876      -0.54562133       1.28953004
H        1.21425556      -1.39214944       0.50011379
H        1.14436072      -0.48088660      -1.75756974
H        2.73333136       0.83589735      -1.17929435
18
Frame=8 idx=001807 GeodesicLength=0.8426302138777356 rxn_smarts="[C:1]([C:2]([C:3]([H:11])([H:12])[H:13])([C:4]1([H:14])[C:5]([H:15])([H:16])[C:6]1([H:17])[H:18])[H:10])([H:7])([H:8])[H:9]>>[C:1]([C:2](=[C:3]([H:12])[H:13])[H:10])([H:7])([H:8])[H:9].[C:4]1([H:14])=[C:6]([H:18])[C:5]1([H:15])[H:16].[H:11][H:17]"
C       -1.67509337       0.36236569       1.22140900
C       -1.05024779       0.32293226      -0.14359932
C       -1.29209787      -0.74244038      -1.01251966
C        1.09117269       0.79290697       0.38423267
C        1.82526798      -0.49335786       0.56726500
C        1.92413053       0.41018062      -0.62447943
H       -1.17380676       1.07603530       1.87714230
H       -2.71857616       0.68405076       1.16747839
H       -1.63358871      -0.61847613       1.69864024
H       -1.04514091       1.28220314      -0.66052413
H        0.20952253      -0.90549365      -1.75303418
H       -1.51143470      -1.71175334      -0.57127791
H       -1.76922427      -0.56662827      -1.97021332
H        1.02684880       1.63576351       1.05326530
H        2.66409467      -0.57367720       1.25262545
H        1.24550111      -1.40962930       0.45475142
H        1.15452013      -0.44075140      -1.78752003
H        2.72815211       0.89576928      -1.15364179
18
Frame=9 idx=001807 GeodesicLength=0.9445908590326619 rxn_smarts="[C:1]([C:2]([C:3]([H:11])([H:12])[H:13])([C:4]1([H:14])[C:5]([H:15])([H:16])[C:6]1([H:17])[H:18])[H:10])([H:7])([H:8])[H:9]>>[C:1]([C:2](=[C:3]([H:12])[H:13])[H:10])([H:7])([H:8])[H:9].[C:4]1([H:14])=[C:6]([H:18])[C:5]1([H:15])[H:16].[H:11][H:17]"
C       -1.69871564       0.38921764       1.20918891
C       -1.03607563       0.30364053      -0.13567422
C       -1.28868554      -0.77462102      -0.99241980
C        1.09435463       0.77406328       0.41212620
C        1.84845090      -0.50787474       0.54318864
C        1.92301295       0.43440990      -0.62102294
H       -1.20048295       1.10968010       1.85996430
H       -2.73275764       0.73252482       1.11959114
H       -1.69076079      -0.57973033       1.71174855
H       -1.01832305       1.24962179      -0.67781909
H        0.19873142      -0.90261186      -1.76616668
H       -1.50790778      -1.73392941      -0.52892874
H       -1.79978267      -0.61030797      -1.93481690
H        1.04872823       1.58468331       1.12216913
H        2.69762742      -0.60047430       1.21373159
H        1.27820859      -1.42643781       0.40699924
H        1.16356707      -0.39785822      -1.81668523
H        2.72081048       0.95600428      -1.12517410
18
Frame=10 idx=001807 GeodesicLength=1.045679346592254 rxn_smarts="[C:1]([C:2]([C:3]([H:11])([H:12])[H:13])([C:4]1([H:14])[C:5]([H:15])([H:16])[C:6]1([H:17])[H:18])[H:10])([H:7])([H:8])[H:9]>>[C:1]([C:2](=[C:3]([H:12])[H:13])[H:10])([H:7])([H:8])[H:9].[C:4]1([H:14])=[C:6]([H:18])[C:5]1([H:15])[H:16].[H:11][H:17]"
C       -1.72166716       0.41684956       1.19542690
C       -1.02243190       0.28407161      -0.12687947
C       -1.28480595      -0.80727266      -0.97107104
C        1.09729511       0.75319593       0.44052437
C        1.87192386      -0.52177505       0.51808763
C        1.92085254       0.45925984      -0.61614711
H       -1.22548381       1.14362240       1.84090271
H       -2.74449036       0.78146672       1.06936044
H       -1.74899319      -0.53875884       1.72222872
H       -0.99161406       1.21577670      -0.69417233
H        0.18666466      -0.90111647      -1.77804165
H       -1.50494419      -1.75552882      -0.48491264
H       -1.82851742      -0.65447677      -1.89737090
H        1.06966023       1.52843525       1.19073853
H        2.73162205      -0.62577062       1.17300171
H        1.31217979      -1.44226211       0.35682294
H        1.17143996      -0.35209751      -1.84489022
H        2.71130986       1.01638083      -1.09360860
18
Frame=11 idx=001807 GeodesicLength=1.1459330792672708 rxn_smarts="[C:1]([C:2]([C:3]([H:11])([H:12])[H:13])([C:4]1([H:14])[C:5]([H:15])([H:16])[C:6]1([H:17])[H:18])[H:10])([H:7])([H:8])[H:9]>>[C:1]([C:2](=[C:3]([H:12])[H:13])[H:10])([H:7])([H:8])[H:9].[C:4]1([H:14])=[C:6]([H:18])[C:5]1([H:15])[H:16].[H:11][H:17]"
C       -1.74366474       0.44514583       1.18010544
C       -1.00936597       0.26432063      -0.11731561
C       -1.28057730      -0.84035856      -0.94848033
C        1.09996903       0.73031948       0.46925337
C        1.89548654      -0.53488614       0.49203036
C        1.91762783       0.48466227      -0.60972167
H       -1.24843078       1.17762335       1.82003599
H       -2.75343493       0.83066276       1.01699014
H       -1.80785613      -0.49565769       1.72982991
H       -0.96512899       1.18075558      -0.70961241
H        0.17326226      -0.90131660      -1.78854970
H       -1.50272788      -1.77643958      -0.43923731
H       -1.85545108      -0.69908336      -1.85804564
H        1.08948834       1.46706615       1.25852859
H        2.76577655      -0.64931741       1.13063332
H        1.34715863      -1.45675051       0.30423332
H        1.17813530      -0.30336346      -1.87197872
H        2.69973333       1.07661726      -1.05869907
18
Frame=12 idx=001807 GeodesicLength=1.2453644036574152 rxn_smarts="[C:1]([C:2]([C:3]([H:11])([H:12])[H:13])([C:4]1([H:14])[C:5]([H:15])([H:16])[C:6]1([H:17])[H:18])[H:10])([H:7])([H:8])[H:9]>>[C:1]([C:2](=[C:3]([H:12])[H:13])[H:10])([H:7])([H:8])[H:9].[C:4]1([H:14])=[C:6]([H:18])[C:5]1([H:15])[H:16].[H:11][H:17]"
C       -1.76438405       0.47397357       1.16324615
C       -0.99691349       0.24446107      -0.10712021
C       -1.27614401      -0.87387263      -0.92471680
C        1.10235634       0.70548542       0.49814048
C        1.91893105      -0.54704719       0.46514312
C        1.91330516       0.51053197      -0.60162780
H       -1.26889826       1.21138630       1.79754280
H       -2.75921106       0.87998157       0.96272249
H       -1.86686742      -0.45057352       1.73434987
H       -0.93901829       1.14462833      -0.72423583
H        0.15849169      -0.90362561      -1.79760287
H       -1.50144899      -1.79660256      -0.39199955
H       -1.88065980      -0.74403712      -1.81709423
H        1.10812907       1.40080955       1.32500703
H        2.79975702      -0.67089545       1.08696699
H        1.38287209      -1.46955571       0.24930321
H        1.18359470      -0.25152713      -1.89784264
H        2.68610826       1.13647913      -1.02018222
18
Frame=13 idx=001807 GeodesicLength=1.3444977458682992 rxn_smarts="[C:1]([C:2]([C:3]([H:11])([H:12])[H:13])([C:4]1([H:14])[C:5]([H:15])([H:16])[C:6]1([H:17])[H:18])[H:10])([H:7])([H:8])[H:9]>>[C:1]([C:2](=[C:3]([H:12])[H:13])[H:10])([H:7])([H:8])[H:9].[C:4]1([H:14])=[C:6]([H:18])[C:5]1([H:15])[H:16].[H:11][H:17]"
C       -1.78360262       0.50322315       1.14488021
C       -0.98511523       0.22459232      -0.09646902
C       -1.27172222      -0.90788657      -0.89979893
C        1.10451641       0.67882767       0.52704284
C        1.94203337      -0.55809800       0.43752634
C        1.90800495       0.53693101      -0.59179417
H       -1.28657747       1.24480860       1.77359992
H       -2.76160715       0.92916427       0.90673456
H       -1.92568142      -0.40368156       1.73573265
H       -0.91329745       1.10752360      -0.73826352
H        0.14219729      -0.90841592      -1.80530073
H       -1.50126355      -1.81606046      -0.34310205
H       -1.90445119      -0.78952095      -1.77470611
H        1.12560654       1.32983474       1.38994929
H        2.83327224      -0.69036063       1.04228892
H        1.41889854      -1.48036662       0.19207893
H        1.18791948      -0.19627994      -1.92252526
H        2.67086947       1.19576528      -0.97787386
18
Frame=14 idx=001807 GeodesicLength=1.4427064869073933 rxn_smarts="[C:1]([C:2]([C:3]([H:11])([H:12])[H:13])([C:4]1([H:14])[C:5]([H:15])([H:16])[C:6]1([H:17])[H:18])[H:10])([H:7])([H:8])[H:9]>>[C:1]([C:2](=[C:3]([H:12])[H:13])[H:10])([H:7])([H:8])[H:9].[C:4]1([H:14])=[C:6]([H:18])[C:5]1([H:15])[H:16].[H:11][H:17]"
C       -1.80137158       0.53330945       1.12445793
C       -0.97396091       0.20468327      -0.08541718
C       -1.26693839      -0.94237204      -0.87313663
C        1.10622979       0.64940010       0.55603327
C        1.96498461      -0.56825877       0.40875620
C        1.90142901       0.56359035      -0.57967710
H       -1.30168455       1.27801593       1.74754545
H       -2.76070769       0.97820870       0.84839794
H       -1.98419235      -0.35391866       1.73360255
H       -0.88788770       1.06889182      -0.75178302
H        0.12439563      -0.91554242      -1.81149753
H       -1.50144185      -1.83421765      -0.29178253
H       -1.92681607      -0.83583634      -1.72975948
H        1.14174058       1.25305240       1.45292340
H        2.86657957      -0.70805409       0.99581860
H        1.45573500      -1.48879827       0.13152994
H        1.19110617      -0.13687383      -1.94516520
H        2.65280072       1.25472005      -0.93084660
18
Frame=15 idx=001807 GeodesicLength=1.5396497423975446 rxn_smarts="[C:1]([C:2]([C:3]([H:11])([H:12])[H:13])([C:4]1([H:14])[C:5]([H:15])([H:16])[C:6]1([H:17])[H:18])[H:10])([H:7])([H:8])[H:9]>>[C:1]([C:2](=[C:3]([H:12])[H:13])[H:10])([H:7])([H:8])[H:9].[C:4]1([H:14])=[C:6]([H:18])[C:5]1([H:15])[H:16].[H:11][H:17]"
C       -1.81700143       0.56317667       1.10270801
C       -0.96347051       0.18502967      -0.07420746
C       -1.26239554      -0.97682605      -0.84532750
C        1.10743590       0.61863169       0.58409812
C        1.98686042      -0.57671001       0.37931468
C        1.89375045       0.59036251      -0.56580548
H       -1.31368130       1.31008846       1.72015621
H       -2.75591591       1.02632364       0.78943286
H       -2.04077953      -0.30309449       1.72778371
H       -0.86336468       1.02950483      -0.76456234
H        0.10535974      -0.92624174      -1.81543336
H       -1.50271303      -1.85101363      -0.23931634
H       -1.94750761      -0.88178850      -1.68374360
H        1.15610878       1.17216952       1.51263607
H        2.89827835      -0.72303155       0.94878115
H        1.49193917      -1.49397152       0.06940987
H        1.19346021      -0.07390083      -1.96608283
H        2.63363654       1.31129134      -0.87984176
18
Frame=16 idx=001807 GeodesicLength=1.6365725828554298 rxn_smarts="[C:1]([C:2]([C:3]([H:11])([H:12])[H:13])([C:4]1([H:14])[C:5]([H:15])([H:16])[C:6]1([H:17])[H:18])[H:10])([H:7])([H:8])[H:9]>>[C:1]([C:2](=[C:3]([H:12])[H:13])[H:10])([H:7])([H:8])[H:9].[C:4]1([H:14])=[C:6]([H:18])[C:5]1([H:15])[H:16].[H:11][H:17]"
C       -1.83058484       0.59333551       1.07933242
C       -0.95364103       0.16552456      -0.06306113
C       -1.25822563      -1.01182545      -0.81615157
C        1.10832554       0.58597776       0.61174580
C        2.00796579      -0.58376280       0.34914902
C        1.88502648       0.61757543      -0.54978998
H       -1.32246772       1.34166332       1.69132054
H       -2.74735192       1.07377873       0.72900672
H       -2.09578400      -0.25048244       1.71865667
H       -0.83938175       0.98905862      -0.77732476
H        0.08465448      -0.94091913      -1.81776913
H       -1.50503128      -1.86682007      -0.18492913
H       -1.96724312      -0.92835605      -1.63634351
H        1.16929562       1.08658757       1.56974459
H        2.92889932      -0.73580798       0.90111051
H        1.52771418      -1.49606935       0.00493086
H        1.19494525      -0.00615148      -1.98535772
H        2.61288462       1.36669326      -0.82427019
