10
Frame=0 idx=008631 GeodesicLength=0.0 rxn_smarts="[N:1](=[C:2]1/[C:3]([H:9])=[C:4]([H:10])[C:5](=[O:6])[O:7]1)\[H:8]>>[N:1](=[C:2]1/[C:3]([H:9])=[C:4]=[C:5]([O:6][H:10])[O:7]1)\[H:8]"
N        2.26159840      -0.19461634       0.11362801
C        1.02445608      -0.13225843       0.05078736
C       -0.01109233      -1.19497198      -0.00609904
C       -1.23340862      -0.64281752      -0.06530307
C       -0.93092859       0.76844319      -0.04430712
O       -1.97291788       1.45704172      -0.09240976
O        0.31546971       1.14040365       0.01934323
H        2.70805806       0.71785622       0.13971565
H        0.29297641      -2.23245458       0.00566883
H       -2.45421125       0.31337406      -0.12102409
10
Frame=1 idx=008631 GeodesicLength=0.04209777985384289 rxn_smarts="[N:1](=[C:2]1/[C:3]([H:9])=[C:4]([H:10])[C:5](=[O:6])[O:7]1)\[H:8]>>[N:1](=[C:2]1/[C:3]([H:9])=[C:4]=[C:5]([O:6][H:10])[O:7]1)\[H:8]"
N        2.26256181      -0.19598161       0.10573942
C        1.02437056      -0.13061037       0.05914648
C       -0.01161167      -1.19228276       0.00640255
C       -1.23234388      -0.64078356      -0.08194496
C       -0.92762259       0.77243714      -0.09665979
O       -1.97178793       1.45857065      -0.08302209
O        0.31722321       1.13980723       0.03310271
H        2.70961200       0.71574922       0.14705081
H        0.29119719      -2.23024133       0.00496746
H       -2.46159871       0.30333538      -0.09478258
10
Frame=2 idx=008631 GeodesicLength=0.08445648112156201 rxn_smarts="[N:1](=[C:2]1/[C:3]([H:9])=[C:4]([H:10])[C:5](=[O:6])[O:7]1)\[H:8]>>[N:1](=[C:2]1/[C:3]([H:9])=[C:4]=[C:5]([O:6][H:10])[O:7]1)\[H:8]"
N        2.26256954      -0.19721414       0.10744877
C        1.02390278      -0.12901110       0.06662438
C       -0.01223961      -1.18951690       0.01132866
C       -1.23079860      -0.63866779      -0.10468768
C       -0.92491092       0.77656140      -0.13133246
O       -1.96928529       1.45996025      -0.07745766
O        0.31805676       1.13879181       0.04580430
H        2.71085130       0.71415066       0.14443140
H        0.28876930      -2.22800590       0.00879289
H       -2.46691525       0.29295171      -0.07095260
10
Frame=3 idx=008631 GeodesicLength=0.12693089809571312 rxn_smarts="[N:1](=[C:2]1/[C:3]([H:9])=[C:4]([H:10])[C:5](=[O:6])[O:7]1)\[H:8]>>[N:1](=[C:2]1/[C:3]([H:9])=[C:4]=[C:5]([O:6][H:10])[O:7]1)\[H:8]"
N        2.26245170      -0.19844521       0.11064830
C        1.02342331      -0.12744137       0.07217467
C       -0.01292603      -1.18671823       0.01374717
C       -1.22937299      -0.63644001      -0.12387713
C       -0.92250648       0.78089494      -0.15751205
O       -1.96659251       1.46137185      -0.07390011
O        0.31882888       1.13772020       0.05604004
H        2.71190957       0.71266275       0.14109428
H        0.28610933      -2.22579880       0.01256674
H       -2.47132479       0.28219388      -0.05098191
10
Frame=4 idx=008631 GeodesicLength=0.16943097398970777 rxn_smarts="[N:1](=[C:2]1/[C:3]([H:9])=[C:4]([H:10])[C:5](=[O:6])[O:7]1)\[H:8]>>[N:1](=[C:2]1/[C:3]([H:9])=[C:4]=[C:5]([O:6][H:10])[O:7]1)\[H:8]"
N        2.26233626      -0.19965359       0.11284933
C        1.02294337      -0.12587884       0.07706500
C       -0.01362779      -1.18388156       0.01515840
C       -1.22803038      -0.63409997      -0.14034094
C       -0.92022799       0.78538205      -0.17905942
O       -1.96382748       1.46281564      -0.07107105
O        0.31959657       1.13663323       0.06517558
H        2.71287001       0.71116367       0.13812657
H        0.28328552      -2.22358560       0.01650739
H       -2.47531808       0.27110497      -0.03441086
10
Frame=5 idx=008631 GeodesicLength=0.21194471732620762 rxn_smarts="[N:1](=[C:2]1/[C:3]([H:9])=[C:4]([H:10])[C:5](=[O:6])[O:7]1)\[H:8]>>[N:1](=[C:2]1/[C:3]([H:9])=[C:4]=[C:5]([O:6][H:10])[O:7]1)\[H:8]"
N        2.26221129      -0.20085144       0.11436184
C        1.02246699      -0.12430617       0.08119085
C       -0.01433513      -1.18101549       0.01587969
C       -1.22679539      -0.63168851      -0.15477264
C       -0.91804377       0.78994279      -0.19809128
O       -1.96100786       1.46432371      -0.06907798
O        0.32040402       1.13556987       0.07279478
H        2.71373929       0.70963999       0.13642617
H        0.28035737      -2.22135531       0.02018832
H       -2.47899680       0.25974055      -0.01889976
10
Frame=6 idx=008631 GeodesicLength=0.25446899923544775 rxn_smarts="[N:1](=[C:2]1/[C:3]([H:9])=[C:4]([H:10])[C:5](=[O:6])[O:7]1)\[H:8]>>[N:1](=[C:2]1/[C:3]([H:9])=[C:4]=[C:5]([O:6][H:10])[O:7]1)\[H:8]"
N        2.26205278      -0.20204413       0.11578840
C        1.02197749      -0.12273131       0.08484949
C       -0.01504204      -1.17813603       0.01598435
C       -1.22565704      -0.62921217      -0.16777693
C       -0.91590878       0.79456062      -0.21545062
O       -1.95814279       1.46591817      -0.06790318
O        0.32121801       1.13452039       0.07946722
H        2.71453911       0.70811251       0.13532860
H        0.27734377      -2.21911710       0.02354647
H       -2.48238051       0.24812904      -0.00383380
10
Frame=7 idx=008631 GeodesicLength=0.2970043996734716 rxn_smarts="[N:1](=[C:2]1/[C:3]([H:9])=[C:4]([H:10])[C:5](=[O:6])[O:7]1)\[H:8]>>[N:1](=[C:2]1/[C:3]([H:9])=[C:4]=[C:5]([O:6][H:10])[O:7]1)\[H:8]"
N        2.26183510      -0.20323715       0.11768513
C        1.02145731      -0.12115376       0.08820642
C       -0.01574178      -1.17524983       0.01543970
C       -1.22460819      -0.62667061      -0.17978006
C       -0.91380213       0.79923172      -0.23164837
O       -1.95524395       1.46760637      -0.06746851
O        0.32202242       1.13348832       0.08541013
H        2.71527861       0.70658333       0.13437670
H        0.27425075      -2.21687431       0.02655120
H       -2.48544813       0.23627593       0.01122765
10
Frame=8 idx=008631 GeodesicLength=0.33955260637616647 rxn_smarts="[N:1](=[C:2]1/[C:3]([H:9])=[C:4]([H:10])[C:5](=[O:6])[O:7]1)\[H:8]>>[N:1](=[C:2]1/[C:3]([H:9])=[C:4]=[C:5]([O:6][H:10])[O:7]1)\[H:8]"
N        2.26158699      -0.20442134       0.11939047
C        1.02092298      -0.11956781       0.09099920
C       -0.01642327      -1.17235590       0.01418432
C       -1.22366750      -0.62407241      -0.19096969
C       -0.91173800       0.80394187      -0.24706015
O       -1.95232416       1.46938972      -0.06766902
O        0.32282072       1.13247525       0.09054135
H        2.71595269       0.70505223       0.13438901
H        0.27104512      -2.21462763       0.02955490
H       -2.48817556       0.22418600       0.02663960
10
Frame=9 idx=008631 GeodesicLength=0.38211639308218004 rxn_smarts="[N:1](=[C:2]1/[C:3]([H:9])=[C:4]([H:10])[C:5](=[O:6])[O:7]1)\[H:8]>>[N:1](=[C:2]1/[C:3]([H:9])=[C:4]=[C:5]([O:6][H:10])[O:7]1)\[H:8]"
N        2.26124951      -0.20560479       0.12217288
C        1.02032171      -0.11799789       0.09411000
C       -0.01707937      -1.16946250       0.01215398
C       -1.22273803      -0.62135961      -0.20195918
C       -0.90960976       0.80877658      -0.26160486
O       -1.94938723       1.47125927      -0.06835501
O        0.32353887       1.13144583       0.09595162
H        2.71657049       0.70353256       0.13315979
H        0.26769805      -2.21238381       0.03254388
H       -2.49056425       0.21179435       0.04182690
10
Frame=10 idx=008631 GeodesicLength=0.42469525540647063 rxn_smarts="[N:1](=[C:2]1/[C:3]([H:9])=[C:4]([H:10])[C:5](=[O:6])[O:7]1)\[H:8]>>[N:1](=[C:2]1/[C:3]([H:9])=[C:4]=[C:5]([O:6][H:10])[O:7]1)\[H:8]"
N        2.26093246      -0.20677333       0.12358832
C        1.01974291      -0.11640368       0.09606494
C       -0.01770429      -1.16655700       0.00938806
C       -1.22198339      -0.61862063      -0.21216038
C       -0.90758985       0.81360165      -0.27589872
O       -1.94644515       1.47322367      -0.06951885
O        0.32429118       1.13045476       0.10001288
H        2.71712419       0.70201106       0.13462348
H        0.26418973      -2.21011623       0.03592582
H       -2.49255779       0.19917972       0.05797444
10
Frame=11 idx=008631 GeodesicLength=0.4672757642589419 rxn_smarts="[N:1](=[C:2]1/[C:3]([H:9])=[C:4]([H:10])[C:5](=[O:6])[O:7]1)\[H:8]>>[N:1](=[C:2]1/[C:3]([H:9])=[C:4]=[C:5]([O:6][H:10])[O:7]1)\[H:8]"
N        2.26055082      -0.20795624       0.12595178
C        1.01910821      -0.11483256       0.09877375
C       -0.01836915      -1.16364197       0.00702659
C       -1.22121935      -0.61578443      -0.22177622
C       -0.90545714       0.81851675      -0.28927969
O       -1.94344287       1.47530535      -0.07092246
O        0.32499403       1.12945490       0.10467825
H        2.71766510       0.70047908       0.13416815
H        0.26067574      -2.20782225       0.03859160
H       -2.49450540       0.18628137       0.07278825
10
Frame=12 idx=008631 GeodesicLength=0.5098581884531344 rxn_smarts="[N:1](=[C:2]1/[C:3]([H:9])=[C:4]([H:10])[C:5](=[O:6])[O:7]1)\[H:8]>>[N:1](=[C:2]1/[C:3]([H:9])=[C:4]=[C:5]([O:6][H:10])[O:7]1)\[H:8]"
N        2.26013734      -0.20914896       0.12845620
C        1.01844679      -0.11326389       0.10164705
C       -0.01907545      -1.16071094       0.00502597
C       -1.22051652      -0.61289188      -0.23062289
C       -0.90328295       0.82345700      -0.30208730
O       -1.94037879       1.47751963      -0.07262300
O        0.32569808       1.12847979       0.10920509
H        2.71818707       0.69892378       0.13337251
H        0.25717531      -2.20550176       0.04063623
H       -2.49639088       0.17313722       0.08699013
10
Frame=13 idx=008631 GeodesicLength=0.552445066205634 rxn_smarts="[N:1](=[C:2]1/[C:3]([H:9])=[C:4]([H:10])[C:5](=[O:6])[O:7]1)\[H:8]>>[N:1](=[C:2]1/[C:3]([H:9])=[C:4]=[C:5]([O:6][H:10])[O:7]1)\[H:8]"
N        2.25970364      -0.21035206       0.13082318
C        1.01777434      -0.11168451       0.10431105
C       -0.01981354      -1.15776070       0.00317073
C       -1.21991369      -0.60995680      -0.23874665
C       -0.90111202       0.82839944      -0.31453696
O       -1.93726215       1.47987011      -0.07463151
O        0.32642148       1.12754416       0.11325812
H        2.71869193       0.69734212       0.13300566
H        0.25367056      -2.20315410       0.04225783
H       -2.49816056       0.15975234       0.10108855
10
Frame=14 idx=008631 GeodesicLength=0.5950390268842838 rxn_smarts="[N:1](=[C:2]1/[C:3]([H:9])=[C:4]([H:10])[C:5](=[O:6])[O:7]1)\[H:8]>>[N:1](=[C:2]1/[C:3]([H:9])=[C:4]=[C:5]([O:6][H:10])[O:7]1)\[H:8]"
N        2.25930148      -0.21156746       0.13188465
C        1.01713542      -0.11007443       0.10604548
C       -0.02057885      -1.15478904       0.00127636
C       -1.21950287      -0.60702401      -0.24601073
C       -0.89905149       0.83327493      -0.32693679
O       -1.93410368       1.48235915      -0.07695550
O        0.32721799       1.12667376       0.11611776
H        2.71919056       0.69575201       0.13498391
H        0.25012473      -2.20077072       0.04381495
H       -2.49973330       0.14616582       0.11577990
10
Frame=15 idx=008631 GeodesicLength=0.6376433177880485 rxn_smarts="[N:1](=[C:2]1/[C:3]([H:9])=[C:4]([H:10])[C:5](=[O:6])[O:7]1)\[H:8]>>[N:1](=[C:2]1/[C:3]([H:9])=[C:4]=[C:5]([O:6][H:10])[O:7]1)\[H:8]"
N        2.25883780      -0.21279265       0.13357881
C        1.01644965      -0.10846590       0.10803369
C       -0.02135757      -1.15180159      -0.00071835
C       -1.21913529      -0.60400265      -0.25296600
C       -0.89692585       0.83821221      -0.33896839
O       -1.93089319       1.48498894      -0.07957352
O        0.32798262       1.12582202       0.11909533
H        2.71966365       0.69413713       0.13620441
H        0.24653652      -2.19836922       0.04505512
H       -2.50115833       0.13227170       0.13025890
10
Frame=16 idx=008631 GeodesicLength=0.6802572028217961 rxn_smarts="[N:1](=[C:2]1/[C:3]([H:9])=[C:4]([H:10])[C:5](=[O:6])[O:7]1)\[H:8]>>[N:1](=[C:2]1/[C:3]([H:9])=[C:4]=[C:5]([O:6][H:10])[O:7]1)\[H:8]"
N        2.25829582      -0.21402670       0.13622665
C        1.01570164      -0.10686512       0.11047864
C       -0.02213827      -1.14879618      -0.00288997
C       -1.21877660      -0.60086556      -0.25976409
C       -0.89469386       0.84324900      -0.35059532
O       -1.92762473       1.48776374      -0.08243292
O        0.32869763       1.12498093       0.12242816
H        2.72010460       0.69249145       0.13613193
H        0.24288609      -2.19595056       0.04603077
H       -2.50245232       0.11801899       0.14438614
