11
Frame=0 idx=002069 GeodesicLength=0.0 rxn_smarts="[C:1]([c:2]1[c:3]([H:10])[o:4][c:5]([H:11])[n:6]1)([H:7])([H:8])[H:9]>>[C:1]1([H:8])([H:9])[C:2](=[N:6][C:5](=[O:4])[H:11])[C:3]1([H:7])[H:10]"
C       -1.57287925      -0.12167321      -0.23916967
C       -0.09960931      -0.21524183      -0.13993915
C       -0.39254972       0.37124707       1.07321464
O        2.32897471       0.43408485       0.52508678
C        2.10295580      -0.30372145      -0.40407747
N        0.83952271      -0.60616271      -0.91850525
H       -1.73141987       0.26970400       0.93930405
H       -2.13421307      -1.03752619      -0.07954450
H       -1.96004871       0.56857608      -0.98180948
H       -0.29418588       1.44983009       1.17523775
H        2.91345260      -0.80911672      -0.94979769
11
Frame=1 idx=002069 GeodesicLength=0.08053704432404155 rxn_smarts="[C:1]([c:2]1[c:3]([H:10])[o:4][c:5]([H:11])[n:6]1)([H:7])([H:8])[H:9]>>[C:1]1([H:8])([H:9])[C:2](=[N:6][C:5](=[O:4])[H:11])[C:3]1([H:7])[H:10]"
C       -1.57843995      -0.12055955      -0.23436633
C       -0.10380733      -0.18870022      -0.17557442
C       -0.36410041       0.39432785       1.04765932
O        2.30202341       0.41484866       0.54891245
C        2.09763971      -0.30100914      -0.40718192
N        0.84292862      -0.60359330      -0.93477337
H       -1.71591040       0.23224253       0.97108127
H       -2.11479862      -1.05500072      -0.09887392
H       -1.99353628       0.58026790      -0.95168216
H       -0.28883049       1.47403779       1.15325115
H        2.91683174      -0.82686181      -0.91845206
11
Frame=2 idx=002069 GeodesicLength=0.1612340863206872 rxn_smarts="[C:1]([c:2]1[c:3]([H:10])[o:4][c:5]([H:11])[n:6]1)([H:7])([H:8])[H:9]>>[C:1]1([H:8])([H:9])[C:2](=[N:6][C:5](=[O:4])[H:11])[C:3]1([H:7])[H:10]"
C       -1.58294653      -0.11929803      -0.22982616
C       -0.10817650      -0.16139448      -0.21087583
C       -0.33690980       0.41693403       1.02205615
O        2.27438478       0.40132171       0.56747237
C        2.09189136      -0.30008496      -0.40870158
N        0.84573362      -0.60298479      -0.94860905
H       -1.69665780       0.19257488       1.00164781
H       -2.09568622      -1.07030415      -0.12130756
H       -2.02542639       0.59224122      -0.91982708
H       -0.28417148       1.49698459       1.13367942
H        2.91796496      -0.84599001      -0.88570850
11
Frame=3 idx=002069 GeodesicLength=0.24206770254932905 rxn_smarts="[C:1]([c:2]1[c:3]([H:10])[o:4][c:5]([H:11])[n:6]1)([H:7])([H:8])[H:9]>>[C:1]1([H:8])([H:9])[C:2](=[N:6][C:5](=[O:4])[H:11])[C:3]1([H:7])[H:10]"
C       -1.58642614      -0.11808912      -0.22548776
C       -0.11272288      -0.13418106      -0.24536697
C       -0.31099028       0.43915625       0.99652642
O        2.24644743       0.39302498       0.58157334
C        2.08555414      -0.30109485      -0.40860615
N        0.84775409      -0.60336506      -0.96053898
H       -1.67376399       0.15104401       1.03064509
H       -2.07733311      -1.08334561      -0.14636235
H       -2.05543130       0.60408633      -0.88644695
H       -0.28007501       1.51882502       1.11601040
H        2.91698705      -0.86606090      -0.85194610
11
Frame=4 idx=002069 GeodesicLength=0.32297394476627717 rxn_smarts="[C:1]([c:2]1[c:3]([H:10])[o:4][c:5]([H:11])[n:6]1)([H:7])([H:8])[H:9]>>[C:1]1([H:8])([H:9])[C:2](=[N:6][C:5](=[O:4])[H:11])[C:3]1([H:7])[H:10]"
C       -1.58905418      -0.11706868      -0.22128857
C       -0.11751898      -0.10912169      -0.27781680
C       -0.28658679       0.46109024       0.97133407
O        2.21833959       0.38687740       0.59380404
C        2.07853408      -0.30329006      -0.40724236
N        0.84887920      -0.60625098      -0.96956533
H       -1.64801368       0.10936506       1.05752699
H       -2.06111030      -1.09362763      -0.17286865
H       -2.08243956       0.61529458      -0.85276700
H       -0.27583054       1.53983128       1.09891132
H        2.91480115      -0.88309951      -0.82002772
11
Frame=5 idx=002069 GeodesicLength=0.40407664557614087 rxn_smarts="[C:1]([c:2]1[c:3]([H:10])[o:4][c:5]([H:11])[n:6]1)([H:7])([H:8])[H:9]>>[C:1]1([H:8])([H:9])[C:2](=[N:6][C:5](=[O:4])[H:11])[C:3]1([H:7])[H:10]"
C       -1.59078951      -0.11649664      -0.21707284
C       -0.12235992      -0.08478634      -0.30921405
C       -0.26324710       0.48261435       0.94634253
O        2.19055042       0.38578010       0.60213146
C        2.07096709      -0.30642096      -0.40510888
N        0.84938349      -0.60660250      -0.97914871
H       -1.61881290       0.06595222       1.08265283
H       -2.04572764      -1.10217690      -0.20113570
H       -2.10778865       0.62575264      -0.81754334
H       -0.27219446       1.55984913       1.08329817
H        2.91001918      -0.90346511      -0.78520146
11
Frame=6 idx=002069 GeodesicLength=0.4852969518034367 rxn_smarts="[C:1]([c:2]1[c:3]([H:10])[o:4][c:5]([H:11])[n:6]1)([H:7])([H:8])[H:9]>>[C:1]1([H:8])([H:9])[C:2](=[N:6][C:5](=[O:4])[H:11])[C:3]1([H:7])[H:10]"
C       -1.59184198      -0.11636319      -0.21282781
C       -0.12733716      -0.06245668      -0.33879646
C       -0.24117623       0.50375577       0.92175855
O        2.16304223       0.38696644       0.60864279
C        2.06285952      -0.31000200      -0.40233329
N        0.84934588      -0.60659821      -0.98803053
H       -1.58700438       0.02237765       1.10566708
H       -2.03218249      -1.10860977      -0.23022938
H       -2.13068659       0.63521091      -0.78189258
H       -0.26859524       1.57906139       1.06826484
H        2.90357643      -0.92334230      -0.75022321
11
Frame=7 idx=002069 GeodesicLength=0.5666511976624062 rxn_smarts="[C:1]([c:2]1[c:3]([H:10])[o:4][c:5]([H:11])[n:6]1)([H:7])([H:8])[H:9]>>[C:1]1([H:8])([H:9])[C:2](=[N:6][C:5](=[O:4])[H:11])[C:3]1([H:7])[H:10]"
C       -1.59234681      -0.11666682      -0.20853344
C       -0.13244856      -0.04219863      -0.36656562
C       -0.22033506       0.52445981       0.89762936
O        2.13586254       0.38978945       0.61387773
C        2.05431422      -0.31383206      -0.39907593
N        0.84888369      -0.60648643      -0.99618602
H       -1.55301943      -0.02092121       1.12655183
H       -2.02058331      -1.11302426      -0.25977876
H       -2.15118218       0.64363108      -0.74609684
H       -0.26494097       1.59749238       1.05365803
H        2.89579587      -0.94224331      -0.71548034
11
Frame=8 idx=002069 GeodesicLength=0.6481178587825267 rxn_smarts="[C:1]([c:2]1[c:3]([H:10])[o:4][c:5]([H:11])[n:6]1)([H:7])([H:8])[H:9]>>[C:1]1([H:8])([H:9])[C:2](=[N:6][C:5](=[O:4])[H:11])[C:3]1([H:7])[H:10]"
C       -1.59240303      -0.11740340      -0.20418234
C       -0.13767552      -0.02386980      -0.39267874
C       -0.20064489       0.54469002       0.87395603
O        2.10907288       0.39387521       0.61806536
C        2.04539068      -0.31780800      -0.39539394
N        0.84810688      -0.60634504      -1.00368703
H       -1.51719592      -0.06372755       1.14536465
H       -2.01086969      -1.11557799      -0.28955164
H       -2.16944794       0.65103403      -0.71028519
H       -0.26120705       1.61517989       1.03943954
H        2.88687359      -0.96004736      -0.68104669
11
Frame=9 idx=002069 GeodesicLength=0.729739694746829 rxn_smarts="[C:1]([c:2]1[c:3]([H:10])[o:4][c:5]([H:11])[n:6]1)([H:7])([H:8])[H:9]>>[C:1]1([H:8])([H:9])[C:2](=[N:6][C:5](=[O:4])[H:11])[C:3]1([H:7])[H:10]"
C       -1.59209003      -0.11855746      -0.19977095
C       -0.14299034      -0.00728654      -0.41725754
C       -0.18202785       0.56442407       0.85072853
O        2.08271829       0.39903824       0.62142356
C        2.03616473      -0.32191164      -0.39136078
N        0.84709186      -0.60625561      -1.01054199
H       -1.47985292      -0.10589790       1.16217617
H       -2.00295341      -1.11639502      -0.31939870
H       -2.18565505       0.65744804      -0.67454861
H       -0.25741103       1.63213926       1.02558512
H        2.87700575      -0.97674543      -0.64703481
11
Frame=10 idx=002069 GeodesicLength=0.811464601415162 rxn_smarts="[C:1]([c:2]1[c:3]([H:10])[o:4][c:5]([H:11])[n:6]1)([H:7])([H:8])[H:9]>>[C:1]1([H:8])([H:9])[C:2](=[N:6][C:5](=[O:4])[H:11])[C:3]1([H:7])[H:10]"
C       -1.59145892      -0.12012658      -0.19530074
C       -0.14839301       0.00773219      -0.44048390
C       -0.16438678       0.58363788       0.82793030
O        2.05683674       0.40520388       0.62390789
C        2.02668061      -0.32609245      -0.38699594
N        0.84589376      -0.60620110      -1.01687194
H       -1.44120445      -0.14740664       1.17708700
H       -1.99671279      -1.11559030      -0.34924416
H       -2.19997260       0.66292881      -0.63889122
H       -0.25357433       1.64838915       1.01213698
H        2.86629178      -0.99247485      -0.61327427
11
Frame=11 idx=002069 GeodesicLength=0.8932963231592977 rxn_smarts="[C:1]([c:2]1[c:3]([H:10])[o:4][c:5]([H:11])[n:6]1)([H:7])([H:8])[H:9]>>[C:1]1([H:8])([H:9])[C:2](=[N:6][C:5](=[O:4])[H:11])[C:3]1([H:7])[H:10]"
C       -1.59056045      -0.12209561      -0.19077759
C       -0.15386767       0.02129572      -0.46245260
C       -0.14764735       0.60231741       0.80554496
O        2.03145569       0.41224566       0.62562423
C        2.01698477      -0.33033872      -0.38233012
N        0.84455486      -0.60630538      -1.02264210
H       -1.40150367      -0.18818748       1.19019215
H       -1.99208304      -1.11322140      -0.37901602
H       -2.21251288       0.66753128      -0.60337245
H       -0.24971113       1.66394008       0.99907258
H        2.85489087      -1.00718155      -0.57984305
11
Frame=12 idx=002069 GeodesicLength=0.9752332226726107 rxn_smarts="[C:1]([c:2]1[c:3]([H:10])[o:4][c:5]([H:11])[n:6]1)([H:7])([H:8])[H:9]>>[C:1]1([H:8])([H:9])[C:2](=[N:6][C:5](=[O:4])[H:11])[C:3]1([H:7])[H:10]"
C       -1.58941206      -0.12447416      -0.18620149
C       -0.15939705       0.03360867      -0.48331840
C       -0.13171790       0.62047632       0.78353332
O        2.00663199       0.42025731       0.62646343
C        2.00710389      -0.33465317      -0.37738813
N        0.84312834      -0.60643531      -1.02800792
H       -1.36086571      -0.22833229       1.20158518
H       -1.98891014      -1.10937391      -0.40870497
H       -2.22343787       0.67127995      -0.56792593
H       -0.24588521       1.67881117       0.98644037
H        2.84276171      -1.02116459      -0.54647547
11
Frame=13 idx=002069 GeodesicLength=1.057273377226668 rxn_smarts="[C:1]([c:2]1[c:3]([H:10])[o:4][c:5]([H:11])[n:6]1)([H:7])([H:8])[H:9]>>[C:1]1([H:8])([H:9])[C:2](=[N:6][C:5](=[O:4])[H:11])[C:3]1([H:7])[H:10]"
C       -1.58804607      -0.12725505      -0.18158149
C       -0.16496870       0.04474432      -0.50315819
C       -0.11653468       0.63812086       0.76186801
O        1.98238865       0.42914284       0.62648457
C        1.99706608      -0.33903430      -0.37217800
N        0.84164575      -0.60668137      -1.03294828
H       -1.31947250      -0.26783521       1.21136082
H       -1.98714016      -1.10406753      -0.43826760
H       -2.23283003       0.67421959      -0.53258416
H       -0.24211497       1.69302150       0.97421299
H        2.83000663      -1.03437564      -0.51320866
11
Frame=14 idx=002069 GeodesicLength=1.1394191168637529 rxn_smarts="[C:1]([c:2]1[c:3]([H:10])[o:4][c:5]([H:11])[n:6]1)([H:7])([H:8])[H:9]>>[C:1]1([H:8])([H:9])[C:2](=[N:6][C:5](=[O:4])[H:11])[C:3]1([H:7])[H:10]"
C       -1.58645473      -0.13046110      -0.17691928
C       -0.17057428       0.05488925      -0.52210581
C       -0.10201405       0.65528074       0.74050223
O        1.95878230       0.43908176       0.62550537
C        1.98688580      -0.34348311      -0.36672576
N        0.84015341      -0.60684868      -1.03764768
H       -1.27734008      -0.30684233       1.21958363
H       -1.98662039      -1.09734758      -0.46771717
H       -2.24081614       0.67633731      -0.49724496
H       -0.23847521       1.70657631       0.96245351
H        2.81647338      -1.04718256      -0.47968409
11
Frame=15 idx=002069 GeodesicLength=1.2216678964116032 rxn_smarts="[C:1]([c:2]1[c:3]([H:10])[o:4][c:5]([H:11])[n:6]1)([H:7])([H:8])[H:9]>>[C:1]1([H:8])([H:9])[C:2](=[N:6][C:5](=[O:4])[H:11])[C:3]1([H:7])[H:10]"
C       -1.58465342      -0.13409348      -0.17222824
C       -0.17620490       0.06409825      -0.54022620
C       -0.08810142       0.67196929       0.71940208
O        1.93583454       0.45002885       0.62352525
C        1.97657984      -0.34799049      -0.36103847
N        0.83868090      -0.60698399      -1.04210894
H       -1.23457885      -0.34539041       1.22632163
H       -1.98730383      -1.08920491      -0.49701595
H       -2.24744887       0.67765738      -0.46191652
H       -0.23498644       1.71948253       0.95114919
H        2.80218244      -1.05957302      -0.44586383
11
Frame=16 idx=002069 GeodesicLength=1.304026183983997 rxn_smarts="[C:1]([c:2]1[c:3]([H:10])[o:4][c:5]([H:11])[n:6]1)([H:7])([H:8])[H:9]>>[C:1]1([H:8])([H:9])[C:2](=[N:6][C:5](=[O:4])[H:11])[C:3]1([H:7])[H:10]"
C       -1.58262555      -0.13817654      -0.16751774
C       -0.18185070       0.07250394      -0.55762425
C       -0.07472887       0.68821866       0.69851857
O        1.91360007       0.46211838       0.62038096
C        1.96615412      -0.35254352      -0.35514138
N        0.83727586      -0.60694241      -1.04647591
H       -1.19117095      -0.38361703       1.23160817
H       -1.98907536      -1.07964927      -0.52615044
H       -2.25280576       0.67815433      -0.42651723
H       -0.23170603       1.73173683       0.94034860
H        2.78693316      -1.07180338      -0.41142935
