10
Frame=0 idx=006144 GeodesicLength=0.0 rxn_smarts="[N:1]([c:2]1[c:3]([H:9])[c:4]([H:10])[n:5][o:6]1)([H:7])[H:8]>>[N:1](=[C:2]1/[C:3]([H:8])([H:9])[C:4]([H:10])=[N:5][O:6]1)\[H:7]"
N        1.81715452      -0.11369461      -0.10317095
C        0.56320169      -0.43689461      -0.01182858
C       -0.28973591       0.64955168      -0.40638604
C       -1.48417299       0.26162560       0.32003942
N       -1.40478697      -0.88736001       0.89351851
O       -0.06808096      -1.38865724       0.64363990
H        2.57389185      -0.77292792       0.01130830
H        1.11747128       1.05189997      -0.27088153
H       -0.39034870       0.86225122      -1.46741626
H       -2.43459382       0.77420591       0.39117723
10
Frame=1 idx=006144 GeodesicLength=0.039115424308824434 rxn_smarts="[N:1]([c:2]1[c:3]([H:9])[c:4]([H:10])[n:5][o:6]1)([H:7])[H:8]>>[N:1](=[C:2]1/[C:3]([H:8])([H:9])[C:4]([H:10])=[N:5][O:6]1)\[H:7]"
N        1.81716800      -0.11834663      -0.11917963
C        0.56211039      -0.44567897      -0.03714839
C       -0.29192517       0.64742856      -0.41228043
C       -1.48063724       0.26066862       0.32419132
N       -1.39935118      -0.89134256       0.89111243
O       -0.06267137      -1.38565299       0.64505699
H        2.56569936      -0.77553947       0.05056988
H        1.12051572       1.06107028      -0.27439919
H       -0.40137392       0.87235863      -1.46973735
H       -2.42953458       0.77503453       0.40181437
10
Frame=2 idx=006144 GeodesicLength=0.0781786383528867 rxn_smarts="[N:1]([c:2]1[c:3]([H:9])[c:4]([H:10])[n:5][o:6]1)([H:7])[H:8]>>[N:1](=[C:2]1/[C:3]([H:8])([H:9])[C:4]([H:10])=[N:5][O:6]1)\[H:7]"
N        1.81722213      -0.12324975      -0.13379034
C        0.56101499      -0.45423030      -0.06081060
C       -0.29374867       0.64508100      -0.41788970
C       -1.47700609       0.25973078       0.32815706
N       -1.39408415      -0.89513256       0.88883646
O       -0.05745460      -1.38255703       0.64662689
H        2.55604459      -0.77694855       0.08640768
H        1.12391418       1.07006024      -0.27714990
H       -0.41142138       0.88152112      -1.47178932
H       -2.42448101       0.77572504       0.41140176
10
Frame=3 idx=006144 GeodesicLength=0.11727223379250115 rxn_smarts="[N:1]([c:2]1[c:3]([H:9])[c:4]([H:10])[n:5][o:6]1)([H:7])[H:8]>>[N:1](=[C:2]1/[C:3]([H:8])([H:9])[C:4]([H:10])=[N:5][O:6]1)\[H:7]"
N        1.81735903      -0.12838750      -0.14728842
C        0.55992061      -0.46258313      -0.08309089
C       -0.29526870       0.64257456      -0.42322962
C       -1.47330791       0.25886062       0.33203933
N       -1.38887982      -0.89863141       0.88694336
O       -0.05246741      -1.37951903       0.64809418
H        2.54522682      -0.77736651       0.11945583
H        1.12767989       1.07890380      -0.27930080
H       -0.42069812       0.88995993      -1.47356264
H       -2.41956439       0.77618867       0.41993968
10
Frame=4 idx=006144 GeodesicLength=0.15645284639940257 rxn_smarts="[N:1]([c:2]1[c:3]([H:9])[c:4]([H:10])[n:5][o:6]1)([H:7])[H:8]>>[N:1](=[C:2]1/[C:3]([H:8])([H:9])[C:4]([H:10])=[N:5][O:6]1)\[H:7]"
N        1.81749151      -0.13352429      -0.15957070
C        0.55882982      -0.47072461      -0.10412470
C       -0.29656721       0.63991513      -0.42841335
C       -1.46953247       0.25799185       0.33573426
N       -1.38362605      -0.90184146       0.88546896
O       -0.04775867      -1.37665226       0.64920415
H        2.53348653      -0.77713587       0.15010651
H        1.13164362       1.08779637      -0.28096340
H       -0.42934392       0.89760622      -1.47519782
H       -2.41462314       0.77656891       0.42775609
10
Frame=5 idx=006144 GeodesicLength=0.1955430775813265 rxn_smarts="[N:1]([c:2]1[c:3]([H:9])[c:4]([H:10])[n:5][o:6]1)([H:7])[H:8]>>[N:1](=[C:2]1/[C:3]([H:8])([H:9])[C:4]([H:10])=[N:5][O:6]1)\[H:7]"
N        1.81765196      -0.13868087      -0.17095160
C        0.55775872      -0.47870174      -0.12423680
C       -0.29768474       0.63704667      -0.43356179
C       -1.46574597       0.25704721       0.33924407
N       -1.37836851      -0.90477783       0.88436922
O       -0.04336641      -1.37407485       0.64971666
H        2.52096065      -0.77609732       0.17919383
H        1.13577256       1.09663941      -0.28235235
H       -0.43740531       0.90456124      -1.47679495
H       -2.40957294       0.77703808       0.43537370
10
Frame=6 idx=006144 GeodesicLength=0.23467872757531813 rxn_smarts="[N:1]([c:2]1[c:3]([H:9])[c:4]([H:10])[n:5][o:6]1)([H:7])[H:8]>>[N:1](=[C:2]1/[C:3]([H:8])([H:9])[C:4]([H:10])=[N:5][O:6]1)\[H:7]"
N        1.81778803      -0.14378349      -0.18134797
C        0.55669058      -0.48656613      -0.14352530
C       -0.29867024       0.63396761      -0.43875665
C       -1.46192880       0.25600874       0.34248727
N       -1.37309720      -0.90753812       0.88354653
O       -0.03929598      -1.37187006       0.64962645
H        2.50777712      -0.77432971       0.20692958
H        1.13999834       1.10554275      -0.28353172
H       -0.44502011       0.91081905      -1.47845138
H       -2.40424173       0.77774935       0.44302319
10
Frame=7 idx=006144 GeodesicLength=0.27390804098527965 rxn_smarts="[N:1]([c:2]1[c:3]([H:9])[c:4]([H:10])[n:5][o:6]1)([H:7])[H:8]>>[N:1](=[C:2]1/[C:3]([H:8])([H:9])[C:4]([H:10])=[N:5][O:6]1)\[H:7]"
N        1.81796454      -0.14870966      -0.19045128
C        0.55570503      -0.49430013      -0.16191676
C       -0.29955147       0.63067975      -0.44401002
C       -1.45816310       0.25486709       0.34538773
N       -1.36786499      -0.91017483       0.88291059
O       -0.03547072      -1.36994964       0.64919936
H        2.49398704      -0.77209815       0.23284041
H        1.14424916       1.11461428      -0.28438105
H       -0.45216278       0.91633751      -1.48025138
H       -2.39869271       0.77873378       0.45067241
10
Frame=8 idx=006144 GeodesicLength=0.3133620640393943 rxn_smarts="[N:1]([c:2]1[c:3]([H:9])[c:4]([H:10])[n:5][o:6]1)([H:7])[H:8]>>[N:1](=[C:2]1/[C:3]([H:8])([H:9])[C:4]([H:10])=[N:5][O:6]1)\[H:7]"
N        1.81817939      -0.15362284      -0.19886769
C        0.55477993      -0.50205567      -0.17986576
C       -0.30036567       0.62714512      -0.44948016
C       -1.45437432       0.25358494       0.34802219
N       -1.36267517      -0.91286921       0.88224038
O       -0.03193785      -1.36854817       0.64800135
H        2.47948206      -0.76891822       0.25846548
H        1.14855747       1.12375682      -0.28532480
H       -0.45905741       0.92122951      -1.48229514
H       -2.39258844       0.78029772       0.45910415
10
Frame=9 idx=006144 GeodesicLength=0.35267074020242034 rxn_smarts="[N:1]([c:2]1[c:3]([H:9])[c:4]([H:10])[n:5][o:6]1)([H:7])[H:8]>>[N:1](=[C:2]1/[C:3]([H:8])([H:9])[C:4]([H:10])=[N:5][O:6]1)\[H:7]"
N        1.81832786      -0.15828037      -0.20627220
C        0.55392501      -0.50971236      -0.19727847
C       -0.30119899       0.62327592      -0.45530077
C       -1.45069954       0.25200764       0.35003978
N       -1.35753178      -0.91558935       0.88145301
O       -0.02868778      -1.36760436       0.64606022
H        2.46463194      -0.76514377       0.28356327
H        1.15266206       1.13307295      -0.28614332
H       -0.46569250       0.92530818      -1.48478174
H       -2.38573628       0.78266552       0.46866023
10
Frame=10 idx=006144 GeodesicLength=0.392070627897009 rxn_smarts="[N:1]([c:2]1[c:3]([H:9])[c:4]([H:10])[n:5][o:6]1)([H:7])[H:8]>>[N:1](=[C:2]1/[C:3]([H:8])([H:9])[C:4]([H:10])=[N:5][O:6]1)\[H:7]"
N        1.81840168      -0.16292725      -0.21302942
C        0.55308744      -0.51734677      -0.21416699
C       -0.30188780       0.61927606      -0.46103847
C       -1.44678215       0.25053456       0.35216203
N       -1.35236319      -0.91820471       0.88072134
O       -0.02567965      -1.36690403       0.64380049
H        2.44900656      -0.76082371       0.30765520
H        1.15687540       1.14251892      -0.28689966
H       -0.47209404       0.92890235      -1.48712841
H       -2.37856425       0.78497457       0.47792387
10
Frame=11 idx=006144 GeodesicLength=0.4316752171491052 rxn_smarts="[N:1]([c:2]1[c:3]([H:9])[c:4]([H:10])[n:5][o:6]1)([H:7])[H:8]>>[N:1](=[C:2]1/[C:3]([H:8])([H:9])[C:4]([H:10])=[N:5][O:6]1)\[H:7]"
N        1.81853669      -0.16774413      -0.21952050
C        0.55235099      -0.52512268      -0.23086903
C       -0.30251832       0.61506968      -0.46696036
C       -1.44275597       0.24899522       0.35430053
N       -1.34730212      -0.92101309       0.87984423
O       -0.02295276      -1.36677818       0.64083356
H        2.43275446      -0.75536822       0.33199856
H        1.16118372       1.15195259      -0.28785703
H       -0.47838189       0.93211925      -1.48970901
H       -2.37091480       0.78788955       0.48793905
10
Frame=12 idx=006144 GeodesicLength=0.4711378957352735 rxn_smarts="[N:1]([c:2]1[c:3]([H:9])[c:4]([H:10])[n:5][o:6]1)([H:7])[H:8]>>[N:1](=[C:2]1/[C:3]([H:8])([H:9])[C:4]([H:10])=[N:5][O:6]1)\[H:7]"
N        1.81855336      -0.17216147      -0.22505039
C        0.55162321      -0.53268994      -0.24697066
C       -0.30313522       0.61063292      -0.47303115
C       -1.43879631       0.24730973       0.35598534
N       -1.34227072      -0.92368642       0.87896616
O       -0.02042523      -1.36682930       0.63760055
H        2.41618785      -0.74997427       0.35523544
H        1.16531405       1.16174554      -0.28855088
H       -0.48444477       0.93464967      -1.49243199
H       -2.36260622       0.79100353       0.49824758
10
Frame=13 idx=006144 GeodesicLength=0.5108458073297545 rxn_smarts="[N:1]([c:2]1[c:3]([H:9])[c:4]([H:10])[n:5][o:6]1)([H:7])[H:8]>>[N:1](=[C:2]1/[C:3]([H:8])([H:9])[C:4]([H:10])=[N:5][O:6]1)\[H:7]"
N        1.81861596      -0.17656372      -0.22999470
C        0.55105132      -0.54033467      -0.26273292
C       -0.30371856       0.60602346      -0.47926862
C       -1.43481155       0.24556268       0.35751136
N       -1.33735870      -0.92653417       0.87790385
O       -0.01807542      -1.36726746       0.63405670
H        2.39906802      -0.74396461       0.37804639
H        1.16940239       1.17173694      -0.28923679
H       -0.49033944       0.93675214      -1.49542246
H       -2.35383403       0.79458943       0.50913719
10
Frame=14 idx=006144 GeodesicLength=0.5505697422559674 rxn_smarts="[N:1]([c:2]1[c:3]([H:9])[c:4]([H:10])[n:5][o:6]1)([H:7])[H:8]>>[N:1](=[C:2]1/[C:3]([H:8])([H:9])[C:4]([H:10])=[N:5][O:6]1)\[H:7]"
N        1.81862635      -0.18083122      -0.23433947
C        0.55054835      -0.54797240      -0.27806378
C       -0.30424879       0.60123190      -0.48557495
C       -1.43079747       0.24371894       0.35885952
N       -1.33255873      -0.92941078       0.87673733
O       -0.01591417      -1.36790263       0.63036411
H        2.38154331      -0.73761345       0.40002982
H        1.17344101       1.18195556      -0.28973479
H       -0.49602896       0.93837794      -1.49850984
H       -2.34461090       0.79844613       0.52023205
10
Frame=15 idx=006144 GeodesicLength=0.5902483032412101 rxn_smarts="[N:1]([c:2]1[c:3]([H:9])[c:4]([H:10])[n:5][o:6]1)([H:7])[H:8]>>[N:1](=[C:2]1/[C:3]([H:8])([H:9])[C:4]([H:10])=[N:5][O:6]1)\[H:7]"
N        1.81858448      -0.18496668      -0.23817095
C        0.55010510      -0.55557230      -0.29295354
C       -0.30472172       0.59627880      -0.49190056
C       -1.42677327       0.24180409       0.36004759
N       -1.32786913      -0.93225817       0.87551682
O       -0.01392101      -1.36865678       0.62661933
H        2.36368702      -0.73104420       0.42109316
H        1.17743745       1.19239610      -0.28999175
H       -0.50150026       0.93957310      -1.50162079
H       -2.33502865       0.80244604       0.53136069
10
Frame=16 idx=006144 GeodesicLength=0.6299797012581255 rxn_smarts="[N:1]([c:2]1[c:3]([H:9])[c:4]([H:10])[n:5][o:6]1)([H:7])[H:8]>>[N:1](=[C:2]1/[C:3]([H:8])([H:9])[C:4]([H:10])=[N:5][O:6]1)\[H:7]"
N        1.81851031      -0.18898354      -0.24154293
C        0.54974081      -0.56314671      -0.30738691
C       -0.30515478       0.59122475      -0.49822542
C       -1.42277983       0.23986647       0.36109883
N       -1.32327535      -0.93507984       0.87432219
O       -0.01203283      -1.36949248       0.62296945
H        2.34563617      -0.72446202       0.44113108
H        1.18136204       1.20312201      -0.28992972
H       -0.50676540       0.94043344      -1.50479098
H       -2.32524114       0.80651792       0.54235439
