10
Frame=0 idx=003684 GeodesicLength=0.0 rxn_smarts="[c:1]1([H:7])[c:2]([H:8])[n:3][c:4]([H:9])[n:5][c:6]1[H:10]>>[C:1]1([H:7])=[C:6]([H:10])/[C:4](=[N:5]/[H:9])[N:3]=[C:2]1[H:8]"
C       -1.23703811       0.09025960       0.09037688
C       -0.33051352       1.16517947       0.03016768
N        0.99935593       1.11955008      -0.06662479
C        1.50494425      -0.05830298      -0.11114046
N        1.67760134      -1.25245551      -0.13059792
C       -0.77241087      -1.20737304       0.04891277
H       -2.28734583       0.38081045       0.17017213
H       -0.71842148       2.18079101       0.06482887
H        2.74534473      -0.47401450      -0.20439505
H       -1.58151644      -1.94444458       0.10829989
10
Frame=1 idx=003684 GeodesicLength=0.10233429545298416 rxn_smarts="[c:1]1([H:7])[c:2]([H:8])[n:3][c:4]([H:9])[n:5][c:6]1[H:10]>>[C:1]1([H:7])=[C:6]([H:10])/[C:4](=[N:5]/[H:9])[N:3]=[C:2]1[H:8]"
C       -1.23402699       0.09798710       0.07272036
C       -0.33438493       1.17990057      -0.00600609
N        0.99526450       1.12144841      -0.07223763
C        1.48426322      -0.06945260      -0.04454935
N        1.63998178      -1.26419469      -0.16479832
C       -0.73948850      -1.18821224       0.07782576
H       -2.28502575       0.37130185       0.18583209
H       -0.71856345       2.19449922       0.06998572
H        2.71831324      -0.49285301      -0.20991876
H       -1.52633313      -1.95042463       0.09114622
10
Frame=2 idx=003684 GeodesicLength=0.20577976330969394 rxn_smarts="[c:1]1([H:7])[c:2]([H:8])[n:3][c:4]([H:9])[n:5][c:6]1[H:10]>>[C:1]1([H:7])=[C:6]([H:10])/[C:4](=[N:5]/[H:9])[N:3]=[C:2]1[H:8]"
C       -1.23088436       0.10467475       0.05538848
C       -0.33613233       1.19272748      -0.02854185
N        0.99203946       1.12076987      -0.07643633
C        1.46205177      -0.08135245       0.00509851
N        1.60266814      -1.27175887      -0.19536365
C       -0.71024415      -1.16938181       0.09555945
H       -2.28215626       0.36240685       0.19229724
H       -0.71689354       2.20592722       0.07593242
H        2.69116345      -0.50853766      -0.21057926
H       -1.47161218      -1.95547537       0.08664500
10
Frame=3 idx=003684 GeodesicLength=0.3092831752807124 rxn_smarts="[c:1]1([H:7])[c:2]([H:8])[n:3][c:4]([H:9])[n:5][c:6]1[H:10]>>[C:1]1([H:7])=[C:6]([H:10])/[C:4](=[N:5]/[H:9])[N:3]=[C:2]1[H:8]"
C       -1.22756667       0.11069216       0.03984382
C       -0.33682931       1.20460384      -0.04334120
N        0.98940063       1.11949807      -0.07698615
C        1.43951643      -0.09325095       0.04249094
N        1.56745698      -1.27747123      -0.22131809
C       -0.68333420      -1.15160146       0.10076493
H       -2.27893243       0.35332028       0.19629913
H       -0.71504039       2.21653463       0.07979961
H        2.66541681      -0.52269708      -0.20847854
H       -1.42008785      -1.95962826       0.09092556
10
Frame=4 idx=003684 GeodesicLength=0.4128485855189069 rxn_smarts="[c:1]1([H:7])[c:2]([H:8])[n:3][c:4]([H:9])[n:5][c:6]1[H:10]>>[C:1]1([H:7])=[C:6]([H:10])/[C:4](=[N:5]/[H:9])[N:3]=[C:2]1[H:8]"
C       -1.22395723       0.11620188       0.02767934
C       -0.33681934       1.21563708      -0.05370961
N        0.98718314       1.11797962      -0.07413732
C        1.41724736      -0.10513060       0.07371250
N        1.53375465      -1.28195676      -0.24466741
C       -0.65810919      -1.13474090       0.10241084
H       -2.27571342       0.34409684       0.19798908
H       -0.71328642       2.22669363       0.08046135
H        2.64061428      -0.53587818      -0.20682886
H       -1.37091383      -1.96290260       0.09709009
10
Frame=5 idx=003684 GeodesicLength=0.5164517038557976 rxn_smarts="[c:1]1([H:7])[c:2]([H:8])[n:3][c:4]([H:9])[n:5][c:6]1[H:10]>>[C:1]1([H:7])=[C:6]([H:10])/[C:4](=[N:5]/[H:9])[N:3]=[C:2]1[H:8]"
C       -1.22018267       0.12129700       0.01746137
C       -0.33629823       1.22595557      -0.06125719
N        0.98522804       1.11626071      -0.06962903
C        1.39534950      -0.11694970       0.10105162
N        1.50149349      -1.28540660      -0.26636187
C       -0.63439752      -1.11879692       0.10053013
H       -2.27252019       0.33472171       0.19802944
H       -0.71148727       2.23643767       0.07975251
H        2.61676206      -0.54817071      -0.20520671
H       -1.32394720      -1.96534872       0.10562974
10
Frame=6 idx=003684 GeodesicLength=0.6200945552768355 rxn_smarts="[c:1]1([H:7])[c:2]([H:8])[n:3][c:4]([H:9])[n:5][c:6]1[H:10]>>[C:1]1([H:7])=[C:6]([H:10])/[C:4](=[N:5]/[H:9])[N:3]=[C:2]1[H:8]"
C       -1.21632833       0.12604085       0.00859525
C       -0.33536405       1.23561357      -0.06687520
N        0.98347622       1.11434818      -0.06358115
C        1.37380997      -0.12878528       0.12580460
N        1.47053244      -1.28786218      -0.28722587
C       -0.61207829      -1.10373462       0.09567704
H       -2.26926629       0.32523336       0.19746285
H       -0.70964161       2.24583383       0.07755502
H        2.59378831      -0.55966549      -0.20342925
H       -1.27892836      -1.96702224       0.11601670
10
Frame=7 idx=003684 GeodesicLength=0.723780147608013 rxn_smarts="[c:1]1([H:7])[c:2]([H:8])[n:3][c:4]([H:9])[n:5][c:6]1[H:10]>>[C:1]1([H:7])=[C:6]([H:10])/[C:4](=[N:5]/[H:9])[N:3]=[C:2]1[H:8]"
C       -1.21247118       0.13048879       0.00000212
C       -0.33409699       1.24472475      -0.07085473
N        0.98186052       1.11221948      -0.05672217
C        1.35258162      -0.14065076       0.14845939
N        1.44080228      -1.28949003      -0.30740319
C       -0.59107271      -1.08945640       0.08798750
H       -2.26606374       0.31561241       0.19539920
H       -0.70762639       2.25483041       0.07551106
H        2.57159551      -0.57040959      -0.20170628
H       -1.23550891      -1.96786906       0.12932711
10
Frame=8 idx=003684 GeodesicLength=0.8275060781883337 rxn_smarts="[c:1]1([H:7])[c:2]([H:8])[n:3][c:4]([H:9])[n:5][c:6]1[H:10]>>[C:1]1([H:7])=[C:6]([H:10])/[C:4](=[N:5]/[H:9])[N:3]=[C:2]1[H:8]"
C       -1.20863339       0.13467351      -0.00764382
C       -0.33258634       1.25329412      -0.07364630
N        0.98031627       1.10987923      -0.04923199
C        1.33162893      -0.15254406       0.16945678
N        1.41213833      -1.29033302      -0.32708440
C       -0.57126171      -1.07589365       0.07879589
H       -2.26287894       0.30592498       0.19296306
H       -0.70548608       2.26353235       0.07264447
H        2.55011808      -0.58059942      -0.19978038
H       -1.19335515      -1.96793404       0.14352670
10
Frame=9 idx=003684 GeodesicLength=0.931276264137661 rxn_smarts="[c:1]1([H:7])[c:2]([H:8])[n:3][c:4]([H:9])[n:5][c:6]1[H:10]>>[C:1]1([H:7])=[C:6]([H:10])/[C:4](=[N:5]/[H:9])[N:3]=[C:2]1[H:8]"
C       -1.20481402       0.13860673      -0.01482440
C       -0.33085432       1.26138290      -0.07517436
N        0.97883883       1.10731289      -0.04125526
C        1.31096097      -0.16449939       0.18900639
N        1.38441783      -1.29047900      -0.34644104
C       -0.55255660      -1.06298300       0.06845300
H       -2.25986545       0.29613249       0.18905062
H       -0.70316907       2.27191015       0.06985118
H        2.52925103      -0.59026890      -0.19808967
H       -1.15220920      -1.96711486       0.15942353
10
Frame=10 idx=003684 GeodesicLength=1.035099714101371 rxn_smarts="[c:1]1([H:7])[c:2]([H:8])[n:3][c:4]([H:9])[n:5][c:6]1[H:10]>>[C:1]1([H:7])=[C:6]([H:10])/[C:4](=[N:5]/[H:9])[N:3]=[C:2]1[H:8]"
C       -1.20099265       0.14228360      -0.02155814
C       -0.32894625       1.26902711      -0.07547692
N        0.97741287       1.10453142      -0.03312701
C        1.29062720      -0.17647020       0.20722638
N        1.35748514      -1.29001943      -0.36545117
C       -0.53483218      -1.05064974       0.05796080
H       -2.25713184       0.28622548       0.18309369
H       -0.70065930       2.27995425       0.06754678
H        2.50891469      -0.59951043      -0.19690720
H       -1.11187769      -1.96537205       0.17669279
10
Frame=11 idx=003684 GeodesicLength=1.1389753232705084 rxn_smarts="[c:1]1([H:7])[c:2]([H:8])[n:3][c:4]([H:9])[n:5][c:6]1[H:10]>>[C:1]1([H:7])=[C:6]([H:10])/[C:4](=[N:5]/[H:9])[N:3]=[C:2]1[H:8]"
C       -1.19713436       0.14569061      -0.02761207
C       -0.32689640       1.27624179      -0.07459599
N        0.97604049       1.10156972      -0.02508581
C        1.27072047      -0.18837561       0.22426915
N        1.33120366      -1.28903901      -0.38397036
C       -0.51794805      -1.03884242       0.04829897
H       -2.25471493       0.27620668       0.17498368
H       -0.69797144       2.28768638       0.06565501
H        2.48905621      -0.60837060      -0.19646418
H       -1.07235565      -1.96276754       0.19452161
10
Frame=12 idx=003684 GeodesicLength=1.242892846801875 rxn_smarts="[c:1]1([H:7])[c:2]([H:8])[n:3][c:4]([H:9])[n:5][c:6]1[H:10]>>[C:1]1([H:7])=[C:6]([H:10])/[C:4](=[N:5]/[H:9])[N:3]=[C:2]1[H:8]"
C       -1.19321824       0.14882311      -0.03288544
C       -0.32475667       1.28306346      -0.07265080
N        0.97472032       1.09846910      -0.01775331
C        1.25132106      -0.20005904       0.24023719
N        1.30552122      -1.28771296      -0.40159989
C       -0.50177668      -1.02751602       0.04000495
H       -2.25259059       0.26607719       0.16476948
H       -0.69511612       2.29510069       0.06444130
H        2.46966274      -0.61685114      -0.19681802
H       -1.03376705      -1.95939438       0.21225456
10
Frame=13 idx=003684 GeodesicLength=1.346847478237451 rxn_smarts="[c:1]1([H:7])[c:2]([H:8])[n:3][c:4]([H:9])[n:5][c:6]1[H:10]>>[C:1]1([H:7])=[C:6]([H:10])/[C:4](=[N:5]/[H:9])[N:3]=[C:2]1[H:8]"
C       -1.18921929       0.15168576      -0.03679071
C       -0.32254256       1.28950264      -0.06966119
N        0.97347584       1.09529595      -0.01118906
C        1.23253509      -0.21141258       0.25537840
N        1.28035331      -1.28607286      -0.41817615
C       -0.48617959      -1.01662852       0.03370784
H       -2.25067433       0.25585087       0.15315095
H       -0.69212192       2.30231004       0.06301381
H        2.45073189      -0.62494462      -0.19794652
H       -0.99635845      -1.95558667       0.22851264
10
Frame=14 idx=003684 GeodesicLength=1.450822533476606 rxn_smarts="[c:1]1([H:7])[c:2]([H:8])[n:3][c:4]([H:9])[n:5][c:6]1[H:10]>>[C:1]1([H:7])=[C:6]([H:10])/[C:4](=[N:5]/[H:9])[N:3]=[C:2]1[H:8]"
C       -1.18513684       0.15429454      -0.03940935
C       -0.32027543       1.29560359      -0.06565012
N        0.97231719       1.09208948      -0.00557036
C        1.21440259      -0.22237283       0.26975887
N        1.25565954      -1.28420363      -0.43366527
C       -0.47108350      -1.00614604       0.02930027
H       -2.24892451       0.24551852       0.13997292
H       -0.68899670       2.30931285       0.06162880
H        2.43225619      -0.63263926      -0.19987087
H       -0.96021852      -1.95145723       0.24350511
10
Frame=15 idx=003684 GeodesicLength=1.554806222355635 rxn_smarts="[c:1]1([H:7])[c:2]([H:8])[n:3][c:4]([H:9])[n:5][c:6]1[H:10]>>[C:1]1([H:7])=[C:6]([H:10])/[C:4](=[N:5]/[H:9])[N:3]=[C:2]1[H:8]"
C       -1.18098719       0.15667309      -0.04069464
C       -0.31796841       1.30139549      -0.06065589
N        0.97124416       1.08887676      -0.00084870
C        1.19692618      -0.23292611       0.28349408
N        1.23140464      -1.28212909      -0.44813024
C       -0.45644107      -0.99604252       0.02655940
H       -2.24724957       0.23508429       0.12546970
H       -0.68575587       2.31613868       0.06010485
H        2.41422409      -0.63993201      -0.20250050
H       -0.92539695      -1.94713857       0.25720193
10
Frame=16 idx=003684 GeodesicLength=1.6587895880204166 rxn_smarts="[c:1]1([H:7])[c:2]([H:8])[n:3][c:4]([H:9])[n:5][c:6]1[H:10]>>[C:1]1([H:7])=[C:6]([H:10])/[C:4](=[N:5]/[H:9])[N:3]=[C:2]1[H:8]"
C       -1.17678967       0.15884551      -0.04060719
C       -0.31563007       1.30690508      -0.05466924
N        0.97025085       1.08567295       0.00307602
C        1.18009892      -0.24308599       0.29666957
N        1.20754177      -1.27985392      -0.46169052
C       -0.44221929      -0.98629430       0.02525500
H       -2.24557344       0.22455102       0.10969918
H       -0.68241049       2.32280636       0.05832104
H        2.39661179      -0.64682866      -0.20579227
H       -0.89188038      -1.94271805       0.26973840
