12
Frame=0 idx=011819 GeodesicLength=0.0 rxn_smarts="[O:1]([C@@:2]([C:3]([C:4]#[N:5])([H:10])[H:11])([C:6]#[C:7][H:12])[H:9])[H:8]>>[O:1]([C@@:2]1([H:9])[C:6]([N:5]=[C:4]=[C:3]([H:10])[H:11])=[C:7]1[H:12])[H:8]"
O        0.68214628       0.30101982      -1.68494069
C        0.34449010       0.64358733      -0.44395194
C       -1.85582720      -0.30624798      -0.18278612
C       -1.13610649      -1.06073840       0.66829117
N       -0.15210355      -1.37196871       1.27038499
C        0.88402354      -0.06361106       0.70928253
C        1.95825175       0.43796274       1.07875996
H        0.95993531      -0.62154822      -1.69979519
H        0.06619581       1.68604825      -0.36771817
H       -2.55313638       0.41538228       0.22544330
H       -2.06860892      -0.68646560      -1.17435258
H        2.87073979       0.62657957       1.60138271
12
Frame=1 idx=011819 GeodesicLength=0.0693967110406364 rxn_smarts="[O:1]([C@@:2]([C:3]([C:4]#[N:5])([H:10])[H:11])([C:6]#[C:7][H:12])[H:9])[H:8]>>[O:1]([C@@:2]1([H:9])[C:6]([N:5]=[C:4]=[C:3]([H:10])[H:11])=[C:7]1[H:12])[H:8]"
O        0.67609799       0.33168422      -1.68297914
C        0.34290779       0.64962558      -0.42983376
C       -1.85380242      -0.31497862      -0.19404280
C       -1.16359415      -1.04409266       0.70566852
N       -0.18649842      -1.35063283       1.31985636
C        0.88250446      -0.06787057       0.71612556
C        1.96762620       0.42982087       1.05734050
H        0.99360935      -0.57719108      -1.71310748
H        0.06750560       1.69265801      -0.33878928
H       -2.57151958       0.40959481       0.17165384
H       -2.05447646      -0.74466009      -1.16815206
H        2.89963964       0.58604237       1.55625974
12
Frame=2 idx=011819 GeodesicLength=0.13801826948204457 rxn_smarts="[O:1]([C@@:2]([C:3]([C:4]#[N:5])([H:10])[H:11])([C:6]#[C:7][H:12])[H:9])[H:8]>>[O:1]([C@@:2]1([H:9])[C:6]([N:5]=[C:4]=[C:3]([H:10])[H:11])=[C:7]1[H:12])[H:8]"
O        0.66892283       0.36326676      -1.68187236
C        0.34199324       0.65526634      -0.41638391
C       -1.85065875      -0.32493674      -0.20469442
C       -1.19167331      -1.02518366       0.74345618
N       -0.22216839      -1.32557638       1.37124913
C        0.88195569      -0.07451060       0.72082976
C        1.97707644       0.41894438       1.03466883
H        1.02601917      -0.52967335      -1.72863066
H        0.06949294       1.69849974      -0.30905782
H       -2.58727279       0.40208922       0.11613644
H       -2.03830083      -0.80368481      -1.15871097
H        2.92461376       0.54549909       1.51300981
12
Frame=3 idx=011819 GeodesicLength=0.20523557588936703 rxn_smarts="[O:1]([C@@:2]([C:3]([C:4]#[N:5])([H:10])[H:11])([C:6]#[C:7][H:12])[H:9])[H:8]>>[O:1]([C@@:2]1([H:9])[C:6]([N:5]=[C:4]=[C:3]([H:10])[H:11])=[C:7]1[H:12])[H:8]"
O        0.66133354       0.39561807      -1.68104158
C        0.34172186       0.66082767      -0.40339256
C       -1.84623928      -0.33625301      -0.21491510
C       -1.21997521      -1.00472390       0.78047513
N       -0.25905523      -1.29626543       1.42419695
C        0.88173012      -0.08282579       0.72404554
C        1.98587849       0.40616033       1.01162369
H        1.05601768      -0.47983888      -1.74531114
H        0.07196892       1.70380768      -0.27880253
H       -2.60030534       0.39205384       0.05946788
H       -2.01985272      -0.86266112      -1.14662682
H        2.94677718       0.50410054       1.47028053
12
Frame=4 idx=011819 GeodesicLength=0.27158706631931795 rxn_smarts="[O:1]([C@@:2]([C:3]([C:4]#[N:5])([H:10])[H:11])([C:6]#[C:7][H:12])[H:9])[H:8]>>[O:1]([C@@:2]1([H:9])[C:6]([N:5]=[C:4]=[C:3]([H:10])[H:11])=[C:7]1[H:12])[H:8]"
O        0.65322988       0.42902223      -1.68031900
C        0.34195444       0.66652047      -0.39076222
C       -1.84073430      -0.34919262      -0.22477434
C       -1.24871038      -0.98277484       0.81670674
N       -0.29733126      -1.26192934       1.47883433
C        0.88155439      -0.09264275       0.72598933
C        1.99402798       0.39158263       0.98837711
H        1.08422415      -0.42722307      -1.76275318
H        0.07479655       1.70880696      -0.24798487
H       -2.61086118       0.37911123       0.00130939
H       -1.99915246      -0.92202903      -1.13192599
H        2.96700219       0.46074813       1.42730270
12
Frame=5 idx=011819 GeodesicLength=0.33699579430500076 rxn_smarts="[O:1]([C@@:2]([C:3]([C:4]#[N:5])([H:10])[H:11])([C:6]#[C:7][H:12])[H:9])[H:8]>>[O:1]([C@@:2]1([H:9])[C:6]([N:5]=[C:4]=[C:3]([H:10])[H:11])=[C:7]1[H:12])[H:8]"
O        0.64374126       0.46303554      -1.68027297
C        0.34271949       0.67176229      -0.37893332
C       -1.83403315      -0.36343364      -0.23360684
C       -1.27775223      -0.95886605       0.85230644
N       -0.33655975      -1.22239752       1.53405313
C        0.88139782      -0.10477367       0.72568776
C        2.00172712       0.37377423       0.96336703
H        1.11170093      -0.37100001      -1.78197254
H        0.07849910       1.71282652      -0.21666065
H       -2.61827961       0.36372066      -0.05737827
H       -1.97638054      -0.98168561      -1.11360834
H        2.98321957       0.41703726       1.38701856
12
Frame=6 idx=011819 GeodesicLength=0.4013273339120402 rxn_smarts="[O:1]([C@@:2]([C:3]([C:4]#[N:5])([H:10])[H:11])([C:6]#[C:7][H:12])[H:9])[H:8]>>[O:1]([C@@:2]1([H:9])[C:6]([N:5]=[C:4]=[C:3]([H:10])[H:11])=[C:7]1[H:12])[H:8]"
O        0.63437893       0.49823991      -1.67953854
C        0.34389347       0.67777635      -0.36705858
C       -1.82595492      -0.37944441      -0.24219473
C       -1.30702166      -0.93386028       0.88632583
N       -0.37682063      -1.17739497       1.58943106
C        0.88042786      -0.11723552       0.72506405
C        2.00829042       0.35479724       0.93879355
H        1.13574161      -0.31313527      -1.80043629
H        0.08252862       1.71717195      -0.18488101
H       -2.62305108       0.34451260      -0.11741316
H       -1.95078223      -1.04143903      -1.09302592
H        2.99836960       0.37001142       1.34493375
12
Frame=7 idx=011819 GeodesicLength=0.4650796000814519 rxn_smarts="[O:1]([C@@:2]([C:3]([C:4]#[N:5])([H:10])[H:11])([C:6]#[C:7][H:12])[H:9])[H:8]>>[O:1]([C@@:2]1([H:9])[C:6]([N:5]=[C:4]=[C:3]([H:10])[H:11])=[C:7]1[H:12])[H:8]"
O        0.62414388       0.53230119      -1.67933967
C        0.34551919       0.68331979      -0.35632944
C       -1.81731289      -0.39615004      -0.24926756
C       -1.33617875      -0.90866785       0.91834360
N       -0.41690192      -1.12945556       1.64237586
C        0.87872634      -0.13053681       0.72328357
C        2.01381609       0.33420736       0.91341667
H        1.16064445      -0.25276263      -1.81890706
H        0.08754347       1.72082197      -0.15453689
H       -2.62500423       0.32320334      -0.17523722
H       -1.92499553      -1.09933808      -1.06924997
H        3.00999990       0.32305733       1.30544811
12
Frame=8 idx=011819 GeodesicLength=0.5273225098724917 rxn_smarts="[O:1]([C@@:2]([C:3]([C:4]#[N:5])([H:10])[H:11])([C:6]#[C:7][H:12])[H:9])[H:8]>>[O:1]([C@@:2]1([H:9])[C:6]([N:5]=[C:4]=[C:3]([H:10])[H:11])=[C:7]1[H:12])[H:8]"
O        0.61445494       0.56454436      -1.67894992
C        0.34762800       0.68887797      -0.34634109
C       -1.80779096      -0.41298384      -0.25511157
C       -1.36444802      -0.88448975       0.94735006
N       -0.45588221      -1.08113926       1.69084305
C        0.87598193      -0.14293376       0.72167853
C        2.01772473       0.31401763       0.88863862
H        1.18369636      -0.19340997      -1.83549031
H        0.09340792       1.72443095      -0.12616693
H       -2.62400221       0.30016557      -0.22968418
H       -1.89954939      -1.15373186      -1.04388260
H        3.01877890       0.27665198       1.26711633
12
Frame=9 idx=011819 GeodesicLength=0.5889536577739151 rxn_smarts="[O:1]([C@@:2]([C:3]([C:4]#[N:5])([H:10])[H:11])([C:6]#[C:7][H:12])[H:9])[H:8]>>[O:1]([C@@:2]1([H:9])[C:6]([N:5]=[C:4]=[C:3]([H:10])[H:11])=[C:7]1[H:12])[H:8]"
O        0.60481241       0.59473603      -1.67885665
C        0.35022152       0.69405851      -0.33738467
C       -1.79807334      -0.42976126      -0.25959520
C       -1.39217929      -0.86125424       0.97384163
N       -0.49382065      -1.03302450       1.73516868
C        0.87264545      -0.15490079       0.71991269
C        2.02083228       0.29356978       0.86369008
H        1.20648989      -0.13381741      -1.85100309
H        0.10037084       1.72771132      -0.10003633
H       -2.62100459       0.27588008      -0.28064843
H       -1.87526999      -1.20493050      -1.01666348
H        3.02497546       0.23173298       1.23157479
12
Frame=10 idx=011819 GeodesicLength=0.6505512399542444 rxn_smarts="[O:1]([C@@:2]([C:3]([C:4]#[N:5])([H:10])[H:11])([C:6]#[C:7][H:12])[H:9])[H:8]>>[O:1]([C@@:2]1([H:9])[C:6]([N:5]=[C:4]=[C:3]([H:10])[H:11])=[C:7]1[H:12])[H:8]"
O        0.59550363       0.62359956      -1.67858604
C        0.35301939       0.69952457      -0.32883372
C       -1.78799351      -0.44702850      -0.26326918
C       -1.41980746      -0.83858165       0.99844149
N       -0.53143014      -0.98454307       1.77650794
C        0.86847762      -0.16572477       0.71900580
C        2.02277458       0.27391234       0.83996120
H        1.22906424      -0.07356196      -1.86449563
H        0.10787059       1.73150845      -0.07559190
H       -2.61614198       0.24988272      -0.32998128
H       -1.85144367      -1.25441683      -0.98796122
H        3.03010672       0.18542915       1.19480255
12
Frame=11 idx=011819 GeodesicLength=0.7114973705952352 rxn_smarts="[O:1]([C@@:2]([C:3]([C:4]#[N:5])([H:10])[H:11])([C:6]#[C:7][H:12])[H:9])[H:8]>>[O:1]([C@@:2]1([H:9])[C:6]([N:5]=[C:4]=[C:3]([H:10])[H:11])=[C:7]1[H:12])[H:8]"
O        0.58636128       0.65065545      -1.67807231
C        0.35602205       0.70454368      -0.32081037
C       -1.77716080      -0.46441243      -0.26567031
C       -1.44710188      -0.81616381       1.02095406
N       -0.56882930      -0.93546132       1.81424650
C        0.86349685      -0.17590750       0.71794367
C        2.02344689       0.25387747       0.81564487
H        1.25171572      -0.01198807      -1.87668328
H        0.11603363       1.73462176      -0.05252732
H       -2.60888842       0.22242502      -0.37661969
H       -1.82754305      -1.30151082      -0.95719480
H        3.03244704       0.13932055       1.15878899
12
Frame=12 idx=011819 GeodesicLength=0.7726113611281588 rxn_smarts="[O:1]([C@@:2]([C:3]([C:4]#[N:5])([H:10])[H:11])([C:6]#[C:7][H:12])[H:9])[H:8]>>[O:1]([C@@:2]1([H:9])[C:6]([N:5]=[C:4]=[C:3]([H:10])[H:11])=[C:7]1[H:12])[H:8]"
O        0.57745494       0.67634448      -1.67768110
C        0.35930386       0.70972885      -0.31323546
C       -1.76631032      -0.48211224      -0.26736293
C       -1.47435366      -0.79434257       1.04178595
N       -0.60585622      -0.88674697       1.84924021
C        0.85823441      -0.18516220       0.71767778
C        2.02373511       0.23424202       0.79208255
H        1.27390584       0.05033932      -1.88727680
H        0.12502889       1.73835785      -0.03107493
H       -2.60037856       0.19367104      -0.42170969
H       -1.80473448      -1.34712211      -0.92519677
H        3.03397019       0.09280254       1.12275118
12
Frame=13 idx=011819 GeodesicLength=0.8337366136039367 rxn_smarts="[O:1]([C@@:2]([C:3]([C:4]#[N:5])([H:10])[H:11])([C:6]#[C:7][H:12])[H:9])[H:8]>>[O:1]([C@@:2]1([H:9])[C:6]([N:5]=[C:4]=[C:3]([H:10])[H:11])=[C:7]1[H:12])[H:8]"
O        0.56964691       0.70077221      -1.67646865
C        0.36255975       0.71515346      -0.30544521
C       -1.75460088      -0.50026323      -0.26825730
C       -1.50191120      -0.77235303       1.06099880
N       -0.64381559      -0.83710605       1.88174544
C        0.85199156      -0.19269651       0.71872532
C        2.02246457       0.21577945       0.76989024
H        1.29638030       0.11403858      -1.89521790
H        0.13393398       1.74220395      -0.01061102
H       -2.59009365       0.16240553      -0.46572506
H       -1.78071788      -1.39121778      -0.89159043
H        3.03416213       0.04328342       1.08195578
12
Frame=14 idx=011819 GeodesicLength=0.894542789760849 rxn_smarts="[O:1]([C@@:2]([C:3]([C:4]#[N:5])([H:10])[H:11])([C:6]#[C:7][H:12])[H:9])[H:8]>>[O:1]([C@@:2]1([H:9])[C:6]([N:5]=[C:4]=[C:3]([H:10])[H:11])=[C:7]1[H:12])[H:8]"
O        0.56175015       0.72294864      -1.67555775
C        0.36604716       0.72005272      -0.29834400
C       -1.74274116      -0.51854344      -0.26813684
C       -1.52913405      -0.75094168       1.07849563
N       -0.68137528      -0.78788180       1.91127357
C        0.84561783      -0.19980039       0.71986134
C        2.02071718       0.19696555       0.74725927
H        1.31924345       0.18005390      -1.90167382
H        0.14391029       1.74593098       0.00811133
H       -2.57804436       0.13044547      -0.50736534
H       -1.75823676      -1.43369982      -0.85640176
H        3.03224554      -0.00553013       1.04247835
12
Frame=15 idx=011819 GeodesicLength=0.9554282673947189 rxn_smarts="[O:1]([C@@:2]([C:3]([C:4]#[N:5])([H:10])[H:11])([C:6]#[C:7][H:12])[H:9])[H:8]>>[O:1]([C@@:2]1([H:9])[C:6]([N:5]=[C:4]=[C:3]([H:10])[H:11])=[C:7]1[H:12])[H:8]"
O        0.55462220       0.74407254      -1.67456730
C        0.36980523       0.72502016      -0.29139835
C       -1.73044007      -0.53697481      -0.26734655
C       -1.55635406      -0.72993983       1.09432893
N       -0.71916162      -0.73894875       1.93828713
C        0.83920396      -0.20593733       0.72172240
C        2.01868209       0.17820935       0.72471449
H        1.34058881       0.24648501      -1.90663448
H        0.15462762       1.74990809       0.02585441
H       -2.56453233       0.09710592      -0.54750625
H       -1.73606403      -1.47453039      -0.82011969
H        3.02902222      -0.05446996       1.00266525
12
Frame=16 idx=011819 GeodesicLength=1.016123548807511 rxn_smarts="[O:1]([C@@:2]([C:3]([C:4]#[N:5])([H:10])[H:11])([C:6]#[C:7][H:12])[H:9])[H:8]>>[O:1]([C@@:2]1([H:9])[C:6]([N:5]=[C:4]=[C:3]([H:10])[H:11])=[C:7]1[H:12])[H:8]"
O        0.54816657       0.76385616      -1.67344504
C        0.37378973       0.72990737      -0.28460295
C       -1.71762385      -0.55552736      -0.26584310
C       -1.58342535      -0.70945640       1.10845690
N       -0.75721087      -0.69015982       1.96278161
C        0.83277189      -0.21113601       0.72423955
C        2.01621201       0.15946595       0.70208402
H        1.36067033       0.31369538      -1.90991411
H        0.16613056       1.75402195       0.04259356
H       -2.54939630       0.06253828      -0.58594494
H       -1.71428884      -1.51371917      -0.78281909
H        3.02420411      -0.10348630       0.96241359
