14
Frame=0 idx=003505 GeodesicLength=0.0 rxn_smarts="[C:1]([C@@:2]1([H:10])[C:3]([H:11])([H:12])[C@:4]1([C:5]#[C:6][H:14])[H:13])([H:7])([H:8])[H:9]>>[C:1]([C@@:2]1([H:10])[C:3]([H:11])([H:12])[C:4]([H:13])=[C:5]=[C:6]1[H:14])([H:7])([H:8])[H:9]"
C       -0.84936014       1.31670001      -0.42064409
C       -0.44449729       0.08735874       0.35179421
C       -0.47448915      -1.25365802      -0.29633411
C        0.86451394      -1.18432361       0.34050949
C        2.15690305      -0.72463616      -0.26785424
C        1.51772831       0.33461124       0.14538912
H       -0.45695613       1.29964680      -1.43587192
H       -0.50637347       2.23120712       0.06659303
H       -1.94252079       1.35052519      -0.47442260
H       -0.78664228       0.08523090       1.38265510
H       -0.47256937      -1.23703179      -1.38220874
H       -1.14838160      -1.99303004       0.12233497
H        0.92352982      -1.64326310       1.32695811
H        1.61911515       1.33066267       0.54110167
14
Frame=1 idx=003505 GeodesicLength=0.09210274988879343 rxn_smarts="[C:1]([C@@:2]1([H:10])[C:3]([H:11])([H:12])[C@:4]1([C:5]#[C:6][H:14])[H:13])([H:7])([H:8])[H:9]>>[C:1]([C@@:2]1([H:10])[C:3]([H:11])([H:12])[C:4]([H:13])=[C:5]=[C:6]1[H:14])([H:7])([H:8])[H:9]"
C       -0.85477053       1.31498391      -0.41931940
C       -0.43815903       0.08984181       0.35414587
C       -0.47452413      -1.25270164      -0.29716371
C        0.86059854      -1.19389966       0.35051587
C        2.14001970      -0.72794512      -0.26171163
C        1.53417377       0.34868291       0.14848734
H       -0.45458178       1.30226188      -1.43176540
H       -0.52754156       2.23304868       0.07206255
H       -1.94761107       1.33841461      -0.48134366
H       -0.79089730       0.08701850       1.38189823
H       -0.46919598      -1.23411213      -1.38307130
H       -1.15590826      -1.98875427       0.11569038
H        0.92134037      -1.66727286       1.32942411
H        1.65705728       1.35043338       0.52215075
14
Frame=2 idx=003505 GeodesicLength=0.18421233851950128 rxn_smarts="[C:1]([C@@:2]1([H:10])[C:3]([H:11])([H:12])[C@:4]1([C:5]#[C:6][H:14])[H:13])([H:7])([H:8])[H:9]>>[C:1]([C@@:2]1([H:10])[C:3]([H:11])([H:12])[C:4]([H:13])=[C:5]=[C:6]1[H:14])([H:7])([H:8])[H:9]"
C       -0.86030060       1.31317121      -0.41776053
C       -0.43181192       0.09227423       0.35659547
C       -0.47457102      -1.25170872      -0.29808476
C        0.85634099      -1.20378140       0.36076937
C        2.12317963      -0.73044234      -0.25367934
C        1.55079580       0.36321254       0.15130920
H       -0.45246356       1.30505688      -1.42739618
H       -0.54898846       2.23454809       0.07776215
H       -1.95266565       1.32617888      -0.48795981
H       -0.79512716       0.08865673       1.38113973
H       -0.46542975      -1.23106373      -1.38400758
H       -1.16360518      -1.98433673       0.10862828
H        0.91849456      -1.69200828       1.33168298
H        1.69615233       1.37024267       0.50100104
14
Frame=3 idx=003505 GeodesicLength=0.27632844255918454 rxn_smarts="[C:1]([C@@:2]1([H:10])[C:3]([H:11])([H:12])[C@:4]1([C:5]#[C:6][H:14])[H:13])([H:7])([H:8])[H:9]>>[C:1]([C@@:2]1([H:10])[C:3]([H:11])([H:12])[C:4]([H:13])=[C:5]=[C:6]1[H:14])([H:7])([H:8])[H:9]"
C       -0.86596300       1.31126553      -0.41594262
C       -0.42547262       0.09465459       0.35915752
C       -0.47460619      -1.25066894      -0.29910929
C        0.85171947      -1.21396772       0.37130642
C        2.10639606      -0.73210017      -0.24362179
C        1.56758816       0.37824684       0.15384068
H       -0.45062027       1.30804860      -1.42274123
H       -0.57072541       2.23569657       0.08372899
H       -1.95769752       1.31382607      -0.49425279
H       -0.79935062       0.09012810       1.38039250
H       -0.46118670      -1.22786251      -1.38502382
H       -1.17145426      -1.97977295       0.10108950
H        0.91494064      -1.71749329       1.33373071
H        1.73643227       1.38999928       0.47744522
14
Frame=4 idx=003505 GeodesicLength=0.36845235875837856 rxn_smarts="[C:1]([C@@:2]1([H:10])[C:3]([H:11])([H:12])[C@:4]1([C:5]#[C:6][H:14])[H:13])([H:7])([H:8])[H:9]>>[C:1]([C@@:2]1([H:10])[C:3]([H:11])([H:12])[C:4]([H:13])=[C:5]=[C:6]1[H:14])([H:7])([H:8])[H:9]"
C       -0.87177107       1.30927232      -0.41383910
C       -0.41916008       0.09698239       0.36184899
C       -0.47460177      -1.24957060      -0.30025035
C        0.84671152      -1.22445666       0.38216579
C        2.08967552      -0.73288190      -0.23138983
C        1.58454153       0.39384103       0.15606573
H       -0.44907088       1.31125759      -1.41777486
H       -0.59276557       2.23648712       0.09000327
H       -1.96271930       1.30136399      -0.50020573
H       -0.80359019       0.09141316       1.37967125
H       -0.45637342      -1.22448139      -1.38612654
H       -1.17943199      -1.97505871       0.09300882
H        0.91062782      -1.74375106       1.33556299
H        1.77792786       1.40958270       0.45125956
14
Frame=5 idx=003505 GeodesicLength=0.4605757852534601 rxn_smarts="[C:1]([C@@:2]1([H:10])[C:3]([H:11])([H:12])[C@:4]1([C:5]#[C:6][H:14])[H:13])([H:7])([H:8])[H:9]>>[C:1]([C@@:2]1([H:10])[C:3]([H:11])([H:12])[C:4]([H:13])=[C:5]=[C:6]1[H:14])([H:7])([H:8])[H:9]"
C       -0.87774117       1.30719505      -0.41141745
C       -0.41289516       0.09925742       0.36468932
C       -0.47452175      -1.24839637      -0.30152518
C        0.84129188      -1.23524095       0.39339164
C        2.07302324      -0.73273272      -0.21678735
C        1.60165283       0.41004070       0.15796071
H       -0.44784319       1.31469940      -1.41246769
H       -0.61511587       2.23690742       0.09662629
H       -1.96774897       1.28880634      -0.50578490
H       -0.80787112       0.09248913       1.37899077
H       -0.45087466      -1.22088283      -1.38732036
H       -1.18750944      -1.97018516       0.08430292
H        0.90549410      -1.77080566       1.33716555
H        1.82065928       1.42884822       0.42217573
14
Frame=6 idx=003505 GeodesicLength=0.552702889562476 rxn_smarts="[C:1]([C@@:2]1([H:10])[C:3]([H:11])([H:12])[C@:4]1([C:5]#[C:6][H:14])[H:13])([H:7])([H:8])[H:9]>>[C:1]([C@@:2]1([H:10])[C:3]([H:11])([H:12])[C:4]([H:13])=[C:5]=[C:6]1[H:14])([H:7])([H:8])[H:9]"
C       -0.88388939       1.30504392      -0.40865221
C       -0.40670233       0.10148354       0.36769917
C       -0.47432866      -1.24713144      -0.30294690
C        0.83544008      -1.24631292       0.40502227
C        2.05642530      -0.73158649      -0.19963854
C        1.61890814       0.42691856       0.15948737
H       -0.44696068       1.31839891      -1.40679469
H       -0.63779173       2.23695669       0.10363635
H       -1.97280062       1.27616371      -0.51097850
H       -0.81222029       0.09333712       1.37836925
H       -0.44458154      -1.21703602      -1.38860883
H       -1.19564634      -1.96514886       0.07490042
H        0.89950226      -1.79867265       1.33852548
H        1.86464580       1.44758591       0.38997935
14
Frame=7 idx=003505 GeodesicLength=0.644824870941817 rxn_smarts="[C:1]([C@@:2]1([H:10])[C:3]([H:11])([H:12])[C@:4]1([C:5]#[C:6][H:14])[H:13])([H:7])([H:8])[H:9]>>[C:1]([C@@:2]1([H:10])[C:3]([H:11])([H:12])[C:4]([H:13])=[C:5]=[C:6]1[H:14])([H:7])([H:8])[H:9]"
C       -0.89023569       1.30282562      -0.40551300
C       -0.40060828       0.10366641       0.37090110
C       -0.47397537      -1.24575312      -0.30453208
C        0.82913374      -1.25765540       0.41709869
C        2.03986307      -0.72934932      -0.17971200
C        1.63630319       0.44453225       0.16058436
H       -0.44645811       1.32237152      -1.40072965
H       -0.66080045       2.23662747       0.11106869
H       -1.97789569       1.26345268      -0.51575425
H       -0.81666600       0.09393716       1.37782472
H       -0.43736120      -1.21289814      -1.38999029
H       -1.20379478      -1.95993931       0.06471254
H        0.89260643      -1.82736544       1.33961131
H        1.90988914       1.46554764       0.35442987
14
Frame=8 idx=003505 GeodesicLength=0.736958086143783 rxn_smarts="[C:1]([C@@:2]1([H:10])[C:3]([H:11])([H:12])[C@:4]1([C:5]#[C:6][H:14])[H:13])([H:7])([H:8])[H:9]>>[C:1]([C@@:2]1([H:10])[C:3]([H:11])([H:12])[C:4]([H:13])=[C:5]=[C:6]1[H:14])([H:7])([H:8])[H:9]"
C       -0.89680854       1.30056111      -0.40197852
C       -0.39464157       0.10581933       0.37432131
C       -0.47340863      -1.24424544      -0.30629780
C        0.82235914      -1.26925553       0.42966099
C        2.02330363      -0.72591147      -0.15675808
C        1.65383759       0.46294364       0.16115441
H       -0.44638701       1.32663968      -1.39426644
H       -0.68415308       2.23593781       0.11894911
H       -1.98306666       1.25070561      -0.52008683
H       -0.82122869       0.09427941       1.37738910
H       -0.42907938      -1.20843634      -1.39146876
H       -1.21189213      -1.95455930       0.05365232
H        0.88478681      -1.85690963       1.34038586
H        1.95637852       1.48243113       0.31534333
14
Frame=9 idx=003505 GeodesicLength=0.8290815742051443 rxn_smarts="[C:1]([C@@:2]1([H:10])[C:3]([H:11])([H:12])[C@:4]1([C:5]#[C:6][H:14])[H:13])([H:7])([H:8])[H:9]>>[C:1]([C@@:2]1([H:10])[C:3]([H:11])([H:12])[C:4]([H:13])=[C:5]=[C:6]1[H:14])([H:7])([H:8])[H:9]"
C       -0.90361764       1.29823172      -0.39803991
C       -0.38883797       0.10795559       0.37796536
C       -0.47258890      -1.24256305      -0.30823455
C        0.81509953      -1.28105241       0.44270106
C        2.00664867      -0.72111365      -0.13063217
C        1.67148271       0.48228391       0.16100696
H       -0.44676186       1.33120458      -1.38737440
H       -0.70786394       2.23484597       0.12727904
H       -1.98831404       1.23787517      -0.52398448
H       -0.82593046       0.09435482       1.37705282
H       -0.41963969      -1.20360305      -1.39299562
H       -1.21986983      -1.94896939       0.04169260
H        0.87606145      -1.88721719       1.34078190
H        2.00413196       1.49776697       0.27278138
14
Frame=10 idx=003505 GeodesicLength=0.9212198715588621 rxn_smarts="[C:1]([C@@:2]1([H:10])[C:3]([H:11])([H:12])[C@:4]1([C:5]#[C:6][H:14])[H:13])([H:7])([H:8])[H:9]>>[C:1]([C@@:2]1([H:10])[C:3]([H:11])([H:12])[C:4]([H:13])=[C:5]=[C:6]1[H:14])([H:7])([H:8])[H:9]"
C       -0.91071113       1.29587911      -0.39366947
C       -0.38323533       0.11009608       0.38187175
C       -0.47143732      -1.24069365      -0.31037631
C        0.80735127      -1.29304126       0.45627205
C        1.98984530      -0.71478909      -0.10092831
C        1.68925532       0.50255340       0.15997844
H       -0.44767636       1.33609264      -1.38006463
H       -0.73193534       2.23340039       0.13608896
H       -1.99369872       1.22504033      -0.52738903
H       -0.83079392       0.09415322       1.37687222
H       -0.40885702      -1.19835709      -1.39459090
H       -1.22763700      -1.94319198       0.02869686
H        0.86642321      -1.91834595       1.34074217
H        2.05310704       1.51120383       0.22649620
14
Frame=11 idx=003505 GeodesicLength=1.0133616887322277 rxn_smarts="[C:1]([C@@:2]1([H:10])[C:3]([H:11])([H:12])[C@:4]1([C:5]#[C:6][H:14])[H:13])([H:7])([H:8])[H:9]>>[C:1]([C@@:2]1([H:10])[C:3]([H:11])([H:12])[C:4]([H:13])=[C:5]=[C:6]1[H:14])([H:7])([H:8])[H:9]"
C       -0.91811949       1.29351072      -0.38884284
C       -0.37788835       0.11225985       0.38606747
C       -0.46988090      -1.23859370      -0.31273315
C        0.79910951      -1.30516926       0.47038426
C        1.97275737      -0.70669964      -0.06730135
C        1.70714198       0.52379717       0.15783508
H       -0.44917804       1.34131763      -1.37231112
H       -0.75638019       2.23159360       0.14540041
H       -1.99924958       1.21220941      -0.53027672
H       -0.83586241       0.09365518       1.37686797
H       -0.39656344      -1.19263374      -1.39622235
H       -1.23508731      -1.93721144       0.01457251
H        0.85590813      -1.95025684       1.34016847
H        2.10329272       1.52222106       0.17639136
14
Frame=12 idx=003505 GeodesicLength=1.1055423455731797 rxn_smarts="[C:1]([C@@:2]1([H:10])[C:3]([H:11])([H:12])[C@:4]1([C:5]#[C:6][H:14])[H:13])([H:7])([H:8])[H:9]>>[C:1]([C@@:2]1([H:10])[C:3]([H:11])([H:12])[C:4]([H:13])=[C:5]=[C:6]1[H:14])([H:7])([H:8])[H:9]"
C       -0.92588479       1.29114831      -0.38355402
C       -0.37286943       0.11446903       0.39058195
C       -0.46785018      -1.23623009      -0.31530963
C        0.79039149      -1.31738210       0.48502319
C        1.95519179      -0.69654297      -0.02938870
C        1.72514375       0.54603952       0.15426167
H       -0.45133006       1.34689984      -1.36411898
H       -0.78120667       2.22944277       0.15521428
H       -2.00501564       1.19940970      -0.53264183
H       -0.84117900       0.09284096       1.37707826
H       -0.38261816      -1.18637871      -1.39785530
H       -1.24209624      -1.93104097      -0.00074874
H        0.84462270      -1.98290280       1.33894025
H        2.15470044       1.53022751       0.12251760
14
Frame=13 idx=003505 GeodesicLength=1.1977334415161638 rxn_smarts="[C:1]([C@@:2]1([H:10])[C:3]([H:11])([H:12])[C@:4]1([C:5]#[C:6][H:14])[H:13])([H:7])([H:8])[H:9]>>[C:1]([C@@:2]1([H:10])[C:3]([H:11])([H:12])[C:4]([H:13])=[C:5]=[C:6]1[H:14])([H:7])([H:8])[H:9]"
C       -0.93402869       1.28880407      -0.37775619
C       -0.36828595       0.11675012       0.39547022
C       -0.46524344      -1.23354837      -0.31812622
C        0.78120759      -1.32959186       0.50018477
C        1.93686542      -0.68389849       0.01333604
C        1.74322683       0.56924022       0.14903516
H       -0.45416205       1.35282758      -1.35542555
H       -0.80639274       2.22695206       0.16558317
H       -2.01100118       1.18667682      -0.53445911
H       -0.84684451       0.09167758       1.37753761
H       -0.36680540      -1.17949528      -1.39944873
H       -1.24849060      -1.92469293      -0.01741750
H        0.83268353      -2.01624659       1.33687476
H        2.20727119       1.53454507       0.06461156
14
Frame=14 idx=003505 GeodesicLength=1.2900137864558168 rxn_smarts="[C:1]([C@@:2]1([H:10])[C:3]([H:11])([H:12])[C@:4]1([C:5]#[C:6][H:14])[H:13])([H:7])([H:8])[H:9]>>[C:1]([C@@:2]1([H:10])[C:3]([H:11])([H:12])[C:4]([H:13])=[C:5]=[C:6]1[H:14])([H:7])([H:8])[H:9]"
C       -0.94261128       1.28652047      -0.37146402
C       -0.36429414       0.11912265       0.40077389
C       -0.46199205      -1.23051891      -0.32116785
C        0.77164117      -1.34168832       0.51577908
C        1.91738775      -0.66823172       0.06130510
C        1.76140846       0.59330182       0.14171850
H       -0.45772325       1.35912582      -1.34624982
H       -0.83193511       2.22416186       0.17648068
H       -2.01728295       1.17408433      -0.53576710
H       -0.85297291       0.09011512       1.37830104
H       -0.34903097      -1.17191964      -1.40093462
H       -1.25408076      -1.91824245      -0.03544903
H        0.82040652      -2.05016765       1.33374603
H        2.26107953       1.53433662       0.00292812
14
Frame=15 idx=003505 GeodesicLength=1.3824490751104672 rxn_smarts="[C:1]([C@@:2]1([H:10])[C:3]([H:11])([H:12])[C@:4]1([C:5]#[C:6][H:14])[H:13])([H:7])([H:8])[H:9]>>[C:1]([C@@:2]1([H:10])[C:3]([H:11])([H:12])[C:4]([H:13])=[C:5]=[C:6]1[H:14])([H:7])([H:8])[H:9]"
C       -0.95168592       1.28435252      -0.36467232
C       -0.36113618       0.12160389       0.40656821
C       -0.45801185      -1.22710116      -0.32441900
C        0.76182073      -1.35349669       0.53169249
C        1.89620404      -0.64882095       0.11504070
C        1.77968867       0.61801656       0.13201262
H       -0.46200045       1.36581554      -1.33655411
H       -0.85781793       2.22112119       0.18791936
H       -2.02391336       1.16174571      -0.53664688
H       -0.85978925       0.08806517       1.37943250
H       -0.32919307      -1.16354410      -1.40223459
H       -1.25861010      -1.91181206      -0.05488331
H        0.80825725      -2.08451752       1.32924124
H        2.31618741       1.52857190      -0.06249691
14
Frame=16 idx=003505 GeodesicLength=1.4750636410031228 rxn_smarts="[C:1]([C@@:2]1([H:10])[C:3]([H:11])([H:12])[C@:4]1([C:5]#[C:6][H:14])[H:13])([H:7])([H:8])[H:9]>>[C:1]([C@@:2]1([H:10])[C:3]([H:11])([H:12])[C:4]([H:13])=[C:5]=[C:6]1[H:14])([H:7])([H:8])[H:9]"
C       -0.96128039       1.28231240      -0.35746004
C       -0.35913798       0.12420278       0.41287864
C       -0.45331969      -1.22327412      -0.32779970
C        0.75199427      -1.36470164       0.54754948
C        1.87247212      -0.62476569       0.17453173
C        1.79803286       0.64298241       0.11941092
H       -0.46690058       1.37280808      -1.32636433
H       -0.88399698       2.21782383       0.19981561
H       -2.03088813       1.14975478      -0.53729695
H       -0.86749930       0.08548335       1.38099500
H       -0.30755809      -1.15434598      -1.40323455
H       -1.26177827      -1.90557330      -0.07543320
H        0.79707493      -2.11875372       1.32294943
H        2.37278524       1.51604681      -0.13054202
