14
Frame=0 idx=009247 GeodesicLength=0.0 rxn_smarts="[C:1]([C@@:2]([C:3](=[O:4])[H:12])([C:5](=[O:6])[N:7]([H:13])[H:14])[H:11])([H:8])([H:9])[H:10]>>[C:1](/[C:2](=[C:3](\[O:4][H:14])[H:12])[H:11])([H:8])([H:9])[H:10].[C:5](=[O:6])=[N:7][H:13]"
C       -1.01769395      -1.17811481      -0.11047890
C       -0.75343749       0.28641437      -0.39142956
C       -0.59956632       1.23246734       0.60380734
O        0.01822561       0.99884611       1.71412848
C        1.19130686       0.16095622      -0.81547632
O        1.31442436       0.26123453      -1.98856038
N        1.71860453      -0.09790011       0.31267655
H       -0.59445631      -1.49127226       0.84167252
H       -2.09663627      -1.34683697      -0.07952319
H       -0.60664884      -1.81472652      -0.89462306
H       -1.19751717       0.66766456      -1.30434122
H       -0.89780257       2.26930823       0.43605094
H        2.70756540      -0.29976499       0.27813173
H        0.81363218       0.35172431       1.39796511
14
Frame=1 idx=009247 GeodesicLength=0.16619130842812846 rxn_smarts="[C:1]([C@@:2]([C:3](=[O:4])[H:12])([C:5](=[O:6])[N:7]([H:13])[H:14])[H:11])([H:8])([H:9])[H:10]>>[C:1](/[C:2](=[C:3](\[O:4][H:14])[H:12])[H:11])([H:8])([H:9])[H:10].[C:5](=[O:6])=[N:7][H:13]"
C       -1.04252195      -1.17401064      -0.13017851
C       -0.75558509       0.28845209      -0.39146787
C       -0.61994222       1.22459965       0.61857198
O       -0.00908369       0.97992483       1.72896358
C        1.20939532       0.13459882      -0.81452392
O        1.35506701       0.13611245      -1.99006629
N        1.75559767      -0.05712354       0.31827390
H       -0.56593513      -1.52404177       0.78236364
H       -2.11956811      -1.32524700      -0.02781919
H       -0.70137720      -1.80312651      -0.95296995
H       -1.20549306       0.68344054      -1.29646818
H       -0.89527682       2.26810438       0.45204060
H        2.75735271      -0.18184717       0.30385905
H        0.83737056       0.35016388       1.39942116
14
Frame=2 idx=009247 GeodesicLength=0.3302475720021494 rxn_smarts="[C:1]([C@@:2]([C:3](=[O:4])[H:12])([C:5](=[O:6])[N:7]([H:13])[H:14])[H:11])([H:8])([H:9])[H:10]>>[C:1](/[C:2](=[C:3](\[O:4][H:14])[H:12])[H:11])([H:8])([H:9])[H:10].[C:5](=[O:6])=[N:7][H:13]"
C       -1.06805134      -1.16908650      -0.15063618
C       -0.75718787       0.29072700      -0.39163806
C       -0.63993707       1.21584339       0.63380976
O       -0.03575898       0.95868284       1.74369304
C        1.22866357       0.10494510      -0.81266563
O        1.39691106       0.00224947      -1.98148085
N        1.79259621      -0.01265924       0.32197028
H       -0.54162148      -1.55544942       0.71813323
H       -2.13791964      -1.30569070       0.02221893
H       -0.79743130      -1.78667862      -1.00768781
H       -1.21181047       0.70017035      -1.28864543
H       -0.89177999       2.26588018       0.47011909
H        2.80088039      -0.05630973       0.32249285
H        0.86244691       0.34737588       1.40031679
14
Frame=3 idx=009247 GeodesicLength=0.4924714065156549 rxn_smarts="[C:1]([C@@:2]([C:3](=[O:4])[H:12])([C:5](=[O:6])[N:7]([H:13])[H:14])[H:11])([H:8])([H:9])[H:10]>>[C:1](/[C:2](=[C:3](\[O:4][H:14])[H:12])[H:11])([H:8])([H:9])[H:10].[C:5](=[O:6])=[N:7][H:13]"
C       -1.09416687      -1.16318240      -0.17203706
C       -0.75811983       0.29334017      -0.39176526
C       -0.65951951       1.20609785       0.64980935
O       -0.06143336       0.93509959       1.75839301
C        1.24924409       0.07191369      -0.80949446
O        1.43987346      -0.14108528      -1.96065327
N        1.82922699       0.03578265       0.32314160
H       -0.52260852      -1.58512840       0.64977949
H       -2.15207134      -1.28835574       0.06891256
H       -0.89328801      -1.76531642      -1.05877558
H       -1.21612083       0.71815436      -1.28069071
H       -0.88774480       2.26242557       0.49084532
H        2.83720417       0.07667346       0.33208660
H        0.88952436       0.34358092       1.40044840
14
Frame=4 idx=009247 GeodesicLength=0.6529258356390911 rxn_smarts="[C:1]([C@@:2]([C:3](=[O:4])[H:12])([C:5](=[O:6])[N:7]([H:13])[H:14])[H:11])([H:8])([H:9])[H:10]>>[C:1](/[C:2](=[C:3](\[O:4][H:14])[H:12])[H:11])([H:8])([H:9])[H:10].[C:5](=[O:6])=[N:7][H:13]"
C       -1.12080096      -1.15628273      -0.19436821
C       -0.75831394       0.29621899      -0.39163475
C       -0.67864367       1.19524981       0.66673673
O       -0.08559582       0.90942012       1.77303205
C        1.27114511       0.03518361      -0.80459883
O        1.48431048      -0.29215132      -1.92538295
N        1.86489037       0.08777154       0.32098933
H       -0.50997297      -1.61279826       0.57872305
H       -2.16284557      -1.27344502       0.11059155
H       -0.98695044      -1.73920024      -1.10626347
H       -1.21827039       0.73737959      -1.27237530
H       -0.88362066       2.25751475       0.51441922
H        2.86514953       0.21559378       0.33064711
H        0.91951893       0.33954539       1.39948445
14
Frame=5 idx=009247 GeodesicLength=0.8117025770469519 rxn_smarts="[C:1]([C@@:2]([C:3](=[O:4])[H:12])([C:5](=[O:6])[N:7]([H:13])[H:14])[H:11])([H:8])([H:9])[H:10]>>[C:1](/[C:2](=[C:3](\[O:4][H:14])[H:12])[H:11])([H:8])([H:9])[H:10].[C:5](=[O:6])=[N:7][H:13]"
C       -1.14766105      -1.14833642      -0.21769878
C       -0.75777467       0.29937771      -0.39096075
C       -0.69746389       1.18322312       0.68485037
O       -0.10787797       0.88200182       1.78766647
C        1.29435326      -0.00496970      -0.79756107
O        1.53023480      -0.44902590      -1.87353224
N        1.89896542       0.14289650       0.31460177
H       -0.50420810      -1.63815424       0.50648685
H       -2.17119718      -1.26110888       0.14549523
H       -1.07602410      -1.70863415      -1.15056924
H       -1.21829655       0.75790106      -1.26332904
H       -0.88041942       2.25093388       0.54118868
H        2.88393548       0.35707696       0.31627387
H        0.95343396       0.33681823       1.39708788
14
Frame=6 idx=009247 GeodesicLength=0.9688580302935074 rxn_smarts="[C:1]([C@@:2]([C:3](=[O:4])[H:12])([C:5](=[O:6])[N:7]([H:13])[H:14])[H:11])([H:8])([H:9])[H:10]>>[C:1](/[C:2](=[C:3](\[O:4][H:14])[H:12])[H:11])([H:8])([H:9])[H:10].[C:5](=[O:6])=[N:7][H:13]"
C       -1.17461714      -1.13937914      -0.24201917
C       -0.75656556       0.30270375      -0.38945127
C       -0.71601652       1.16991051       0.70430880
O       -0.12798591       0.85314790       1.80236774
C        1.31873990      -0.04862575      -0.78791690
O        1.57785401      -0.60834841      -1.80369113
N        1.93082651       0.19960188       0.30319273
H       -0.50542979      -1.66115153       0.43447460
H       -2.17839698      -1.25128622       0.17246487
H       -1.15847052      -1.67409198      -1.19239939
H       -1.21637941       0.77962390      -1.25313232
H       -0.87862740       2.24252882       0.57116041
H        2.89293209       0.49821913       0.28762993
H        0.99213673       0.33714714       1.39301109
14
Frame=7 idx=009247 GeodesicLength=1.1245436039172891 rxn_smarts="[C:1]([C@@:2]([C:3](=[O:4])[H:12])([C:5](=[O:6])[N:7]([H:13])[H:14])[H:11])([H:8])([H:9])[H:10]>>[C:1](/[C:2](=[C:3](\[O:4][H:14])[H:12])[H:11])([H:8])([H:9])[H:10].[C:5](=[O:6])=[N:7][H:13]"
C       -1.20127154      -1.12941063      -0.26739661
C       -0.75486704       0.30621825      -0.38686527
C       -0.73453387       1.15529551       0.72524527
O       -0.14589296       0.82327060       1.81723154
C        1.34417705      -0.09517088      -0.77531881
O        1.62674579      -0.76674298      -1.71496909
N        1.96009173       0.25648346       0.28609329
H       -0.51283256      -1.68167383       0.36357974
H       -2.18535870      -1.24392659       0.19081878
H       -1.23253842      -1.63613772      -1.23268522
H       -1.21298844       0.80250976      -1.24135774
H       -0.87952724       2.23219140       0.60449138
H        2.89258775       0.63418737       0.24407370
H        1.03620846       0.34290628       1.38705903
14
Frame=8 idx=009247 GeodesicLength=1.2789279531625508 rxn_smarts="[C:1]([C@@:2]([C:3](=[O:4])[H:12])([C:5](=[O:6])[N:7]([H:13])[H:14])[H:11])([H:8])([H:9])[H:10]>>[C:1](/[C:2](=[C:3](\[O:4][H:14])[H:12])[H:11])([H:8])([H:9])[H:10].[C:5](=[O:6])=[N:7][H:13]"
C       -1.22745702      -1.11848141      -0.29379609
C       -0.75291764       0.30984279      -0.38302639
C       -0.75309080       1.13933239       0.74766923
O       -0.16175716       0.79251508       1.83235238
C        1.37039503      -0.14446802      -0.75943350
O        1.67688002      -0.92030592      -1.60761148
N        1.98650793       0.31132620       0.26301835
H       -0.52527979      -1.69983300       0.29397101
H       -2.19276670      -1.23885329       0.20092314
H       -1.29750073      -1.59528345      -1.27229965
H       -1.20868279       0.82642002      -1.22760712
H       -0.88294514       2.21994958       0.64084678
H        2.88300688       0.76206339       0.18587614
H        1.08560791       0.35577566       1.37911719
14
Frame=9 idx=009247 GeodesicLength=1.4322503798112574 rxn_smarts="[C:1]([C@@:2]([C:3](=[O:4])[H:12])([C:5](=[O:6])[N:7]([H:13])[H:14])[H:11])([H:8])([H:9])[H:10]>>[C:1](/[C:2](=[C:3](\[O:4][H:14])[H:12])[H:11])([H:8])([H:9])[H:10].[C:5](=[O:6])=[N:7][H:13]"
C       -1.25269099      -1.10655460      -0.32143474
C       -0.75094617       0.31371914      -0.37789531
C       -0.77190109       1.12195772       0.77163213
O       -0.17579582       0.76098793       1.84780439
C        1.39732614      -0.19577691      -0.73992986
O        1.72688795      -1.06643971      -1.48154163
N        2.01039312       0.36284300       0.23386150
H       -0.54108994      -1.71556287       0.22508198
H       -2.20060797      -1.23604872       0.20322634
H       -1.35325920      -1.55184189      -1.31217045
H       -1.20404720       0.85142717      -1.21160366
H       -0.89038039       2.20566603       0.68055046
H        2.86601234       0.87766638       0.11355400
H        1.14009922       0.37795734       1.36886485
14
Frame=10 idx=009247 GeodesicLength=1.5848183243812972 rxn_smarts="[C:1]([C@@:2]([C:3](=[O:4])[H:12])([C:5](=[O:6])[N:7]([H:13])[H:14])[H:11])([H:8])([H:9])[H:10]>>[C:1](/[C:2](=[C:3](\[O:4][H:14])[H:12])[H:11])([H:8])([H:9])[H:10].[C:5](=[O:6])=[N:7][H:13]"
C       -1.27693322      -1.09359495      -0.35037988
C       -0.74918666       0.31783045      -0.37143531
C       -0.79095784       1.10300486       0.79715162
O       -0.18827870       0.72828575       1.86366796
C        1.42472861      -0.24935614      -0.71629527
O        1.77675372      -1.20260158      -1.33709942
N        2.03179351       0.40941798       0.19875295
H       -0.55877512      -1.72898545       0.15556670
H       -2.20862334      -1.23543587       0.19904672
H       -1.40074727      -1.50574048      -1.35289446
H       -1.19948668       0.87755248      -1.19308063
H       -0.90038922       2.18934144       0.72324095
H        2.84128629       0.98030292       0.02792714
H        1.19881593       0.40997860       1.35583095
14
Frame=11 idx=009247 GeodesicLength=1.736718029041223 rxn_smarts="[C:1]([C@@:2]([C:3](=[O:4])[H:12])([C:5](=[O:6])[N:7]([H:13])[H:14])[H:11])([H:8])([H:9])[H:10]>>[C:1](/[C:2](=[C:3](\[O:4][H:14])[H:12])[H:11])([H:8])([H:9])[H:10].[C:5](=[O:6])=[N:7][H:13]"
C       -1.29951001      -1.07954160      -0.38103409
C       -0.74788540       0.32246489      -0.36373087
C       -0.81054276       1.08217586       0.82436016
O       -0.19921383       0.69426930       1.87989706
C        1.45264323      -0.30427575      -0.68798346
O        1.82370587      -1.32692105      -1.17356428
N        2.05146864       0.45056213       0.15772958
H       -0.57639717      -1.73983450       0.08384785
H       -2.21576068      -1.23755229       0.18904111
H       -1.44078014      -1.45669424      -1.39510912
H       -1.19573648       0.90502619      -1.17175570
H       -0.91527771       2.17050279       0.76973775
H        2.81221938       1.06565786      -0.07021133
H        1.26106705       0.45416042       1.33877533
14
Frame=12 idx=009247 GeodesicLength=1.8883400653975637 rxn_smarts="[C:1]([C@@:2]([C:3](=[O:4])[H:12])([C:5](=[O:6])[N:7]([H:13])[H:14])[H:11])([H:8])([H:9])[H:10]>>[C:1](/[C:2](=[C:3](\[O:4][H:14])[H:12])[H:11])([H:8])([H:9])[H:10].[C:5](=[O:6])=[N:7][H:13]"
C       -1.32029221      -1.06429685      -0.41347046
C       -0.74727350       0.32770477      -0.35485035
C       -0.83047228       1.05929509       0.85321831
O       -0.20874223       0.65838286       1.89647928
C        1.48090332      -0.36087010      -0.65443722
O        1.86740259      -1.43717271      -0.99025680
N        2.06940183       0.48476190       0.11111959
H       -0.59221409      -1.74783694       0.00760924
H       -2.22080282      -1.24278507       0.17478975
H       -1.47505322      -1.40399954      -1.43892732
H       -1.19333685       0.93394036      -1.14737128
H       -0.93250838       2.14914709       0.81956346
H        2.77749526       1.13418485      -0.17981359
H        1.32549256       0.50954430       1.31634739
14
Frame=13 idx=009247 GeodesicLength=2.0395302471738423 rxn_smarts="[C:1]([C@@:2]([C:3](=[O:4])[H:12])([C:5](=[O:6])[N:7]([H:13])[H:14])[H:11])([H:8])([H:9])[H:10]>>[C:1](/[C:2](=[C:3](\[O:4][H:14])[H:12])[H:11])([H:8])([H:9])[H:10].[C:5](=[O:6])=[N:7][H:13]"
C       -1.33817045      -1.04794885      -0.44790328
C       -0.74781312       0.33399218      -0.34504804
C       -0.85105609       1.03399295       0.88369297
O       -0.21684544       0.62063139       1.91317685
C        1.50951268      -0.41737198      -0.61552778
O        1.90251862      -1.53000002      -0.78696492
N        2.08667400       0.51154295       0.05924037
H       -0.60376231      -1.75208435      -0.07486093
H       -2.22143825      -1.25263988       0.15717839
H       -1.50458841      -1.34731042      -1.48423661
H       -1.19412389       0.96433222      -1.11951053
H       -0.95477772       2.12457749       0.87346627
H        2.74312449       1.18041352      -0.29867645
H        1.39074590       0.57787281       1.28597370
14
Frame=14 idx=009247 GeodesicLength=2.1909312547621074 rxn_smarts="[C:1]([C@@:2]([C:3](=[O:4])[H:12])([C:5](=[O:6])[N:7]([H:13])[H:14])[H:11])([H:8])([H:9])[H:10]>>[C:1](/[C:2](=[C:3](\[O:4][H:14])[H:12])[H:11])([H:8])([H:9])[H:10].[C:5](=[O:6])=[N:7][H:13]"
C       -1.35267236      -1.03072748      -0.48379683
C       -0.74987737       0.34152380      -0.33468362
C       -0.87195226       1.00686027       0.91506763
O       -0.22471517       0.58096573       1.92993791
C        1.53829666      -0.47388716      -0.57127597
O        1.92771851      -1.60146235      -0.56565400
N        2.10328158       0.52888790       0.00349137
H       -0.60853576      -1.75138638      -0.16573878
H       -2.21521150      -1.26821848       0.13841061
H       -1.53172822      -1.28635318      -1.52990161
H       -1.19952940       0.99574521      -1.08829344
H       -0.97764138       2.09770324       0.92965800
H        2.70750520       1.20548350      -0.42351672
H        1.45506146       0.65486538       1.24629546
14
Frame=15 idx=009247 GeodesicLength=2.342560372225918 rxn_smarts="[C:1]([C@@:2]([C:3](=[O:4])[H:12])([C:5](=[O:6])[N:7]([H:13])[H:14])[H:11])([H:8])([H:9])[H:10]>>[C:1](/[C:2](=[C:3](\[O:4][H:14])[H:12])[H:11])([H:8])([H:9])[H:10].[C:5](=[O:6])=[N:7][H:13]"
C       -1.36218050      -1.01295473      -0.52067452
C       -0.75373530       0.35078952      -0.32427463
C       -0.89316392       0.97797227       0.94673752
O       -0.23356550       0.53923799       1.94666785
C        1.56720430      -0.52837731      -0.52190542
O        1.93496748      -1.64747069      -0.33102744
N        2.12112515       0.53597779      -0.05428999
H       -0.60411385      -1.74389683      -0.26526268
H       -2.19848388      -1.29113495       0.11964328
H       -1.55743788      -1.22180274      -1.57444846
H       -1.21197466       1.02742645      -1.05369728
H       -1.00211010       2.06825153       0.98794092
H        2.67644072       1.20623144      -0.55053763
H        1.51702793       0.73975026       1.19512849
14
Frame=16 idx=009247 GeodesicLength=2.495678017530642 rxn_smarts="[C:1]([C@@:2]([C:3](=[O:4])[H:12])([C:5](=[O:6])[N:7]([H:13])[H:14])[H:11])([H:8])([H:9])[H:10]>>[C:1](/[C:2](=[C:3](\[O:4][H:14])[H:12])[H:11])([H:8])([H:9])[H:10].[C:5](=[O:6])=[N:7][H:13]"
C       -1.36599857      -0.99527014      -0.55728606
C       -0.75975597       0.36218246      -0.31428718
C       -0.91463074       0.94911843       0.97747906
O       -0.24691435       0.49535634       1.96377579
C        1.59580244      -0.58105315      -0.46789400
O        1.92419607      -1.66535634      -0.09193642
N        2.14021455       0.53156796      -0.11161249
H       -0.58877923      -1.72740012      -0.37198380
H       -2.16909073      -1.32159088       0.10200430
H       -1.58300434      -1.15545945      -1.61553942
H       -1.23309829       1.05821611      -1.01657580
H       -1.02246245       2.03866345       1.04561546
H        2.64729000       1.18579929      -0.67512864
H        1.57623161       0.82522603       1.13336921
