16
Frame=0 idx=008324 GeodesicLength=0.0 rxn_smarts="[N:1](=[C:2]1/[C:3]([H:9])([H:10])[C:4]([H:11])([H:12])[C:5]([H:13])([H:14])[C:6]([H:15])([H:16])[O:7]1)\[H:8]>>[N:1](=[C:2]1/[C@@:4]([C:3]([H:9])([H:10])[H:12])([H:11])[C:5]([H:13])([H:14])[C:6]([H:15])([H:16])[O:7]1)\[H:8]"
N        2.20798086       0.31205215       0.78572941
C        1.07385209       0.14454269       0.13304246
C        0.92347890      -1.21255685      -0.58496486
C       -0.21408700      -0.63096012       0.61055665
C       -1.43248263       0.02261369       0.02722598
C       -0.87396308       1.40273918      -0.35616528
O        0.48130935       1.20796044      -0.66939016
H        2.18264885       1.20251350       1.27144305
H        0.60143103      -1.16247385      -1.61780351
H        1.67913673      -1.91742763      -0.26525935
H       -0.15247462      -1.12524507       1.56975009
H       -0.06689297      -1.74493314      -0.09760886
H       -1.82866789      -0.50530557      -0.84412146
H       -2.22673175       0.07450691       0.77214991
H       -0.97756003       2.09825688       0.48772640
H       -1.37697782       1.83371676      -1.22231040
16
Frame=1 idx=008324 GeodesicLength=0.10557505719928778 rxn_smarts="[N:1](=[C:2]1/[C:3]([H:9])([H:10])[C:4]([H:11])([H:12])[C:5]([H:13])([H:14])[C:6]([H:15])([H:16])[O:7]1)\[H:8]>>[N:1](=[C:2]1/[C@@:4]([C:3]([H:9])([H:10])[H:12])([H:11])[C:5]([H:13])([H:14])[C:6]([H:15])([H:16])[O:7]1)\[H:8]"
N        2.21556534       0.32253380       0.77097545
C        1.07861985       0.15696520       0.13027944
C        0.91433048      -1.22743768      -0.57210509
C       -0.21892345      -0.64312816       0.59885051
C       -1.43213780       0.01858475       0.01249476
C       -0.87626360       1.40664776      -0.33979640
O        0.48162040       1.22201038      -0.65567962
H        2.21041074       1.22559385       1.23380310
H        0.60798216      -1.17791928      -1.61001737
H        1.67510858      -1.92308922      -0.24373250
H       -0.16111804      -1.10529592       1.57426692
H       -0.08371158      -1.77764926      -0.09050102
H       -1.81467367      -0.49338629      -0.87435529
H       -2.23755331       0.05559515       0.74621242
H       -0.98254603       2.08470086       0.51762578
H       -1.37671008       1.85527404      -1.19832109
16
Frame=2 idx=008324 GeodesicLength=0.2111405598219303 rxn_smarts="[N:1](=[C:2]1/[C:3]([H:9])([H:10])[C:4]([H:11])([H:12])[C:5]([H:13])([H:14])[C:6]([H:15])([H:16])[O:7]1)\[H:8]>>[N:1](=[C:2]1/[C@@:4]([C:3]([H:9])([H:10])[H:12])([H:11])[C:5]([H:13])([H:14])[C:6]([H:15])([H:16])[O:7]1)\[H:8]"
N        2.22335971       0.33287231       0.75580058
C        1.08336880       0.16964395       0.12760563
C        0.90522884      -1.24224047      -0.55884743
C       -0.22389819      -0.65521887       0.58736030
C       -1.43160365       0.01466341      -0.00259737
C       -0.87889733       1.41031552      -0.32297016
O        0.48170713       1.23659813      -0.64103784
H        2.23944524       1.24806102       1.19419598
H        0.61495802      -1.19351695      -1.60169070
H        1.67072471      -1.92859149      -0.22129283
H       -0.17042496      -1.08510757       1.57783689
H       -0.10082233      -1.80996047      -0.08298791
H       -1.79958570      -0.48100306      -0.90476148
H       -2.24845268       0.03665240       0.71896974
H       -0.98827016       2.07027928       0.54783538
H       -1.37683744       1.87655287      -1.17341878
16
Frame=3 idx=008324 GeodesicLength=0.316694263953969 rxn_smarts="[N:1](=[C:2]1/[C:3]([H:9])([H:10])[C:4]([H:11])([H:12])[C:5]([H:13])([H:14])[C:6]([H:15])([H:16])[O:7]1)\[H:8]>>[N:1](=[C:2]1/[C@@:4]([C:3]([H:9])([H:10])[H:12])([H:11])[C:5]([H:13])([H:14])[C:6]([H:15])([H:16])[O:7]1)\[H:8]"
N        2.23134526       0.34308329       0.74021582
C        1.08809103       0.18259376       0.12505309
C        0.89618071      -1.25695068      -0.54519341
C       -0.22902840      -0.66723438       0.57610730
C       -1.43086044       0.01087380      -0.01804530
C       -0.88187493       1.41372419      -0.30568804
O        0.48156736       1.25173986      -0.62537004
H        2.26972910       1.26982550       1.15247337
H        0.62235928      -1.20922893      -1.59280561
H        1.66599904      -1.93388448      -0.19792184
H       -0.18038202      -1.06478062       1.58046775
H       -0.11824680      -1.84184601      -0.07508123
H       -1.78335705      -0.46812210      -0.93529731
H       -2.25938442       0.01773238       0.69038665
H       -0.99477162       2.05497274       0.57831526
H       -1.37736609       1.89750166      -1.14761644
16
Frame=4 idx=008324 GeodesicLength=0.42223423381858377 rxn_smarts="[N:1](=[C:2]1/[C:3]([H:9])([H:10])[C:4]([H:11])([H:12])[C:5]([H:13])([H:14])[C:6]([H:15])([H:16])[O:7]1)\[H:8]>>[N:1](=[C:2]1/[C@@:4]([C:3]([H:9])([H:10])[H:12])([H:11])[C:5]([H:13])([H:14])[C:6]([H:15])([H:16])[O:7]1)\[H:8]"
N        2.23950284       0.35318813       0.72423289
C        1.09277888       0.19583265       0.12265803
C        0.88719088      -1.27155403      -0.53114161
C       -0.23432973      -0.67917948       0.56510863
C       -1.42988501       0.00724078      -0.03384269
C       -0.88520628       1.41685582      -0.28795259
O        0.48119927       1.26745159      -0.60857215
H        2.30122513       1.29078454       1.10847525
H        0.63018911      -1.22501418      -1.58334259
H        1.66094530      -1.93891425      -0.17360324
H       -0.19097422      -1.04441470       1.58217355
H       -0.13600859      -1.87329175      -0.06679801
H       -1.76593844      -0.45470730      -0.96591597
H       -2.27029674      -0.00110971       0.66042961
H       -1.00209237       2.03876336       0.60902282
H       -1.37830001       1.91806854      -1.12093193
16
Frame=5 idx=008324 GeodesicLength=0.5277585382353192 rxn_smarts="[N:1](=[C:2]1/[C:3]([H:9])([H:10])[C:4]([H:11])([H:12])[C:5]([H:13])([H:14])[C:6]([H:15])([H:16])[O:7]1)\[H:8]>>[N:1](=[C:2]1/[C@@:4]([C:3]([H:9])([H:10])[H:12])([H:11])[C:5]([H:13])([H:14])[C:6]([H:15])([H:16])[O:7]1)\[H:8]"
N        2.24780814       0.36321145       0.70787611
C        1.09742307       0.20938050       0.12046797
C        0.87826341      -1.28603591      -0.51668463
C       -0.23981944      -0.69106295       0.55437815
C       -1.42865121       0.00378902      -0.04998463
C       -0.88890051       1.41969256      -0.26976306
O        0.48060145       1.28374789      -0.59052344
H        2.33389644       1.31083231       1.06199319
H        0.63845792      -1.24082657      -1.57327759
H        1.65557567      -1.94362339      -0.14831810
H       -0.20219412      -1.02411361       1.58297295
H       -0.15413370      -1.90428898      -0.05816225
H       -1.74727336      -0.44071886      -0.99657151
H       -2.28113526      -0.01982013       0.62905959
H       -1.01028045       2.02163074       0.63991938
H       -1.37963805       1.93820594      -1.09338216
16
Frame=6 idx=008324 GeodesicLength=0.6332660679714173 rxn_smarts="[N:1](=[C:2]1/[C:3]([H:9])([H:10])[C:4]([H:11])([H:12])[C:5]([H:13])([H:14])[C:6]([H:15])([H:16])[O:7]1)\[H:8]>>[N:1](=[C:2]1/[C@@:4]([C:3]([H:9])([H:10])[H:12])([H:11])[C:5]([H:13])([H:14])[C:6]([H:15])([H:16])[O:7]1)\[H:8]"
N        2.25624096       0.37318855       0.69116107
C        1.10201539       0.22326062       0.11853279
C        0.86940145      -1.30038245      -0.50181430
C       -0.24551122      -0.70289476       0.54392653
C       -1.42712821       0.00054487      -0.06646345
C       -0.89296592       1.42221753      -0.25112114
O        0.47977254       1.30064371      -0.57109195
H        2.36767653       1.32983467       1.01282024
H        0.64717666      -1.25661783      -1.56258590
H        1.64990355      -1.94795071      -0.12205114
H       -0.21402896      -1.00397553       1.58289130
H       -0.17264765      -1.93483412      -0.04920243
H       -1.72730339      -0.42611546      -1.02721023
H       -2.29183767      -0.03834168       0.59624031
H       -1.01938739       2.00355795       0.67096049
H       -1.38137668       1.95786467      -1.06499220
16
Frame=7 idx=008324 GeodesicLength=0.7387537803089377 rxn_smarts="[N:1](=[C:2]1/[C:3]([H:9])([H:10])[C:4]([H:11])([H:12])[C:5]([H:13])([H:14])[C:6]([H:15])([H:16])[O:7]1)\[H:8]>>[N:1](=[C:2]1/[C@@:4]([C:3]([H:9])([H:10])[H:12])([H:11])[C:5]([H:13])([H:14])[C:6]([H:15])([H:16])[O:7]1)\[H:8]"
N        2.26477405       0.38316074       0.67411926
C        1.10654495       0.23749726       0.11691826
C        0.86060915      -1.31457886      -0.48651491
C       -0.25142168      -0.71468851       0.53376219
C       -1.42528088      -0.00246508      -0.08327410
C       -0.89740967       1.42441379      -0.23202241
O        0.47871122       1.31815089      -0.55012157
H        2.40249499       1.34764792       0.96067758
H        0.65636743      -1.27233353      -1.55123597
H        1.64394059      -1.95183097      -0.09478086
H       -0.22647828      -0.98410331       1.58195755
H       -0.19157731      -1.96492651      -0.03995513
H       -1.70595712      -0.41084980      -1.05778089
H       -2.30233910      -0.05661936       0.56192518
H       -1.02947382       1.98452297       0.70210848
H       -1.38350454       1.97700236      -1.03578266
16
Frame=8 idx=008324 GeodesicLength=0.8442428510958174 rxn_smarts="[N:1](=[C:2]1/[C:3]([H:9])([H:10])[C:4]([H:11])([H:12])[C:5]([H:13])([H:14])[C:6]([H:15])([H:16])[O:7]1)\[H:8]>>[N:1](=[C:2]1/[C@@:4]([C:3]([H:9])([H:10])[H:12])([H:11])[C:5]([H:13])([H:14])[C:6]([H:15])([H:16])[O:7]1)\[H:8]"
N        2.27337427       0.39317727       0.65683811
C        1.11099809       0.25211734       0.11572823
C        0.85189801      -1.32861569      -0.47075381
C       -0.25757865      -0.72646870       0.52389159
C       -1.42307922      -0.00521517      -0.10042416
C       -0.90224736       1.42627302      -0.21244752
O        0.47741284       1.33628624      -0.52741225
H        2.43833480       1.36413008       0.90512395
H        0.66607912      -1.28791445      -1.53918216
H        1.63770567      -1.95520567      -0.06646463
H       -0.23956995      -0.96461903       1.58020354
H       -0.21095250      -1.99458068      -0.03047274
H       -1.68315013      -0.39486342      -1.08825153
H       -2.31258896      -0.07460893       0.52603614
H       -1.04062377       1.96450289       0.73334433
H       -1.38601226       1.99560488      -1.00575711
16
Frame=9 idx=008324 GeodesicLength=0.9496689775021518 rxn_smarts="[N:1](=[C:2]1/[C:3]([H:9])([H:10])[C:4]([H:11])([H:12])[C:5]([H:13])([H:14])[C:6]([H:15])([H:16])[O:7]1)\[H:8]>>[N:1](=[C:2]1/[C@@:4]([C:3]([H:9])([H:10])[H:12])([H:11])[C:5]([H:13])([H:14])[C:6]([H:15])([H:16])[O:7]1)\[H:8]"
N        2.28201061       0.40331009       0.63925668
C        1.11535308       0.26715562       0.11501784
C        0.84326261      -1.34245510      -0.45452515
C       -0.26397812      -0.73823243       0.51432098
C       -1.42045105      -0.00767110      -0.11788666
C       -0.90746903       1.42775744      -0.19240561
O        0.47587534       1.35504984      -0.50277560
H        2.47495531       1.37898260       0.84596559
H        0.67632143      -1.30327762      -1.52639684
H        1.63119169      -1.95796432      -0.03709949
H       -0.25327492      -0.94557826       1.57767524
H       -0.23078633      -2.02376971      -0.02079377
H       -1.65878502      -0.37810593      -1.11852292
H       -2.32246864      -0.09223227       0.48854920
H       -1.05290554       1.94345738       0.76459745
H       -1.38885142       2.01357378      -0.97497694
16
Frame=10 idx=008324 GeodesicLength=1.0550860157487252 rxn_smarts="[N:1](=[C:2]1/[C:3]([H:9])([H:10])[C:4]([H:11])([H:12])[C:5]([H:13])([H:14])[C:6]([H:15])([H:16])[O:7]1)\[H:8]>>[N:1](=[C:2]1/[C@@:4]([C:3]([H:9])([H:10])[H:12])([H:11])[C:5]([H:13])([H:14])[C:6]([H:15])([H:16])[O:7]1)\[H:8]"
N        2.29069495       0.41366066       0.62141004
C        1.11961659       0.28263835       0.11488716
C        0.83472366      -1.35611098      -0.43779786
C       -0.27063390      -0.75001182       0.50505014
C       -1.41735789      -0.00979660      -0.13566020
C       -0.91308308       1.42887871      -0.17188573
O        0.47409974       1.37445361      -0.47599024
H        2.51215752       1.39199637       0.78281310
H        0.68714299      -1.31839040      -1.51283217
H        1.62444120      -1.96006414      -0.00665360
H       -0.26759865      -0.92710607       1.57440826
H       -0.25110769      -2.05253347      -0.01098247
H       -1.63277992      -0.36051476      -1.14853855
H       -2.33190647      -0.10942193       0.44940153
H       -1.06639729       1.92139749       0.79583049
H       -1.39201176       2.03092499      -0.94345990
16
Frame=11 idx=008324 GeodesicLength=1.1604601458604342 rxn_smarts="[N:1](=[C:2]1/[C:3]([H:9])([H:10])[C:4]([H:11])([H:12])[C:5]([H:13])([H:14])[C:6]([H:15])([H:16])[O:7]1)\[H:8]>>[N:1](=[C:2]1/[C@@:4]([C:3]([H:9])([H:10])[H:12])([H:11])[C:5]([H:13])([H:14])[C:6]([H:15])([H:16])[O:7]1)\[H:8]"
N        2.29943428       0.42434086       0.60318126
C        1.12378241       0.29859185       0.11539633
C        0.82628481      -1.36957338      -0.42055912
C       -0.27753533      -0.76181449       0.49607872
C       -1.41371707      -0.01154816      -0.15371841
C       -0.91906676       1.42961807      -0.15089252
O        0.47208895       1.39448098      -0.44683462
H        2.54951903       1.40285439       0.71547436
H        0.69856252      -1.33320394      -1.49845187
H        1.61746593      -1.96141242       0.02488019
H       -0.28250468      -0.90926405       1.57044924
H       -0.27193334      -2.08086932      -0.00108998
H       -1.60502423      -0.34202751      -1.17819324
H       -2.34076763      -0.12608491       0.40856384
H       -1.08115645       1.89830461       0.82697439
H       -1.39543242       2.04760740      -0.91125858
16
Frame=12 idx=008324 GeodesicLength=1.2657861069675205 rxn_smarts="[N:1](=[C:2]1/[C:3]([H:9])([H:10])[C:4]([H:11])([H:12])[C:5]([H:13])([H:14])[C:6]([H:15])([H:16])[O:7]1)\[H:8]>>[N:1](=[C:2]1/[C@@:4]([C:3]([H:9])([H:10])[H:12])([H:11])[C:5]([H:13])([H:14])[C:6]([H:15])([H:16])[O:7]1)\[H:8]"
N        2.30829760       0.43547386       0.58429933
C        1.12786865       0.31503217       0.11655430
C        0.81794732      -1.38286212      -0.40281443
C       -0.28465219      -0.77365102       0.48740208
C       -1.40944088      -0.01287538      -0.17201758
C       -0.92537588       1.42997038      -0.12945338
O        0.46985986       1.41509708      -0.41512219
H        2.58640563       1.41127738       0.64404248
H        0.71056399      -1.34771673      -1.48323506
H        1.61029146      -1.96194127       0.05747560
H       -0.29790524      -0.89209664       1.56584580
H       -0.29328423      -2.10879458       0.00884661
H       -1.57543622      -0.32259179      -1.20734988
H       -2.34890001      -0.14210207       0.36604797
H       -1.09719697       1.87419436       0.85792930
H       -1.39904290       2.06358639      -0.87845096
16
Frame=13 idx=008324 GeodesicLength=1.3710430493210926 rxn_smarts="[N:1](=[C:2]1/[C:3]([H:9])([H:10])[C:4]([H:11])([H:12])[C:5]([H:13])([H:14])[C:6]([H:15])([H:16])[O:7]1)\[H:8]>>[N:1](=[C:2]1/[C@@:4]([C:3]([H:9])([H:10])[H:12])([H:11])[C:5]([H:13])([H:14])[C:6]([H:15])([H:16])[O:7]1)\[H:8]"
N        2.31740218       0.44716360       0.56427264
C        1.13191358       0.33194961       0.11829289
C        0.80969330      -1.39602552      -0.38459534
C       -0.29193071      -0.78552708       0.47901077
C       -1.40442287      -0.01372247      -0.19049109
C       -0.93191937       1.42992715      -0.10762402
O        0.46744829       1.43620935      -0.38074132
H        2.62189846       1.41711584       0.56902897
H        0.72306974      -1.36198831      -1.46718488
H        1.60293485      -1.96160010       0.09105617
H       -0.31364759      -0.87561144       1.56064422
H       -0.31519388      -2.13632568       0.01881500
H       -1.54395744      -0.30217190      -1.23583476
H       -2.35610967      -0.15732077       0.32192605
H       -1.11444187       1.84910421       0.88856193
H       -1.40273699       2.07882351      -0.84513724
16
Frame=14 idx=008324 GeodesicLength=1.4762453239006075 rxn_smarts="[N:1](=[C:2]1/[C:3]([H:9])([H:10])[C:4]([H:11])([H:12])[C:5]([H:13])([H:14])[C:6]([H:15])([H:16])[O:7]1)\[H:8]>>[N:1](=[C:2]1/[C@@:4]([C:3]([H:9])([H:10])[H:12])([H:11])[C:5]([H:13])([H:14])[C:6]([H:15])([H:16])[O:7]1)\[H:8]"
N        2.32685142       0.45944706       0.54262279
C        1.13595388       0.34931497       0.12060686
C        0.80150316      -1.40912722      -0.36591895
C       -0.29934473      -0.79747657       0.47089664
C       -1.39856778      -0.01403850      -0.20907765
C       -0.93859247       1.42948295      -0.08544772
O        0.46490859       1.45769079      -0.34353176
H        2.65517227       1.42045941       0.49082545
H        0.73602114      -1.37607287      -1.45029493
H        1.59540132      -1.96036877       0.12555869
H       -0.32963555      -0.85986591       1.55489012
H       -0.33772013      -2.16349947       0.02877697
H       -1.51052628      -0.28072990      -1.26348637
H       -2.36223505      -0.17158790       0.27624661
H       -1.13282930       1.82306719       0.91875066
H       -1.40636051       2.09330472      -0.81141741
16
Frame=15 idx=008324 GeodesicLength=1.5813926627262247 rxn_smarts="[N:1](=[C:2]1/[C:3]([H:9])([H:10])[C:4]([H:11])([H:12])[C:5]([H:13])([H:14])[C:6]([H:15])([H:16])[O:7]1)\[H:8]>>[N:1](=[C:2]1/[C@@:4]([C:3]([H:9])([H:10])[H:12])([H:11])[C:5]([H:13])([H:14])[C:6]([H:15])([H:16])[O:7]1)\[H:8]"
N        2.33671441       0.47231774       0.51884277
C        1.14002083       0.36707523       0.12354320
C        0.79334358      -1.42223897      -0.34678843
C       -0.30688358      -0.80954374       0.46305086
C       -1.39176953      -0.01377522      -0.22772088
C       -0.94525893       1.42862130      -0.06295932
O        0.46230661       1.47934568      -0.30331917
H        2.68537458       1.42158804       0.40977700
H        0.74935839      -1.39003253      -1.43254803
H        1.58767191      -1.95823613       0.16092765
H       -0.34580660      -0.84493302       1.54862832
H       -0.36094151      -2.19034778       0.03867381
H       -1.47505789      -0.25822974      -1.29015220
H       -2.36710232      -0.18474050       0.22904252
H       -1.15226893       1.79610654       0.94838051
H       -1.40970104       2.10702311      -0.77737863
16
Frame=16 idx=008324 GeodesicLength=1.6865023071262457 rxn_smarts="[N:1](=[C:2]1/[C:3]([H:9])([H:10])[C:4]([H:11])([H:12])[C:5]([H:13])([H:14])[C:6]([H:15])([H:16])[O:7]1)\[H:8]>>[N:1](=[C:2]1/[C@@:4]([C:3]([H:9])([H:10])[H:12])([H:11])[C:5]([H:13])([H:14])[C:6]([H:15])([H:16])[O:7]1)\[H:8]"
N        2.34707740       0.48569635       0.49222790
C        1.14417912       0.38514128       0.12709946
C        0.78515852      -1.43547455      -0.32723518
C       -0.31453006      -0.82178606       0.45546125
C       -1.38392767      -0.01288925      -0.24633523
C       -0.95173548       1.42732857      -0.04023463
O        0.45974604       1.50090576      -0.26002550
H        2.71152709       1.42110180       0.32665949
H        0.76295497      -1.40399166      -1.41395630
H        1.57971890      -1.95523800       0.19705256
H       -0.36205958      -0.83087665       1.54190362
H       -0.38496721      -2.21692161       0.04846521
H       -1.43752781      -0.23467957      -1.31563772
H       -2.37053358      -0.19657954       0.18042693
H       -1.17258629       1.76829023       0.97728661
H       -1.41249436       2.11997291      -0.74315846
