16
Frame=0 idx=001859 GeodesicLength=0.0 rxn_smarts="[C:1]([C:2]([C:3]1([O:4][H:12])[C:5]([H:13])([H:14])[C:6]1([H:15])[H:16])([H:10])[H:11])([H:7])([H:8])[H:9]>>[C:1](=[C:2]([H:10])[H:11])([H:7])[H:8].[C:3]1(=[O:4])[C:5]([H:13])([H:14])[C:6]1([H:15])[H:16].[H:9][H:12]"
C        2.03786374      -0.47492173      -0.25943267
C        0.97599523       0.23122613      -0.75817057
C       -0.68550007       0.08475547       0.53020448
O       -0.32893644      -0.18755012       1.69106358
C       -1.58617255       1.11591574      -0.02174999
C       -1.81753291      -0.39835756      -0.29292126
H        2.89590235       0.03175291       0.16343059
H        2.18926884      -1.51453324      -0.52477784
H        1.75040807      -0.94089326       1.34813248
H        0.39375146      -0.21174108      -1.55357163
H        1.02379826       1.31148463      -0.73537555
H        1.01473026      -0.75709928       1.67328037
H       -2.24503892       1.60735600       0.68432214
H       -1.30574777       1.72096739      -0.87385113
H       -2.62371072      -0.88564190       0.24298280
H       -1.68907883      -0.73272010      -1.31356579
16
Frame=1 idx=001859 GeodesicLength=0.08889537943524504 rxn_smarts="[C:1]([C:2]([C:3]1([O:4][H:12])[C:5]([H:13])([H:14])[C:6]1([H:15])[H:16])([H:10])[H:11])([H:7])([H:8])[H:9]>>[C:1](=[C:2]([H:10])[H:11])([H:7])[H:8].[C:3]1(=[O:4])[C:5]([H:13])([H:14])[C:6]1([H:15])[H:16].[H:9][H:12]"
C        2.04696343      -0.46730978      -0.24622826
C        0.97559078       0.21258831      -0.76913628
C       -0.68825170       0.06616309       0.51643747
O       -0.34353983      -0.22667760       1.67933767
C       -1.58598256       1.11837457      -0.00053824
C       -1.83378682      -0.38524622      -0.30618377
H        2.90976051       0.06397133       0.13523791
H        2.20188343      -1.51410610      -0.47994905
H        1.77652913      -0.90015562       1.37544093
H        0.41149193      -0.25937748      -1.56167117
H        1.02530784       1.29294431      -0.80012640
H        1.00427245      -0.77015433       1.68860645
H       -2.23825132       1.59829906       0.71939969
H       -1.30457244       1.74385621      -0.83738947
H       -2.64182691      -0.87729545       0.22237784
H       -1.71558791      -0.69587431      -1.33561530
16
Frame=2 idx=001859 GeodesicLength=0.17752940416170926 rxn_smarts="[C:1]([C:2]([C:3]1([O:4][H:12])[C:5]([H:13])([H:14])[C:6]1([H:15])[H:16])([H:10])[H:11])([H:7])([H:8])[H:9]>>[C:1](=[C:2]([H:10])[H:11])([H:7])[H:8].[C:3]1(=[O:4])[C:5]([H:13])([H:14])[C:6]1([H:15])[H:16].[H:9][H:12]"
C        2.05603539      -0.45751485      -0.23243647
C        0.97472686       0.19195173      -0.78130655
C       -0.69138414       0.04630177       0.50221868
O       -0.35855601      -0.26989317       1.66594768
C       -1.58428389       1.12057811       0.02242273
C       -1.85031454      -0.37048156      -0.32012291
H        2.92156463       0.09822224       0.10621227
H        2.21729903      -1.51039795      -0.43286339
H        1.79947379      -0.85507690       1.40267984
H        0.42964710      -0.31258264      -1.56785823
H        1.02486035       1.26954636      -0.86955530
H        0.99407232      -0.78344392       1.70352547
H       -2.22960743       1.58807019       0.75662280
H       -1.30045412       1.76728481      -0.79726531
H       -2.66100183      -0.86711046       0.19990618
H       -1.74207750      -0.65545375      -1.35812749
16
Frame=3 idx=001859 GeodesicLength=0.26586812937722526 rxn_smarts="[C:1]([C:2]([C:3]1([O:4][H:12])[C:5]([H:13])([H:14])[C:6]1([H:15])[H:16])([H:10])[H:11])([H:7])([H:8])[H:9]>>[C:1](=[C:2]([H:10])[H:11])([H:7])[H:8].[C:3]1(=[O:4])[C:5]([H:13])([H:14])[C:6]1([H:15])[H:16].[H:9][H:12]"
C        2.06475313      -0.44537633      -0.21821409
C        0.97337555       0.16919175      -0.79478123
C       -0.69493606       0.02500361       0.48747633
O       -0.37396903      -0.31761917       1.65055827
C       -1.58087558       1.12229067       0.04721815
C       -1.86694465      -0.35392910      -0.33484161
H        2.93106814       0.13434627       0.07601264
H        2.23504630      -1.50309259      -0.38354149
H        1.81873517      -0.80547079       1.42960720
H        0.44823557      -0.37130421      -1.57179083
H        1.02227452       1.24065483      -0.94324858
H        0.98424960      -0.79586873       1.71836280
H       -2.21894632       1.57626979       0.79604912
H       -1.29280797       1.79098868      -0.75308436
H       -2.68114167      -0.85491034       0.17530266
H       -1.76811671      -0.61117435      -1.38108498
16
Frame=4 idx=001859 GeodesicLength=0.3539391475153414 rxn_smarts="[C:1]([C:2]([C:3]1([O:4][H:12])[C:5]([H:13])([H:14])[C:6]1([H:15])[H:16])([H:10])[H:11])([H:7])([H:8])[H:9]>>[C:1](=[C:2]([H:10])[H:11])([H:7])[H:8].[C:3]1(=[O:4])[C:5]([H:13])([H:14])[C:6]1([H:15])[H:16].[H:9][H:12]"
C        2.07279214      -0.43068550      -0.20376834
C        0.97155561       0.14425154      -0.80963418
C       -0.69891621       0.00229117       0.47216865
O       -0.38960839      -0.36979299       1.63287779
C       -1.57561905       1.12329628       0.07379187
C       -1.88346553      -0.33550124      -0.35027980
H        2.93789868       0.17224848       0.04464568
H        2.25483296      -1.49172705      -0.33237681
H        1.83376859      -0.75186894       1.45574576
H        0.46731884      -0.43528334      -1.57311760
H        1.01742998       1.20578110      -1.02062758
H        0.97462538      -0.80660947       1.73342476
H       -2.20619764       1.56261557       0.83752068
H       -1.28113462       1.81453100      -0.70471675
H       -2.70206733      -0.84051557       0.14859339
H       -1.79321342      -0.56303104      -1.40424752
16
Frame=5 idx=001859 GeodesicLength=0.4415525038281788 rxn_smarts="[C:1]([C:2]([C:3]1([O:4][H:12])[C:5]([H:13])([H:14])[C:6]1([H:15])[H:16])([H:10])[H:11])([H:7])([H:8])[H:9]>>[C:1](=[C:2]([H:10])[H:11])([H:7])[H:8].[C:3]1(=[O:4])[C:5]([H:13])([H:14])[C:6]1([H:15])[H:16].[H:9][H:12]"
C        2.07971068      -0.41328674      -0.18932473
C        0.96933522       0.11723879      -0.82584939
C       -0.70326793      -0.02163190       0.45629009
O       -0.40511936      -0.42578834       1.61268983
C       -1.56842102       1.12334769       0.10196627
C       -1.89952896      -0.31524025      -0.36624400
H        2.94177202       0.21164130       0.01194750
H        2.27596144      -1.47593054      -0.27980176
H        1.84398237      -0.69456101       1.48071501
H        0.48698787      -0.50379517      -1.57158965
H        1.01045817       1.16473730      -1.10065487
H        0.96462398      -0.81562151       1.74859067
H       -2.19133882       1.54686975       0.88070521
H       -1.26506660       1.83723637      -0.65227752
H       -2.72334802      -0.82386265       0.12005387
H       -1.81674102      -0.51135309      -1.42721653
16
Frame=6 idx=001859 GeodesicLength=0.5290742525151785 rxn_smarts="[C:1]([C:2]([C:3]1([O:4][H:12])[C:5]([H:13])([H:14])[C:6]1([H:15])[H:16])([H:10])[H:11])([H:7])([H:8])[H:9]>>[C:1](=[C:2]([H:10])[H:11])([H:7])[H:8].[C:3]1(=[O:4])[C:5]([H:13])([H:14])[C:6]1([H:15])[H:16].[H:9][H:12]"
C        2.08517392      -0.39315121      -0.17518569
C        0.96688985       0.08853597      -0.84331549
C       -0.70789288      -0.04635018       0.43990036
O       -0.42003807      -0.48444038       1.59004726
C       -1.55942174       1.12226580       0.13129738
C       -1.91479942      -0.29335454      -0.38235360
H        2.94270112       0.25186155      -0.02213785
H        2.29762373      -1.45554490      -0.22645739
H        1.84897590      -0.63435439       1.50406405
H        0.50741547      -0.57549609      -1.56712028
H        1.00172776       1.11792115      -1.18191084
H        0.95364377      -0.82331536       1.76376408
H       -2.17465713       1.52897514       0.92491051
H       -1.24468162       1.85838462      -0.59643553
H       -2.74450297      -0.80508423       0.09033783
H       -1.83815769      -0.45685296      -1.44940478
16
Frame=7 idx=001859 GeodesicLength=0.6161940348166804 rxn_smarts="[C:1]([C:2]([C:3]1([O:4][H:12])[C:5]([H:13])([H:14])[C:6]1([H:15])[H:16])([H:10])[H:11])([H:7])([H:8])[H:9]>>[C:1](=[C:2]([H:10])[H:11])([H:7])[H:8].[C:3]1(=[O:4])[C:5]([H:13])([H:14])[C:6]1([H:15])[H:16].[H:9][H:12]"
C        2.08887033      -0.37014442      -0.16156957
C        0.96439632       0.05856728      -0.86175001
C       -0.71262131      -0.07105090       0.42321896
O       -0.43385059      -0.54354286       1.56547120
C       -1.54884913       1.12013546       0.16107468
C       -1.92894370      -0.27016900      -0.39795704
H        2.94023914       0.29291153      -0.05666958
H        2.31971517      -1.43012507      -0.17381694
H        1.84842998      -0.57374199       1.52525784
H        0.52885264      -0.64909078      -1.55955738
H        0.99170547       1.06585677      -1.26316436
H        0.94105762      -0.83117317       1.77831873
H       -2.15653998       1.50947076       0.96903082
H       -1.22043635       1.87725451      -0.53854009
H       -2.76496275      -0.78433790       0.06061188
H       -1.85706286      -0.40082022      -1.46995914
16
Frame=8 idx=001859 GeodesicLength=0.7032218022745177 rxn_smarts="[C:1]([C:2]([C:3]1([O:4][H:12])[C:5]([H:13])([H:14])[C:6]1([H:15])[H:16])([H:10])[H:11])([H:7])([H:8])[H:9]>>[C:1](=[C:2]([H:10])[H:11])([H:7])[H:8].[C:3]1(=[O:4])[C:5]([H:13])([H:14])[C:6]1([H:15])[H:16].[H:9][H:12]"
C        2.09055329      -0.34451628      -0.14871079
C        0.96204921       0.02795313      -0.88077323
C       -0.71732949      -0.09516407       0.40642909
O       -0.44631208      -0.60142354       1.53957472
C       -1.53709421       1.11696129       0.19071388
C       -1.94171923      -0.24614320      -0.41265883
H        2.93482621       0.33383900      -0.09183106
H        2.34117274      -1.40002913      -0.12256617
H        1.84264286      -0.51370816       1.54423302
H        0.55149494      -0.72278260      -1.54913430
H        0.98121657       1.00960879      -1.34282831
H        0.92665724      -0.84015734       1.79189372
H       -2.13756009       1.48863953       1.01221804
H       -1.19311222       1.89333746      -0.47975204
H       -2.78425086      -0.76209927       0.03164105
H       -1.87323489      -0.34431561      -1.48844879
16
Frame=9 idx=001859 GeodesicLength=0.7902843490637654 rxn_smarts="[C:1]([C:2]([C:3]1([O:4][H:12])[C:5]([H:13])([H:14])[C:6]1([H:15])[H:16])([H:10])[H:11])([H:7])([H:8])[H:9]>>[C:1](=[C:2]([H:10])[H:11])([H:7])[H:8].[C:3]1(=[O:4])[C:5]([H:13])([H:14])[C:6]1([H:15])[H:16].[H:9][H:12]"
C        2.09009349      -0.31655579      -0.13676195
C        0.95999994      -0.00277369      -0.89998637
C       -0.72192660      -0.11820241       0.38972128
O       -0.45737155      -0.65670342       1.51303316
C       -1.52457560       1.11285297       0.21976343
C       -1.95300179      -0.22169665      -0.42616748
H        2.92696355       0.37379105      -0.12775656
H        2.36120892      -1.36573693      -0.07323556
H        1.83212842      -0.45511269       1.56104086
H        0.57550835      -0.79512608      -1.53612118
H        0.97108877       0.95022803      -1.41976540
H        0.91050796      -0.85114478       1.80412499
H       -2.11829609       1.46685721       1.05382138
H       -1.16365776       1.90639501      -0.42110013
H       -2.80203065      -0.73884814       0.00400685
H       -1.88663936      -0.28822370      -1.50461732
16
Frame=10 idx=001859 GeodesicLength=0.8774449705949007 rxn_smarts="[C:1]([C:2]([C:3]1([O:4][H:12])[C:5]([H:13])([H:14])[C:6]1([H:15])[H:16])([H:10])[H:11])([H:7])([H:8])[H:9]>>[C:1](=[C:2]([H:10])[H:11])([H:7])[H:8].[C:3]1(=[O:4])[C:5]([H:13])([H:14])[C:6]1([H:15])[H:16].[H:9][H:12]"
C        2.08744662      -0.28644202      -0.12585861
C        0.95830229      -0.03346852      -0.91912851
C       -0.72638922      -0.13997070       0.37319704
O       -0.46717539      -0.70886707       1.48630580
C       -1.51153507       1.10796708       0.24802643
C       -1.96284968      -0.19700638      -0.43841212
H        2.91687145       0.41247339      -0.16428343
H        2.37954262      -1.32751397      -0.02614570
H        1.81758862      -0.39841104       1.57582861
H        0.60104586      -0.86554533      -1.52061453
H        0.96174634       0.88817241      -1.49362196
H        0.89296163      -0.86467412       1.81485791
H       -2.09908975       1.44444566       1.09356450
H       -1.13268505       1.91652353      -0.36311212
H       -2.81831125      -0.71480748      -0.02211901
H       -1.89747002      -0.23287545      -1.51848430
16
Frame=11 idx=001859 GeodesicLength=0.9648461489809024 rxn_smarts="[C:1]([C:2]([C:3]1([O:4][H:12])[C:5]([H:13])([H:14])[C:6]1([H:15])[H:16])([H:10])[H:11])([H:7])([H:8])[H:9]>>[C:1](=[C:2]([H:10])[H:11])([H:7])[H:8].[C:3]1(=[O:4])[C:5]([H:13])([H:14])[C:6]1([H:15])[H:16].[H:9][H:12]"
C        2.08257325      -0.25434926      -0.11612432
C        0.95697712      -0.06411459      -0.93802924
C       -0.73073253      -0.16048317       0.35688819
O       -0.47592006      -0.75794681       1.45961830
C       -1.49812351       1.10238142       0.27552927
C       -1.97133918      -0.17213944      -0.44946268
H        2.90483627       0.44955661      -0.20155743
H        2.39583570      -1.28566746       0.01879260
H        1.79955431      -0.34329163       1.58876174
H        0.62819593      -0.93375768      -1.50268211
H        0.95355377       0.82369132      -1.56429536
H        0.87438395      -0.88090939       1.82400370
H       -2.08013313       1.42150039       1.13150517
H       -1.10062081       1.92388074      -0.30588166
H       -2.83315510      -0.69011234      -0.04684707
H       -1.90588596      -0.17823871      -1.53021911
16
Frame=12 idx=001859 GeodesicLength=1.0525846926340385 rxn_smarts="[C:1]([C:2]([C:3]1([O:4][H:12])[C:5]([H:13])([H:14])[C:6]1([H:15])[H:16])([H:10])[H:11])([H:7])([H:8])[H:9]>>[C:1](=[C:2]([H:10])[H:11])([H:7])[H:8].[C:3]1(=[O:4])[C:5]([H:13])([H:14])[C:6]1([H:15])[H:16].[H:9][H:12]"
C        2.07542226      -0.22041294      -0.10770467
C        0.95601599      -0.09481954      -0.95658594
C       -0.73498441      -0.17982440       0.34079831
O       -0.48378408      -0.80418054       1.43307493
C       -1.48440806       1.09615327       0.30238025
C       -1.97855378      -0.14706713      -0.45942679
H        2.89095866       0.48493134      -0.23955231
H        2.40989441      -1.24037329       0.06169304
H        1.77844121      -0.28934099       1.59993263
H        0.65702181      -0.99973619      -1.48230306
H        0.94673238       0.75677073      -1.63189290
H        0.85513938      -0.89989751       1.83147137
H       -2.06151821       1.39805518       1.16780260
H       -1.06769811       1.92865086      -0.24930175
H       -2.84667081      -0.66478294      -0.07038193
H       -1.91200863      -0.12412591      -1.54000376
16
Frame=13 idx=001859 GeodesicLength=1.140810823966067 rxn_smarts="[C:1]([C:2]([C:3]1([O:4][H:12])[C:5]([H:13])([H:14])[C:6]1([H:15])[H:16])([H:10])[H:11])([H:7])([H:8])[H:9]>>[C:1](=[C:2]([H:10])[H:11])([H:7])[H:8].[C:3]1(=[O:4])[C:5]([H:13])([H:14])[C:6]1([H:15])[H:16].[H:9][H:12]"
C        2.06594561      -0.18479648      -0.10077513
C        0.95541584      -0.12568441      -0.97472899
C       -0.73917636      -0.19810447       0.32492067
O       -0.49090419      -0.84787050       1.40671188
C       -1.47044753       1.08929693       0.32873156
C       -1.98455492      -0.12173980      -0.46841330
H        2.87539403       0.51839919      -0.27830836
H        2.42145219      -1.19183018       0.10273218
H        1.75451591      -0.23595136       1.60935386
H        0.68756617      -1.06344247      -1.45946648
H        0.94149947       0.68738777      -1.69649658
H        0.83555428      -0.92157619       1.83718760
H       -2.04332944       1.37405771       1.20266829
H       -1.03410596       1.93098168      -0.19316840
H       -2.85894353      -0.63882417      -0.09295409
H       -1.91588156      -0.07030324      -1.54799472
16
Frame=14 idx=001859 GeodesicLength=1.2296717738627234 rxn_smarts="[C:1]([C:2]([C:3]1([O:4][H:12])[C:5]([H:13])([H:14])[C:6]1([H:15])[H:16])([H:10])[H:11])([H:7])([H:8])[H:9]>>[C:1](=[C:2]([H:10])[H:11])([H:7])[H:8].[C:3]1(=[O:4])[C:5]([H:13])([H:14])[C:6]1([H:15])[H:16].[H:9][H:12]"
C        2.05407029      -0.14765606      -0.09555250
C        0.95515579      -0.15688624      -0.99241369
C       -0.74333520      -0.21544245       0.30924425
O       -0.49738026      -0.88933403       1.38052406
C       -1.45623988       1.08181040       0.35474751
C       -1.98937077      -0.09606136      -0.47653401
H        2.85812840       0.54996362      -0.31771488
H        2.43030981      -1.14014380       0.14201141
H        1.72794690      -0.18253649       1.61695161
H        0.71983980      -1.12493658      -1.43409247
H        0.93794907       0.61535418      -1.75820918
H        0.81592852      -0.94589251       1.84107050
H       -2.02559892       1.34943742       1.23630524
H       -0.99987623       1.93098826      -0.13718908
H       -2.87004762      -0.61216731      -0.11482578
H       -1.91747969      -0.01649704      -1.55432299
16
Frame=15 idx=001859 GeodesicLength=1.3193498628934486 rxn_smarts="[C:1]([C:2]([C:3]1([O:4][H:12])[C:5]([H:13])([H:14])[C:6]1([H:15])[H:16])([H:10])[H:11])([H:7])([H:8])[H:9]>>[C:1](=[C:2]([H:10])[H:11])([H:7])[H:8].[C:3]1(=[O:4])[C:5]([H:13])([H:14])[C:6]1([H:15])[H:16].[H:9][H:12]"
C        2.03973084      -0.10918802      -0.09226730
C        0.95522388      -0.18856377      -1.00958816
C       -0.74748516      -0.23193248       0.29377703
O       -0.50328267      -0.92881529       1.35452432
C       -1.44180186       1.07367594       0.38058344
C       -1.99299889      -0.06994403      -0.48387283
H        2.83919321       0.57956600      -0.35770881
H        2.43622041      -1.08544798       0.17960938
H        1.69881291      -0.12849242       1.62258670
H        0.75383603      -1.18419252      -1.40612075
H        0.93619337       0.54054133      -1.81703737
H        0.79653511      -0.97282498       1.84301193
H       -2.00839473       1.32411341       1.26888663
H       -0.96506020       1.92873384      -0.08108574
H       -2.88001733      -0.58474284      -0.13622911
H       -1.91670492       0.03751382      -1.55906938
16
Frame=16 idx=001859 GeodesicLength=1.4100620164421522 rxn_smarts="[C:1]([C:2]([C:3]1([O:4][H:12])[C:5]([H:13])([H:14])[C:6]1([H:15])[H:16])([H:10])[H:11])([H:7])([H:8])[H:9]>>[C:1](=[C:2]([H:10])[H:11])([H:7])[H:8].[C:3]1(=[O:4])[C:5]([H:13])([H:14])[C:6]1([H:15])[H:16].[H:9][H:12]"
C        2.02286994      -0.06962157      -0.09116393
C        0.95560833      -0.22084085      -1.02619353
C       -0.75164620      -0.24765410       0.27854159
O       -0.50866164      -0.96650908       1.32874121
C       -1.42715133       1.06486249       0.40638516
C       -1.99540895      -0.04330022      -0.49049587
H        2.81862432       0.60714719      -0.39822669
H        2.43891611      -1.02788389       0.21556438
H        1.66712861      -0.07320453       1.62605884
H        0.78952626      -1.24113492      -1.37550379
H        0.93631999       0.46284315      -1.87291934
H        0.77763020      -1.00238969       1.84289485
H       -1.99180262       1.29800295       1.30055283
H       -0.92968877       1.92423850      -0.02457283
H       -2.88886030      -0.55646485      -0.15738442
H       -1.91340394       0.09190941      -1.56227846
