10
Frame=0 idx=007207 GeodesicLength=0.0 rxn_smarts="[N:1](=[C:2](\[O:3][C:4](=[O:5])[H:9])[C:6](=[O:7])[H:10])\[H:8]>>[N:1]#[C:2][C:6](=[O:7])[H:10].[O:3]=[C:4]([O:5][H:8])[H:9]"
N       -0.53242658       1.44172475      -0.19549798
C       -0.72290307       0.29323583       0.05626221
O        0.66188513      -0.77911775       0.04898357
C        1.73630712      -0.19403782      -0.23212445
O        1.86110328       1.03541384      -0.49010098
C       -1.86024098      -0.61547402       0.40783357
O       -1.77657733      -1.78256275       0.62605817
H        0.79698031       1.46141603      -0.40647167
H        2.64628005      -0.80632837      -0.25454248
H       -2.81040793      -0.05426974       0.43960005
10
Frame=1 idx=007207 GeodesicLength=0.07374525072313683 rxn_smarts="[N:1](=[C:2](\[O:3][C:4](=[O:5])[H:9])[C:6](=[O:7])[H:10])\[H:8]>>[N:1]#[C:2][C:6](=[O:7])[H:10].[O:3]=[C:4]([O:5][H:8])[H:9]"
N       -0.55220232       1.42925218      -0.26307585
C       -0.73896608       0.27815321      -0.01656190
O        0.66702340      -0.77948858       0.03905992
C        1.75265653      -0.18700863      -0.18306804
O        1.87434906       1.03793280      -0.46221606
C       -1.85968817      -0.61440331       0.41800564
O       -1.80132432      -1.79509492       0.55771640
H        0.78841984       1.46999380      -0.41324823
H        2.65541288      -0.80736794      -0.24313844
H       -2.78568082      -0.03196863       0.56652657
10
Frame=2 idx=007207 GeodesicLength=0.14807982400338976 rxn_smarts="[N:1](=[C:2](\[O:3][C:4](=[O:5])[H:9])[C:6](=[O:7])[H:10])\[H:8]>>[N:1]#[C:2][C:6](=[O:7])[H:10].[O:3]=[C:4]([O:5][H:8])[H:9]"
N       -0.57157355       1.41619208      -0.32824471
C       -0.75337553       0.26469717      -0.07587205
O        0.66975219      -0.78286169       0.01487622
C        1.76343504      -0.18291952      -0.14766403
O        1.88443364       1.04049036      -0.43319305
C       -1.85707089      -0.61372985       0.42526779
O       -1.83157333      -1.80191576       0.49501346
H        0.77690996       1.47814989      -0.42084589
H        2.66488332      -0.80437180      -0.21653752
H       -2.74582086      -0.01373086       0.68719978
10
Frame=3 idx=007207 GeodesicLength=0.22289054893695437 rxn_smarts="[N:1](=[C:2](\[O:3][C:4](=[O:5])[H:9])[C:6](=[O:7])[H:10])\[H:8]>>[N:1]#[C:2][C:6](=[O:7])[H:10].[O:3]=[C:4]([O:5][H:8])[H:9]"
N       -0.59035137       1.40319446      -0.39085776
C       -0.76765432       0.25182686      -0.13085326
O        0.67133740      -0.78789525      -0.01857722
C        1.77023180      -0.18087748      -0.11906490
O        1.89202243       1.04395642      -0.39747853
C       -1.85360357      -0.61292060       0.42902205
O       -1.86376306      -1.80341041       0.44538203
H        0.76318533       1.48653319      -0.42692210
H        2.67295627      -0.80060495      -0.18752606
H       -2.69436092       0.00019776       0.79687574
10
Frame=4 idx=007207 GeodesicLength=0.2983998155725455 rxn_smarts="[N:1](=[C:2](\[O:3][C:4](=[O:5])[H:9])[C:6](=[O:7])[H:10])\[H:8]>>[N:1]#[C:2][C:6](=[O:7])[H:10].[O:3]=[C:4]([O:5][H:8])[H:9]"
N       -0.60857654       1.39091853      -0.44965292
C       -0.78205048       0.23957456      -0.18300959
O        0.67269087      -0.79303250      -0.05515064
C        1.77400946      -0.18022494      -0.09383907
O        1.89681280       1.04757074      -0.35791741
C       -1.84994344      -0.61171635       0.42962210
O       -1.89758621      -1.80126754       0.40387225
H        0.74751430       1.49486531      -0.43395781
H        2.67924503      -0.79685582      -0.15775852
H       -2.63211579       0.01016801       0.89779162
10
Frame=5 idx=007207 GeodesicLength=0.3743231502859207 rxn_smarts="[N:1](=[C:2](\[O:3][C:4](=[O:5])[H:9])[C:6](=[O:7])[H:10])\[H:8]>>[N:1]#[C:2][C:6](=[O:7])[H:10].[O:3]=[C:4]([O:5][H:8])[H:9]"
N       -0.62655427       1.37891332      -0.50630949
C       -0.79669907       0.22763107      -0.23355376
O        0.67401482      -0.79791951      -0.09410552
C        1.77500569      -0.18070609      -0.07012216
O        1.89827244       1.05125673      -0.31279592
C       -1.84565584      -0.60973148       0.42887182
O       -1.93301844      -1.79585979       0.36844674
H        0.73006043       1.50279881      -0.44293988
H        2.68346871      -0.79310880      -0.12852676
H       -2.55889447       0.01672574       0.99103492
10
Frame=6 idx=007207 GeodesicLength=0.45086452840873326 rxn_smarts="[N:1](=[C:2](\[O:3][C:4](=[O:5])[H:9])[C:6](=[O:7])[H:10])\[H:8]>>[N:1]#[C:2][C:6](=[O:7])[H:10].[O:3]=[C:4]([O:5][H:8])[H:9]"
N       -0.64399837       1.36895440      -0.55639726
C       -0.81118583       0.21725420      -0.27967222
O        0.67570272      -0.80138314      -0.13067015
C        1.77426036      -0.18175228      -0.04773756
O        1.89769806       1.05347255      -0.27238794
C       -1.84192008      -0.60715699       0.42629386
O       -1.96918590      -1.78798376       0.33690824
H        0.71199682       1.51112575      -0.45303699
H        2.68584330      -0.79023933      -0.09778384
H       -2.47921106       0.01770861       1.07448387
10
Frame=7 idx=007207 GeodesicLength=0.527653854228568 rxn_smarts="[N:1](=[C:2](\[O:3][C:4](=[O:5])[H:9])[C:6](=[O:7])[H:10])\[H:8]>>[N:1]#[C:2][C:6](=[O:7])[H:10].[O:3]=[C:4]([O:5][H:8])[H:9]"
N       -0.66124050       1.36122093      -0.60019448
C       -0.82553491       0.20872315      -0.32129652
O        0.67764475      -0.80335981      -0.16590091
C        1.77198529      -0.18322906      -0.02636675
O        1.89593675       1.05440085      -0.23617995
C       -1.83836462      -0.60393385       0.42323448
O       -2.00548198      -1.77773587       0.30858830
H        0.69384925       1.51968779      -0.46567193
H        2.68622661      -0.78848590      -0.06483814
H       -2.39502063       0.01271178       1.14862588
10
Frame=8 idx=007207 GeodesicLength=0.605127292368024 rxn_smarts="[N:1](=[C:2](\[O:3][C:4](=[O:5])[H:9])[C:6](=[O:7])[H:10])\[H:8]>>[N:1]#[C:2][C:6](=[O:7])[H:10].[O:3]=[C:4]([O:5][H:8])[H:9]"
N       -0.67833505       1.35352427      -0.64308200
C       -0.83989037       0.20038010      -0.36137437
O        0.68014477      -0.80452980      -0.20006567
C        1.76860133      -0.18547975      -0.00585512
O        1.89224075       1.05507066      -0.19701401
C       -1.83460148      -0.59971582       0.42051813
O       -2.04189169      -1.76517303       0.28627285
H        0.67492564       1.52866023      -0.47714665
H        2.68535958      -0.78739662      -0.03519695
H       -2.30655347       0.00465977       1.21294377
10
Frame=9 idx=007207 GeodesicLength=0.6833170277082992 rxn_smarts="[N:1](=[C:2](\[O:3][C:4](=[O:5])[H:9])[C:6](=[O:7])[H:10])\[H:8]>>[N:1]#[C:2][C:6](=[O:7])[H:10].[O:3]=[C:4]([O:5][H:8])[H:9]"
N       -0.69536443       1.34578603      -0.68491743
C       -0.85420184       0.19213930      -0.39982502
O        0.68328874      -0.80489451      -0.23333826
C        1.76424862      -0.18839768       0.01413803
O        1.88633323       1.05537848      -0.15473829
C       -1.83005286      -0.59466157       0.41881844
O       -2.07918878      -1.75008941       0.26837119
H        0.65536293       1.53766978      -0.48902648
H        2.68361457      -0.78654112      -0.00807468
H       -2.21404019      -0.00638930       1.26859249
10
Frame=10 idx=007207 GeodesicLength=0.7623813221844173 rxn_smarts="[N:1](=[C:2](\[O:3][C:4](=[O:5])[H:9])[C:6](=[O:7])[H:10])\[H:8]>>[N:1]#[C:2][C:6](=[O:7])[H:10].[O:3]=[C:4]([O:5][H:8])[H:9]"
N       -0.71228988       1.33785872      -0.72618694
C       -0.86852820       0.18387053      -0.43712806
O        0.68709031      -0.80450177      -0.26608058
C        1.75904631      -0.19201626       0.03346520
O        1.87815133       1.05509914      -0.10988383
C       -1.82492181      -0.58860881       0.41779340
O       -2.11694220      -1.73248555       0.25521556
H        0.63498398       1.54697243      -0.50016663
H        2.68121438      -0.78592708       0.01710127
H       -2.11780422      -0.02026134       1.31587061
10
Frame=11 idx=007207 GeodesicLength=0.8422087991339892 rxn_smarts="[N:1](=[C:2](\[O:3][C:4](=[O:5])[H:9])[C:6](=[O:7])[H:10])\[H:8]>>[N:1]#[C:2][C:6](=[O:7])[H:10].[O:3]=[C:4]([O:5][H:8])[H:9]"
N       -0.72926693       1.33060168      -0.76505754
C       -0.88276317       0.17623666      -0.47209837
O        0.69156910      -0.80298429      -0.29812562
C        1.75322610      -0.19603539       0.05214006
O        1.86864826       1.05396565      -0.06554740
C       -1.81914161      -0.58187253       0.41766816
O       -2.15491962      -1.71247517       0.24544956
H        0.61441199       1.55659511      -0.51241117
H        2.67802759      -0.78585274       0.04263302
H       -2.01979170      -0.03817898       1.35534929
10
Frame=12 idx=007207 GeodesicLength=0.9230853522614351 rxn_smarts="[N:1](=[C:2](\[O:3][C:4](=[O:5])[H:9])[C:6](=[O:7])[H:10])\[H:8]>>[N:1]#[C:2][C:6](=[O:7])[H:10].[O:3]=[C:4]([O:5][H:8])[H:9]"
N       -0.74626141       1.32339122      -0.80286406
C       -0.89694262       0.16875159      -0.50557923
O        0.69690279      -0.80049131      -0.33014342
C        1.74680659      -0.20063095       0.07030374
O        1.85699528       1.05204553      -0.01901260
C       -1.81231059      -0.57436015       0.41863634
O       -2.19327240      -1.68973775       0.23971624
H        0.59352675       1.56634256      -0.52555130
H        2.67440136      -0.78594646       0.06728681
H       -1.91984574      -0.05936426       1.38720747
10
Frame=13 idx=007207 GeodesicLength=1.005155602824449 rxn_smarts="[N:1](=[C:2](\[O:3][C:4](=[O:5])[H:9])[C:6](=[O:7])[H:10])\[H:8]>>[N:1]#[C:2][C:6](=[O:7])[H:10].[O:3]=[C:4]([O:5][H:8])[H:9]"
N       -0.76327268       1.31610158      -0.83980130
C       -0.91103299       0.16131115      -0.53768736
O        0.70317720      -0.79695856      -0.36198646
C        1.73995675      -0.20573844       0.08790559
O        1.84321588       1.04919426       0.02935017
C       -1.80440826      -0.56606411       0.42059988
O       -2.23192686      -1.66410042       0.23802550
H        0.57227974       1.57630370      -0.53926545
H        2.67048631      -0.78615967       0.09126732
H       -1.81847510      -0.08388949       1.41159212
10
Frame=14 idx=007207 GeodesicLength=1.0883859741235482 rxn_smarts="[N:1](=[C:2](\[O:3][C:4](=[O:5])[H:9])[C:6](=[O:7])[H:10])\[H:8]>>[N:1]#[C:2][C:6](=[O:7])[H:10].[O:3]=[C:4]([O:5][H:8])[H:9]"
N       -0.78027034       1.30862909      -0.87569829
C       -0.92488451       0.15379685      -0.56824454
O        0.71055742      -0.79232157      -0.39321327
C        1.73305712      -0.21123413       0.10490260
O        1.82780269       1.04531790       0.07856928
C       -1.79538531      -0.55721283       0.42351138
O       -2.27079244      -1.63555797       0.24031109
H        0.55063153       1.58662714      -0.55310826
H        2.66659419      -0.78648590       0.11450205
H       -1.71731035      -0.11155858       1.42846795
10
Frame=15 idx=007207 GeodesicLength=1.1725717434547493 rxn_smarts="[N:1](=[C:2](\[O:3][C:4](=[O:5])[H:9])[C:6](=[O:7])[H:10])\[H:8]>>[N:1]#[C:2][C:6](=[O:7])[H:10].[O:3]=[C:4]([O:5][H:8])[H:9]"
N       -0.79712932       1.30075948      -0.91058798
C       -0.93834513       0.14601863      -0.59723844
O        0.71916810      -0.78661531      -0.42344911
C        1.72651813      -0.21714658       0.12125730
O        1.81107463       1.04023895       0.12859599
C       -1.78530775      -0.54797401       0.42716202
O       -2.30925466      -1.60437323       0.24681896
H        0.52849148       1.59735223      -0.56645079
H        2.66322690      -0.78683493       0.13607769
H       -1.61844238      -0.14142523       1.43781437
10
Frame=16 idx=007207 GeodesicLength=1.2574213519268884 rxn_smarts="[N:1](=[C:2](\[O:3][C:4](=[O:5])[H:9])[C:6](=[O:7])[H:10])\[H:8]>>[N:1]#[C:2][C:6](=[O:7])[H:10].[O:3]=[C:4]([O:5][H:8])[H:9]"
N       -0.81388005       1.29254689      -0.94407558
C       -0.95128817       0.13798499      -0.62443445
O        0.72907520      -0.77976606      -0.45240862
C        1.72065413      -0.22337115       0.13703721
O        1.79365337       1.03391783       0.17870503
C       -1.77424080      -0.53869285       0.43137879
O       -2.34705754      -1.57075131       0.25711193
H        0.50600977       1.60848877      -0.57962915
H        2.66066771      -0.78718144       0.15596827
H       -1.52359363      -0.17317566       1.44034656
