15
Frame=0 idx=006521 GeodesicLength=0.0 rxn_smarts="[C:1]([C@@:2]1([H:11])[C:3]([H:12])([H:13])[O:4][C@:5]1([C:6]#[C:7][H:15])[H:14])([H:8])([H:9])[H:10]>>[C:1]([C@@:2]1([H:11])[C:3]([H:12])([H:13])[O:4][C@:5]1([C:7](=[C:6])[H:15])[H:14])([H:8])([H:9])[H:10]"
C       -1.06694195       1.33947218       0.35939662
C       -0.52724502      -0.05475871       0.54587126
C       -0.96470767      -1.18867299      -0.38869541
O        0.39176016      -1.66815166      -0.49627737
C        0.89205986      -0.48868784       0.08327785
C        1.28666764       0.62934211      -1.23529575
C        2.33763687       0.24226951      -0.68156529
H       -2.11654431       1.37179742       0.66113648
H       -0.52080552       2.05497150       0.97736754
H       -0.98293534       1.65524985      -0.67857032
H       -0.63645330      -0.36601979       1.58749219
H       -1.33335194      -0.84190929      -1.35783127
H       -1.62713824      -1.95051089       0.02294337
H        1.55904336      -0.70496988       0.92440452
H        3.30895539      -0.02942147      -0.32365436
15
Frame=1 idx=006521 GeodesicLength=0.057195291227248445 rxn_smarts="[C:1]([C@@:2]1([H:11])[C:3]([H:12])([H:13])[O:4][C@:5]1([C:6]#[C:7][H:15])[H:14])([H:8])([H:9])[H:10]>>[C:1]([C@@:2]1([H:11])[C:3]([H:12])([H:13])[O:4][C@:5]1([C:7](=[C:6])[H:15])[H:14])([H:8])([H:9])[H:10]"
C       -1.05608669       1.33815725       0.35737304
C       -0.52684622      -0.05986084       0.54677335
C       -0.97689188      -1.19071753      -0.38556966
O        0.37651910      -1.67423778      -0.50776418
C        0.88833024      -0.50086677       0.07832691
C        1.29829507       0.59704685      -1.26320779
C        2.33796240       0.27052343      -0.65623156
H       -2.10510380       1.37985547       0.66001500
H       -0.50425624       2.05131110       0.97299478
H       -0.97296442       1.65128734      -0.68162697
H       -0.63768749      -0.36747310       1.58922748
H       -1.35509211      -0.84157306      -1.35027307
H       -1.63752344      -1.95148853       0.03117141
H        1.54741847      -0.73993871       0.92013342
H        3.32392701       0.03797487      -0.31134218
15
Frame=2 idx=006521 GeodesicLength=0.11461828171937852 rxn_smarts="[C:1]([C@@:2]1([H:11])[C:3]([H:12])([H:13])[O:4][C@:5]1([C:6]#[C:7][H:15])[H:14])([H:8])([H:9])[H:10]>>[C:1]([C@@:2]1([H:11])[C:3]([H:12])([H:13])[O:4][C@:5]1([C:7](=[C:6])[H:15])[H:14])([H:8])([H:9])[H:10]"
C       -1.04415562       1.33662528       0.35520278
C       -0.52618902      -0.06538138       0.54776453
C       -0.98949986      -1.19273129      -0.38238231
O        0.36034322      -1.68129892      -0.51883933
C        0.88450001      -0.51435893       0.07337877
C        1.31206333       0.56264388      -1.29011655
C        2.33581378       0.29834849      -0.63180005
H       -2.09264839       1.38827066       0.65812334
H       -0.48659269       2.04700485       0.96887281
H       -0.96077800       1.64711430      -0.68473567
H       -0.63871455      -0.36918567       1.59107111
H       -1.37680265      -0.84092189      -1.34260890
H       -1.64890644      -1.95196169       0.03935500
H        1.53635565      -0.77552949       0.91483216
H        3.33521121       0.11136181      -0.29811770
15
Frame=3 idx=006521 GeodesicLength=0.17226398701940662 rxn_smarts="[C:1]([C@@:2]1([H:11])[C:3]([H:12])([H:13])[O:4][C@:5]1([C:6]#[C:7][H:15])[H:14])([H:8])([H:9])[H:10]>>[C:1]([C@@:2]1([H:11])[C:3]([H:12])([H:13])[O:4][C@:5]1([C:7](=[C:6])[H:15])[H:14])([H:8])([H:9])[H:10]"
C       -1.03113642       1.33485562       0.35296902
C       -0.52526820      -0.07132560       0.54890153
C       -1.00246190      -1.19463454      -0.37918705
O        0.34328676      -1.68938547      -0.52923388
C        0.88059688      -0.52915727       0.06858302
C        1.32797261       0.52610736      -1.31578106
C        2.33138721       0.32492767      -0.60890272
H       -2.07919491       1.39700383       0.65539516
H       -0.46787628       2.04200724       0.96517951
H       -0.94629211       1.64277064      -0.68779032
H       -0.63963644      -0.37121546       1.59305211
H       -1.39815064      -0.83980399      -1.33498928
H       -1.66141793      -1.95177468       0.04726877
H        1.52591921      -0.81151022       0.90875925
H        3.34227217       0.19113486      -0.28422407
15
Frame=4 idx=006521 GeodesicLength=0.230116881732278 rxn_smarts="[C:1]([C@@:2]1([H:11])[C:3]([H:12])([H:13])[O:4][C@:5]1([C:6]#[C:7][H:15])[H:14])([H:8])([H:9])[H:10]>>[C:1]([C@@:2]1([H:11])[C:3]([H:12])([H:13])[O:4][C@:5]1([C:7](=[C:6])[H:15])[H:14])([H:8])([H:9])[H:10]"
C       -1.01722884       1.33286426       0.35064336
C       -0.52407014      -0.07757308       0.55014368
C       -1.01556754      -1.19637672      -0.37598903
O        0.32564398      -1.69805492      -0.53929337
C        0.87667121      -0.54490480       0.06391076
C        1.34635179       0.48800528      -1.33986375
C        2.32499407       0.35051726      -0.58731231
H       -2.06487711       1.40592047       0.65197548
H       -0.44835050       2.03644881       0.96178185
H       -0.92983980       1.63816867      -0.69084663
H       -0.64033648      -0.37343955       1.59512974
H       -1.41924391      -0.83825476      -1.32731494
H       -1.67449299      -1.95109494       0.05505336
H        1.51596571      -0.84769002       0.90204561
H        3.34438056       0.27546405      -0.27006383
15
Frame=5 idx=006521 GeodesicLength=0.28825959088043523 rxn_smarts="[C:1]([C@@:2]1([H:11])[C:3]([H:12])([H:13])[O:4][C@:5]1([C:6]#[C:7][H:15])[H:14])([H:8])([H:9])[H:10]>>[C:1]([C@@:2]1([H:11])[C:3]([H:12])([H:13])[O:4][C@:5]1([C:7](=[C:6])[H:15])[H:14])([H:8])([H:9])[H:10]"
C       -1.00257091       1.33065488       0.34831392
C       -0.52266636      -0.08408943       0.55157664
C       -1.02869129      -1.19787996      -0.37286656
O        0.30761659      -1.70719624      -0.54877697
C        0.87277787      -0.56144169       0.05964887
C        1.36723912       0.44851130      -1.36202024
C        2.31704280       0.37465421      -0.56721485
H       -2.04990026       1.41493259       0.64777879
H       -0.42827519       2.03034637       0.95889305
H       -0.91148380       1.63338392      -0.69380896
H       -0.64106049      -0.37590657       1.59737346
H       -1.43972952      -0.83613972      -1.31978243
H       -1.68814563      -1.94986614       0.06244084
H        1.50645594      -0.88381558       0.89517749
H        3.34139112       0.36385206      -0.25673306
15
Frame=6 idx=006521 GeodesicLength=0.3464595850652292 rxn_smarts="[C:1]([C@@:2]1([H:11])[C:3]([H:12])([H:13])[O:4][C@:5]1([C:6]#[C:7][H:15])[H:14])([H:8])([H:9])[H:10]>>[C:1]([C@@:2]1([H:11])[C:3]([H:12])([H:13])[O:4][C@:5]1([C:7](=[C:6])[H:15])[H:14])([H:8])([H:9])[H:10]"
C       -0.98723229       1.32823561       0.34613340
C       -0.52114293      -0.09084946       0.55329169
C       -1.04162849      -1.19903643      -0.36994379
O        0.28941445      -1.71681147      -0.55723807
C        0.86891551      -0.57867258       0.05620369
C        1.39046708       0.40758167      -1.38180905
C        2.30793258       0.39657760      -0.54877994
H       -2.03437496       1.42399303       0.64264743
H       -0.40795905       2.02366937       0.95688751
H       -0.89113166       1.62853095      -0.69641907
H       -0.64218575      -0.37867813       1.59977105
H       -1.45892601      -0.83327629      -1.31266450
H       -1.70242176      -1.94791199       0.06894509
H        1.49720162      -0.91963884       0.88877366
H        3.33307166       0.45628696      -0.24579910
15
Frame=7 idx=006521 GeodesicLength=0.40487211513782273 rxn_smarts="[C:1]([C@@:2]1([H:11])[C:3]([H:12])([H:13])[O:4][C@:5]1([C:6]#[C:7][H:15])[H:14])([H:8])([H:9])[H:10]>>[C:1]([C@@:2]1([H:11])[C:3]([H:12])([H:13])[O:4][C@:5]1([C:7](=[C:6])[H:15])[H:14])([H:8])([H:9])[H:10]"
C       -0.97138129       1.32564140       0.34403183
C       -0.51947834      -0.09774619       0.55522565
C       -1.05429970      -1.19985243      -0.36719731
O        0.27125228      -1.72642593      -0.56529004
C        0.86516284      -0.59630492       0.05342571
C        1.41635093       0.36579386      -1.39907865
C        2.29809432       0.41683750      -0.53161021
H       -2.01840607       1.43303548       0.63683929
H       -0.38744489       2.01659337       0.95545980
H       -0.86923667       1.62350029      -0.69884148
H       -0.64352079      -0.38161636       1.60232485
H       -1.47729852      -0.82976805      -1.30578820
H       -1.71681267      -1.94549741       0.07488642
H        1.48805812      -0.95528818       0.88279581
H        3.31896045       0.55109758      -0.23718347
15
Frame=8 idx=006521 GeodesicLength=0.4635305035536196 rxn_smarts="[C:1]([C@@:2]1([H:11])[C:3]([H:12])([H:13])[O:4][C@:5]1([C:6]#[C:7][H:15])[H:14])([H:8])([H:9])[H:10]>>[C:1]([C@@:2]1([H:11])[C:3]([H:12])([H:13])[O:4][C@:5]1([C:7](=[C:6])[H:15])[H:14])([H:8])([H:9])[H:10]"
C       -0.95485846       1.32287761       0.34208408
C       -0.51767412      -0.10481370       0.55740859
C       -1.06669745      -1.20028050      -0.36470351
O        0.25311907      -1.73611246      -0.57283205
C        0.86152761      -0.61445737       0.05146879
C        1.44482457       0.32288538      -1.41368444
C        2.28795895       0.43483683      -0.51580888
H       -2.00182090       1.44215519       0.63036944
H       -0.36654200       2.00905952       0.95472365
H       -0.84563165       1.61831650      -0.70096855
H       -0.64521534      -0.38478488       1.60503313
H       -1.49463821      -0.82548965      -1.29929459
H       -1.73148210      -1.94250262       0.08004586
H        1.47885930      -0.99099214       0.87751390
H        3.29827073       0.64930228      -0.23135541
15
Frame=9 idx=006521 GeodesicLength=0.522706142033467 rxn_smarts="[C:1]([C@@:2]1([H:11])[C:3]([H:12])([H:13])[O:4][C@:5]1([C:6]#[C:7][H:15])[H:14])([H:8])([H:9])[H:10]>>[C:1]([C@@:2]1([H:11])[C:3]([H:12])([H:13])[O:4][C@:5]1([C:7](=[C:6])[H:15])[H:14])([H:8])([H:9])[H:10]"
C       -0.93762736       1.31998606       0.34022868
C       -0.51563165      -0.11198192       0.55974343
C       -1.07870493      -1.20033373      -0.36241826
O        0.23514983      -1.74557374      -0.58033181
C        0.85805139      -0.63295945       0.05008571
C        1.47619969       0.27878560      -1.42572018
C        2.27732259       0.45164534      -0.50102349
H       -1.98448484       1.45139720       0.62337667
H       -0.34513556       2.00113805       0.95448484
H       -0.82034280       1.61290910      -0.70285935
H       -0.64696335      -0.38806658       1.60780427
H       -1.51128026      -0.82050586      -1.29292571
H       -1.74595804      -1.93908795       0.08470391
H        1.46955000      -1.02682823       0.87263006
H        3.26985530       0.74947610      -0.22777877
15
Frame=10 idx=006521 GeodesicLength=0.5824764145279714 rxn_smarts="[C:1]([C@@:2]1([H:11])[C:3]([H:12])([H:13])[O:4][C@:5]1([C:6]#[C:7][H:15])[H:14])([H:8])([H:9])[H:10]>>[C:1]([C@@:2]1([H:11])[C:3]([H:12])([H:13])[O:4][C@:5]1([C:7](=[C:6])[H:15])[H:14])([H:8])([H:9])[H:10]"
C       -0.91966467       1.31696367       0.33869847
C       -0.51346712      -0.11928459       0.56237907
C       -1.09020875      -1.19988578      -0.36055779
O        0.21752599      -1.75492856      -0.58724915
C        0.85479630      -0.65182940       0.04978666
C        1.51042450       0.23322543      -1.43472853
C        2.26671788       0.46664781      -0.48728017
H       -1.96649110       1.46073931       0.61569800
H       -0.32344247       1.99269797       0.95535903
H       -0.79304527       1.60746311      -0.70418538
H       -0.64928296      -0.39163684       1.61072330
H       -1.52645612      -0.81454606      -1.28717716
H       -1.76057892      -1.93501209       0.08819490
H        1.45999316      -1.06268331       0.86891075
H        3.23317955       0.85206933      -0.22857200
15
Frame=11 idx=006521 GeodesicLength=0.6428374795560703 rxn_smarts="[C:1]([C@@:2]1([H:11])[C:3]([H:12])([H:13])[O:4][C@:5]1([C:6]#[C:7][H:15])[H:14])([H:8])([H:9])[H:10]>>[C:1]([C@@:2]1([H:11])[C:3]([H:12])([H:13])[O:4][C@:5]1([C:7](=[C:6])[H:15])[H:14])([H:8])([H:9])[H:10]"
C       -0.90105325       1.31385683       0.33752944
C       -0.51116738      -0.12663968       0.56530806
C       -1.10104513      -1.19889546      -0.35917526
O        0.20048438      -1.76386706      -0.59385579
C        0.85183058      -0.67088018       0.05063936
C        1.54761764       0.18662940      -1.44026584
C        2.25645420       0.48007006      -0.47426621
H       -1.94788267       1.47015294       0.60743654
H       -0.30155654       1.98386272       0.95729913
H       -0.76395753       1.60198772      -0.70490367
H       -0.65218544      -0.39542630       1.61376374
H       -1.54015769      -0.80758927      -1.28203526
H       -1.77500061      -1.93038231       0.09047956
H        1.45003972      -1.09860475       0.86647039
H        3.18757972       0.95572534      -0.23442418
15
Frame=12 idx=006521 GeodesicLength=0.7039105021657412 rxn_smarts="[C:1]([C@@:2]1([H:11])[C:3]([H:12])([H:13])[O:4][C@:5]1([C:6]#[C:7][H:15])[H:14])([H:8])([H:9])[H:10]>>[C:1]([C@@:2]1([H:11])[C:3]([H:12])([H:13])[O:4][C@:5]1([C:7](=[C:6])[H:15])[H:14])([H:8])([H:9])[H:10]"
C       -0.88187080       1.31070890       0.33680987
C       -0.50872647      -0.13397584       0.56854196
C       -1.11104829      -1.19730318      -0.35834650
O        0.18427327      -1.77216272      -0.60024874
C        0.84923945      -0.68991113       0.05271599
C        1.58783816       0.13920169      -1.44204283
C        2.24667040       0.49232449      -0.46186982
H       -1.92872523       1.47960593       0.59867766
H       -0.27962585       1.97469795       0.96042029
H       -0.73318321       1.59654990      -0.70488595
H       -0.65570629      -0.39940772       1.61690985
H       -1.55222735      -0.79957704      -1.27757067
H       -1.78899364      -1.92523146       0.09141712
H        1.43964769      -1.13447461       0.86542455
H        3.13243815       1.05895485      -0.24595277
15
Frame=13 idx=006521 GeodesicLength=0.7658283202502192 rxn_smarts="[C:1]([C@@:2]1([H:11])[C:3]([H:12])([H:13])[O:4][C@:5]1([C:6]#[C:7][H:15])[H:14])([H:8])([H:9])[H:10]>>[C:1]([C@@:2]1([H:11])[C:3]([H:12])([H:13])[O:4][C@:5]1([C:7](=[C:6])[H:15])[H:14])([H:8])([H:9])[H:10]"
C       -0.86245161       1.30757732       0.33663935
C       -0.50621177      -0.14117080       0.57210098
C       -1.12003216      -1.19508857      -0.35814147
O        0.16924875      -1.77940794      -0.60664441
C        0.84710515      -0.70852204       0.05608294
C        1.63112134       0.09159464      -1.43966518
C        2.23732787       0.50426959      -0.44984987
H       -1.90936641       1.48893959       0.58956248
H       -0.25807444       1.96537938       0.96480115
H       -0.70115194       1.59124035      -0.70401936
H       -0.65991817      -0.40351678       1.62017157
H       -1.56262702      -0.79054107      -1.27381606
H       -1.80218177      -1.91975110       0.09091430
H        1.42880567      -1.16997552       0.86585533
H        3.06840651       1.15897296      -0.26399173
15
Frame=14 idx=006521 GeodesicLength=0.8285427596746082 rxn_smarts="[C:1]([C@@:2]1([H:11])[C:3]([H:12])([H:13])[O:4][C@:5]1([C:6]#[C:7][H:15])[H:14])([H:8])([H:9])[H:10]>>[C:1]([C@@:2]1([H:11])[C:3]([H:12])([H:13])[O:4][C@:5]1([C:7](=[C:6])[H:15])[H:14])([H:8])([H:9])[H:10]"
C       -0.84288132       1.30448858       0.33735240
C       -0.50371557      -0.14822304       0.57609237
C       -1.12772430      -1.19207762      -0.35880908
O        0.15573784      -1.78566364      -0.61250296
C        0.84548264      -0.72658971       0.06114944
C        1.67712658       0.04372578      -1.43267922
C        2.22851953       0.51586034      -0.43832209
H       -1.88992494       1.49810726       0.58013335
H       -0.23732251       1.95580426       0.97112281
H       -0.66775591       1.58632583      -0.70177757
H       -0.66523825      -0.40795306       1.62349679
H       -1.57041422      -0.78018542      -1.27124906
H       -1.81464448      -1.91367714       0.08819736
H        1.41747206      -1.20479363       0.86829667
H        2.99528286       1.25485122      -0.29050121
15
Frame=15 idx=006521 GeodesicLength=0.8919601167255243 rxn_smarts="[C:1]([C@@:2]1([H:11])[C:3]([H:12])([H:13])[O:4][C@:5]1([C:6]#[C:7][H:15])[H:14])([H:8])([H:9])[H:10]>>[C:1]([C@@:2]1([H:11])[C:3]([H:12])([H:13])[O:4][C@:5]1([C:7](=[C:6])[H:15])[H:14])([H:8])([H:9])[H:10]"
C       -0.82434271       1.30151815       0.33899210
C       -0.50150338      -0.15487317       0.58047808
C       -1.13405678      -1.18846177      -0.36022007
O        0.14417813      -1.79008677      -0.61849184
C        0.84434393      -0.74312600       0.06755827
C        1.72579009      -0.00290805      -1.42106573
C        2.21900456       0.52962693      -0.42747687
H       -1.87165010       1.50658636       0.57067368
H       -0.21873649       1.94644329       0.97926828
H       -0.63439725       1.58191519      -0.69815794
H       -0.67153191      -0.41250466       1.62692939
H       -1.57635496      -0.76898828      -1.26949459
H       -1.82557478      -1.90774871       0.08375662
H        1.40586850      -1.23791847       0.87223849
H        2.91896314       1.34052597      -0.32498787
15
Frame=16 idx=006521 GeodesicLength=0.9562564481863599 rxn_smarts="[C:1]([C@@:2]1([H:11])[C:3]([H:12])([H:13])[O:4][C@:5]1([C:6]#[C:7][H:15])[H:14])([H:8])([H:9])[H:10]>>[C:1]([C@@:2]1([H:11])[C:3]([H:12])([H:13])[O:4][C@:5]1([C:7](=[C:6])[H:15])[H:14])([H:8])([H:9])[H:10]"
C       -0.80617209       1.29870413       0.34161954
C       -0.49939907      -0.16122526       0.58523219
C       -1.13906308      -1.18410958      -0.36248504
O        0.13439368      -1.79297701      -0.62457365
C        0.84373382      -0.75866770       0.07540578
C        1.77704201      -0.04882139      -1.40450614
C        2.20958692       0.54403346      -0.41758994
H       -1.85376928       1.51476079       0.56135260
H       -0.20142021       1.93713650       0.98920740
H       -0.60058965       1.57802402      -0.69307142
H       -0.67879947      -0.41726117       1.63038220
H       -1.58019833      -0.75665638      -1.26870681
H       -1.83529029      -1.90161425       0.07732943
H        1.39377111      -1.27012019       0.87779428
H        2.83617394       1.41879404      -0.36739042
