9
Frame=0 idx=005620 GeodesicLength=0.0 rxn_smarts="[C:1]([N:2]([C:3](=[O:4])[H:9])[H:8])([H:5])([H:6])[H:7]>>[C:1]([H:5])([H:6])([H:7])[H:8].[N:2](=[C:3]=[O:4])[H:9]"
C       -1.24904900       0.12049056       0.20604792
N        0.74181136       0.61470765      -0.71500997
C        1.49633677      -0.23937403      -0.10027118
O        1.48592073      -1.19120321       0.63698062
H       -0.76089983      -0.22528017       1.10860259
H       -1.67514445       1.11350280       0.29259369
H       -1.95367670      -0.61987927      -0.17236002
H       -0.52524051       0.17420897      -0.72214654
H        2.43994166       0.25282673      -0.53443708
9
Frame=1 idx=005620 GeodesicLength=0.08512976444578273 rxn_smarts="[C:1]([N:2]([C:3](=[O:4])[H:9])[H:8])([H:5])([H:6])[H:7]>>[C:1]([H:5])([H:6])([H:7])[H:8].[N:2](=[C:3]=[O:4])[H:9]"
C       -1.24735569       0.11978151       0.19979388
N        0.75150582       0.61413602      -0.68340622
C        1.50808064      -0.22949292      -0.06091752
O        1.50176026      -1.18771720       0.66516982
H       -0.77970419      -0.24350019       1.10692252
H       -1.67494619       1.11097776       0.30481912
H       -1.95863313      -0.61059353      -0.18608428
H       -0.52396759       0.18460675      -0.74563464
H        2.42326007       0.24180181      -0.60066268
9
Frame=2 idx=005620 GeodesicLength=0.16950111731391015 rxn_smarts="[C:1]([N:2]([C:3](=[O:4])[H:9])[H:8])([H:5])([H:6])[H:7]>>[C:1]([H:5])([H:6])([H:7])[H:8].[N:2](=[C:3]=[O:4])[H:9]"
C       -1.24425771       0.11942076       0.19409021
N        0.75998474       0.60953556      -0.65672385
C        1.52032787      -0.22245713      -0.02720421
O        1.51636637      -1.18505030       0.69030577
H       -0.79552018      -0.25922430       1.10502822
H       -1.67317766       1.10849446       0.31650544
H       -1.96277551      -0.60129132      -0.19689527
H       -0.52317272       0.19514974      -0.76998939
H        2.40222480       0.23542254      -0.65511692
9
Frame=3 idx=005620 GeodesicLength=0.2540843886553314 rxn_smarts="[C:1]([N:2]([C:3](=[O:4])[H:9])[H:8])([H:5])([H:6])[H:7]>>[C:1]([H:5])([H:6])([H:7])[H:8].[N:2](=[C:3]=[O:4])[H:9]"
C       -1.24045212       0.11913551       0.18879818
N        0.76759265       0.60207456      -0.63374353
C        1.53280776      -0.21813714       0.00163385
O        1.53070085      -1.18169984       0.71535227
H       -0.80979261      -0.27421096       1.10281807
H       -1.67047134       1.10596886       0.32868496
H       -1.96658043      -0.59182430      -0.20643219
H       -0.52283605       0.20693838      -0.79496704
H        2.37903128       0.23175494      -0.70214456
9
Frame=4 idx=005620 GeodesicLength=0.3387795587380348 rxn_smarts="[C:1]([N:2]([C:3](=[O:4])[H:9])[H:8])([H:5])([H:6])[H:7]>>[C:1]([H:5])([H:6])([H:7])[H:8].[N:2](=[C:3]=[O:4])[H:9]"
C       -1.23620538       0.11880601       0.18379746
N        0.77436981       0.59214967      -0.61369651
C        1.54538033      -0.21582484       0.02679569
O        1.54523539      -1.17702234       0.74132055
H       -0.82306785      -0.28928888       1.10003901
H       -1.66695769       1.10317301       0.34169748
H       -1.97026706      -0.58191762      -0.21551606
H       -0.52297396       0.22036209      -0.82027080
H        2.35448640       0.22956290      -0.74416681
9
Frame=5 idx=005620 GeodesicLength=0.42359349578961814 rxn_smarts="[C:1]([N:2]([C:3](=[O:4])[H:9])[H:8])([H:5])([H:6])[H:7]>>[C:1]([H:5])([H:6])([H:7])[H:8].[N:2](=[C:3]=[O:4])[H:9]"
C       -1.23168006       0.11833124       0.17901027
N        0.78042834       0.58010143      -0.59610688
C        1.55809541      -0.21468555       0.04939764
O        1.56019306      -1.17062663       0.76866011
H       -0.83572881      -0.30501408       1.09654378
H       -1.66280819       1.09991776       0.35576576
H       -1.97388864      -0.57149122      -0.22468870
H       -0.52350528       0.23582038      -0.84567855
H        2.32889417       0.22764667      -0.78290344
9
Frame=6 idx=005620 GeodesicLength=0.5083083737640578 rxn_smarts="[C:1]([N:2]([C:3](=[O:4])[H:9])[H:8])([H:5])([H:6])[H:7]>>[C:1]([H:5])([H:6])([H:7])[H:8].[N:2](=[C:3]=[O:4])[H:9]"
C       -1.22697580       0.11781306       0.17453180
N        0.78557552       0.56481433      -0.58207468
C        1.57063272      -0.21491402       0.06945825
O        1.57536095      -1.16329054       0.79643810
H       -0.84767872      -0.32088827       1.09251185
H       -1.65770103       1.09652556       0.37050456
H       -1.97787732      -0.56048343      -0.23309293
H       -0.52489149       0.25262173      -0.87133477
H        2.30355517       0.22780160      -0.81694217
9
Frame=7 idx=005620 GeodesicLength=0.5930973697295333 rxn_smarts="[C:1]([N:2]([C:3](=[O:4])[H:9])[H:8])([H:5])([H:6])[H:7]>>[C:1]([H:5])([H:6])([H:7])[H:8].[N:2](=[C:3]=[O:4])[H:9]"
C       -1.22219232       0.11698598       0.17014284
N        0.79010755       0.54768383      -0.56976437
C        1.58339671      -0.21556534       0.08799261
O        1.59133675      -1.15325190       0.82653479
H       -0.85948444      -0.33839153       1.08733510
H       -1.65198927       1.09236259       0.38676510
H       -1.98193840      -0.54863433      -0.24244088
H       -0.52650904       0.27216604      -0.89665657
H        2.27727245       0.22664467      -0.84990861
9
Frame=8 idx=005620 GeodesicLength=0.6779287037161219 rxn_smarts="[C:1]([N:2]([C:3](=[O:4])[H:9])[H:8])([H:5])([H:6])[H:7]>>[C:1]([H:5])([H:6])([H:7])[H:8].[N:2](=[C:3]=[O:4])[H:9]"
C       -1.21741285       0.11591083       0.16591336
N        0.79386382       0.52761924      -0.56020756
C        1.59616402      -0.21682367       0.10494548
O        1.60792344      -1.14095400       0.85827378
H       -0.87107189      -0.35717967       1.08111535
H       -1.64539131       1.08763291       0.40429844
H       -1.98646057      -0.53584948      -0.25202007
H       -0.52871180       0.29402613      -0.92173186
H        2.25109714       0.22561771      -0.88058693
9
Frame=9 idx=005620 GeodesicLength=0.7627410059242558 rxn_smarts="[C:1]([N:2]([C:3](=[O:4])[H:9])[H:8])([H:5])([H:6])[H:7]>>[C:1]([H:5])([H:6])([H:7])[H:8].[N:2](=[C:3]=[O:4])[H:9]"
C       -1.21271804       0.11464241       0.16190812
N        0.79666153       0.50351918      -0.55414339
C        1.60870308      -0.21892216       0.12029793
O        1.62488791      -1.12688159       0.89097621
H       -0.88244218      -0.37679151       1.07404327
H       -1.63764733       1.08257485       0.42271395
H       -1.99173553      -0.52208752      -0.26117768
H       -0.53172528       0.31768024      -0.94656158
H        2.22601585       0.22626610      -0.90805685
9
Frame=10 idx=005620 GeodesicLength=0.8475413476103111 rxn_smarts="[C:1]([N:2]([C:3](=[O:4])[H:9])[H:8])([H:5])([H:6])[H:7]>>[C:1]([H:5])([H:6])([H:7])[H:8].[N:2](=[C:3]=[O:4])[H:9]"
C       -1.20813055       0.11299208       0.15800233
N        0.79859367       0.47554422      -0.55101234
C        1.62117031      -0.22129716       0.13453511
O        1.64247390      -1.10966447       0.92569354
H       -0.89389532      -0.39828335       1.06556848
H       -1.62870851       1.07672834       0.44271069
H       -1.99770517      -0.50699795      -0.27080982
H       -0.53517421       0.34420145      -0.97067916
H        2.20137588       0.22677684      -0.93400882
9
Frame=11 idx=005620 GeodesicLength=0.9323065833131639 rxn_smarts="[C:1]([N:2]([C:3](=[O:4])[H:9])[H:8])([H:5])([H:6])[H:7]>>[C:1]([H:5])([H:6])([H:7])[H:8].[N:2](=[C:3]=[O:4])[H:9]"
C       -1.20369119       0.11088909       0.15417342
N        0.79955248       0.44280041      -0.55111144
C        1.63349774      -0.22382477       0.14778685
O        1.66061894      -1.08873145       0.96253842
H       -0.90558323      -0.42194120       1.05545807
H       -1.61830943       1.06996166       0.46444332
H       -2.00452501      -0.49028971      -0.28095863
H       -0.53887876       0.37386698      -0.99373955
H        2.17731845       0.22726899      -0.95859046
9
Frame=12 idx=005620 GeodesicLength=1.017001019150038 rxn_smarts="[C:1]([N:2]([C:3](=[O:4])[H:9])[H:8])([H:5])([H:6])[H:7]>>[C:1]([H:5])([H:6])([H:7])[H:8].[N:2](=[C:3]=[O:4])[H:9]"
C       -1.19942968       0.10821814       0.15037438
N        0.79940429       0.40414264      -0.55471385
C        1.64562132      -0.22628148       0.16018656
O        1.67928273      -1.06308695       1.00181609
H       -0.91773428      -0.44830118       1.04330193
H       -1.60608633       1.06202012       0.48824244
H       -2.01235416      -0.47150237      -0.29183947
H       -0.54243145       0.40718282      -1.01519444
H        2.15372757       0.22760827      -0.98217365
9
Frame=13 idx=005620 GeodesicLength=1.1015718137507295 rxn_smarts="[C:1]([N:2]([C:3](=[O:4])[H:9])[H:8])([H:5])([H:6])[H:7]>>[C:1]([H:5])([H:6])([H:7])[H:8].[N:2](=[C:3]=[O:4])[H:9]"
C       -1.19534294       0.10484651       0.14657146
N        0.79797227       0.35796258      -0.56213235
C        1.65741307      -0.22848326       0.17175035
O        1.69824986      -1.03154202       1.04371377
H       -0.93066101      -0.47784281       1.02869059
H       -1.59160619       1.05259107       0.51438935
H       -2.02128283      -0.45010136      -0.30364719
H       -0.54505586       0.44464832      -1.03423693
H        2.13031364       0.22792097      -1.00509905
9
Frame=14 idx=005620 GeodesicLength=1.1859128175001048 rxn_smarts="[C:1]([N:2]([C:3](=[O:4])[H:9])[H:8])([H:5])([H:6])[H:7]>>[C:1]([H:5])([H:6])([H:7])[H:8].[N:2](=[C:3]=[O:4])[H:9]"
C       -1.19141078       0.10060428       0.14270161
N        0.79507800       0.30265332      -0.57316799
C        1.66867929      -0.23054702       0.18219018
O        1.71728130      -0.99233849       1.08853175
H       -0.94480604      -0.51112189       1.01106396
H       -1.57444806       1.04119417       0.54314585
H       -2.03124267      -0.42541593      -0.31681353
H       -0.54519879       0.48679358      -1.04954693
H        2.10606776       0.22817798      -1.02810488
9
Frame=15 idx=005620 GeodesicLength=1.269973127472093 rxn_smarts="[C:1]([N:2]([C:3](=[O:4])[H:9])[H:8])([H:5])([H:6])[H:7]>>[C:1]([H:5])([H:6])([H:7])[H:8].[N:2](=[C:3]=[O:4])[H:9]"
C       -1.18749152       0.09546039       0.13882148
N        0.79080761       0.23821400      -0.58634793
C        1.67920780      -0.23298359       0.19099357
O        1.73552783      -0.94496584       1.13515615
H       -0.96061284      -0.54740352       0.99073248
H       -1.55496725       1.02757736       0.57371876
H       -2.04143505      -0.39756296      -0.33147471
H       -0.54031093       0.53285769      -1.05964521
H        2.07927436       0.22880648      -1.05195458
9
Frame=16 idx=005620 GeodesicLength=1.3537170813644877 rxn_smarts="[C:1]([N:2]([C:3](=[O:4])[H:9])[H:8])([H:5])([H:6])[H:7]>>[C:1]([H:5])([H:6])([H:7])[H:8].[N:2](=[C:3]=[O:4])[H:9]"
C       -1.18329287       0.08993477       0.13521897
N        0.78577015       0.16870628      -0.59822920
C        1.68879209      -0.23733528       0.19761124
O        1.75170835      -0.89411294       1.17927286
H       -0.97790658      -0.58241532       0.97050750
H       -1.53506101       1.01304594       0.60248750
H       -2.05000512      -0.36895990      -0.34634702
H       -0.52806221       0.57822995      -1.06470092
H        2.04805721       0.23290649      -1.07582092
