10
Frame=0 idx=006020 GeodesicLength=0.0 rxn_smarts="[C:1]([O:2][C:3]([C:4]#[N:5])([H:9])[H:10])([H:6])([H:7])[H:8]>>[C:1]([O:2][C:4]1=[N:5][C:3]1([H:9])[H:10])([H:6])([H:7])[H:8]"
C       -1.23706391       0.69989305       0.47140373
O       -0.30981486       0.50265372      -0.58412601
C        0.95662266      -1.13569335      -0.65419090
C        1.15648938       0.17464381      -0.17523849
N        2.01635864       0.81227964       0.35389254
H       -1.27976078       1.76309257       0.71465662
H       -0.93968872       0.15026436       1.37097984
H       -2.22197586       0.36903467       0.14147573
H        1.23830127      -1.42217472      -1.66277138
H        0.62053217      -1.91399376       0.02391832
10
Frame=1 idx=006020 GeodesicLength=0.05917903812783199 rxn_smarts="[C:1]([O:2][C:3]([C:4]#[N:5])([H:9])[H:10])([H:6])([H:7])[H:8]>>[C:1]([O:2][C:4]1=[N:5][C:3]1([H:9])[H:10])([H:6])([H:7])[H:8]"
C       -1.23569762       0.70439078       0.47198710
O       -0.31568821       0.50080311      -0.58836988
C        0.94575287      -1.12194068      -0.66674823
C        1.15832201       0.18447586      -0.18144081
N        2.03778538       0.73913275       0.40277903
H       -1.32987630       1.77562561       0.65756360
H       -0.90707127       0.22090413       1.39790855
H       -2.20670698       0.30476334       0.17797412
H        1.24394394      -1.39946905      -1.67318215
H        0.60923616      -1.90868585       0.00152868
10
Frame=2 idx=006020 GeodesicLength=0.11849016028451323 rxn_smarts="[C:1]([O:2][C:3]([C:4]#[N:5])([H:9])[H:10])([H:6])([H:7])[H:8]>>[C:1]([O:2][C:4]1=[N:5][C:3]1([H:9])[H:10])([H:6])([H:7])[H:8]"
C       -1.23401451       0.70926864       0.47255095
O       -0.31996374       0.49966320      -0.59159908
C        0.93560204      -1.10768483      -0.67859313
C        1.16132169       0.19370954      -0.18359635
N        2.05602565       0.66320184       0.44793141
H       -1.38323107       1.78255298       0.59974829
H       -0.87615443       0.29663664       1.42129456
H       -2.18584452       0.24145451       0.21785840
H        1.24956310      -1.37499939      -1.68312404
H        0.59669578      -1.90380313      -0.02247101
10
Frame=3 idx=006020 GeodesicLength=0.1776090320436656 rxn_smarts="[C:1]([O:2][C:3]([C:4]#[N:5])([H:9])[H:10])([H:6])([H:7])[H:8]>>[C:1]([O:2][C:4]1=[N:5][C:3]1([H:9])[H:10])([H:6])([H:7])[H:8]"
C       -1.23244515       0.71437002       0.47316011
O       -0.32364859       0.49791112      -0.59390608
C        0.92639273      -1.09329388      -0.68980380
C        1.16446185       0.20173413      -0.18133755
N        2.07069798       0.58592411       0.48853799
H       -1.43738439       1.78356250       0.54186699
H       -0.84788690       0.37612034       1.44036205
H       -2.16105192       0.18226934       0.26165639
H        1.25677725      -1.34862787      -1.69227516
H        0.58408715      -1.89996982      -0.04826094
10
Frame=4 idx=006020 GeodesicLength=0.23643947871132823 rxn_smarts="[C:1]([O:2][C:3]([C:4]#[N:5])([H:9])[H:10])([H:6])([H:7])[H:8]>>[C:1]([O:2][C:4]1=[N:5][C:3]1([H:9])[H:10])([H:6])([H:7])[H:8]"
C       -1.23050193       0.71996351       0.47345474
O       -0.32572888       0.49756027      -0.59574978
C        0.91730678      -1.07869390      -0.70021349
C        1.16845501       0.20860796      -0.17549468
N        2.08212982       0.50764629       0.52583875
H       -1.49383180       1.77820003       0.48523469
H       -0.82146140       0.45908960       1.45423293
H       -2.13040515       0.12530615       0.30834066
H        1.26392458      -1.32131884      -1.70048726
H        0.57011299      -1.89636108      -0.07515656
10
Frame=5 idx=006020 GeodesicLength=0.2951154181527226 rxn_smarts="[C:1]([O:2][C:3]([C:4]#[N:5])([H:9])[H:10])([H:6])([H:7])[H:8]>>[C:1]([O:2][C:4]1=[N:5][C:3]1([H:9])[H:10])([H:6])([H:7])[H:8]"
C       -1.22811733       0.72595973       0.47390662
O       -0.32671006       0.49733340      -0.59687669
C        0.90885855      -1.06415569      -0.71059260
C        1.17295720       0.21379910      -0.16624981
N        2.08893878       0.42805210       0.56180277
H       -1.55195929       1.76607040       0.42807773
H       -0.79698728       0.54771665       1.46343294
H       -2.09390425       0.07120547       0.35979412
H        1.27164573      -1.29234945      -1.70866308
H        0.55527797      -1.89363171      -0.10463199
10
Frame=6 idx=006020 GeodesicLength=0.3531720202054941 rxn_smarts="[C:1]([O:2][C:3]([C:4]#[N:5])([H:9])[H:10])([H:6])([H:7])[H:8]>>[C:1]([O:2][C:4]1=[N:5][C:3]1([H:9])[H:10])([H:6])([H:7])[H:8]"
C       -1.22576922       0.73207890       0.47416446
O       -0.32751292       0.49676425      -0.59789939
C        0.90100552      -1.04971469      -0.72029473
C        1.17713767       0.21769656      -0.15420245
N        2.09153937       0.34905116       0.59458574
H       -1.60887958       1.74767936       0.37377252
H       -0.77509475       0.63714781       1.46620786
H       -2.05384741       0.02332389       0.41433627
H        1.28074242      -1.26266121      -1.71552225
H        0.54067890      -1.89136602      -0.13514803
10
Frame=7 idx=006020 GeodesicLength=0.41073910978963596 rxn_smarts="[C:1]([O:2][C:3]([C:4]#[N:5])([H:9])[H:10])([H:6])([H:7])[H:8]>>[C:1]([O:2][C:4]1=[N:5][C:3]1([H:9])[H:10])([H:6])([H:7])[H:8]"
C       -1.22328404       0.73835064       0.47428916
O       -0.32792385       0.49618226      -0.59896820
C        0.89364840      -1.03539279      -0.72953959
C        1.18124021       0.22026576      -0.13983603
N        2.08975195       0.27059855       0.62541483
H       -1.66495139       1.72302944       0.32234039
H       -0.75544096       0.72774089       1.46269410
H       -2.00973972      -0.01898107       0.47192953
H        1.29088772      -1.23243256      -1.72135635
H        0.52581166      -1.88936112      -0.16696784
10
Frame=8 idx=006020 GeodesicLength=0.46815552785186126 rxn_smarts="[C:1]([O:2][C:3]([C:4]#[N:5])([H:9])[H:10])([H:6])([H:7])[H:8]>>[C:1]([O:2][C:4]1=[N:5][C:3]1([H:9])[H:10])([H:6])([H:7])[H:8]"
C       -1.22040432       0.74476282       0.47436301
O       -0.32787611       0.49586865      -0.60010776
C        0.88669782      -1.02112213      -0.73834851
C        1.18532406       0.22154483      -0.12364774
N        2.08319887       0.19258144       0.65493389
H       -1.72032436       1.69193620       0.27405911
H       -0.73787693       0.81911990       1.45278285
H       -1.96096941      -0.05562335       0.53218922
H        1.30177169      -1.20179382      -1.72610765
H        0.51045870      -1.88727454      -0.20011641
10
Frame=9 idx=006020 GeodesicLength=0.5254290231861795 rxn_smarts="[C:1]([O:2][C:3]([C:4]#[N:5])([H:9])[H:10])([H:6])([H:7])[H:8]>>[C:1]([O:2][C:4]1=[N:5][C:3]1([H:9])[H:10])([H:6])([H:7])[H:8]"
C       -1.21724434       0.75107673       0.47453644
O       -0.32780638       0.49506099      -0.60139273
C        0.88044420      -1.00700275      -0.74687237
C        1.18919493       0.22165867      -0.10606270
N        2.07156741       0.11553954       0.68343258
H       -1.77373733       1.65485941       0.22944353
H       -0.72249263       0.91038436       1.43649116
H       -1.90867269      -0.08567634       0.59502712
H        1.31381274      -1.17081393      -1.72987397
H        0.49493409      -1.88508667      -0.23472906
10
Frame=10 idx=006020 GeodesicLength=0.5825445353872367 rxn_smarts="[C:1]([O:2][C:3]([C:4]#[N:5])([H:9])[H:10])([H:6])([H:7])[H:8]>>[C:1]([O:2][C:4]1=[N:5][C:3]1([H:9])[H:10])([H:6])([H:7])[H:8]"
C       -1.21416914       0.75696927       0.47445259
O       -0.32810159       0.49372160      -0.60316281
C        0.87474697      -0.99304900      -0.75439416
C        1.19241079       0.22113069      -0.08748733
N        2.05631745       0.04120071       0.70901184
H       -1.82325258       1.61394447       0.19068908
H       -0.70940550       0.99702409       1.41411249
H       -1.85530104      -0.10821009       0.65754132
H        1.32682653      -1.14031444      -1.73170154
H        0.47992811      -1.88241731      -0.26906148
10
Frame=11 idx=006020 GeodesicLength=0.6397838642245063 rxn_smarts="[C:1]([O:2][C:3]([C:4]#[N:5])([H:9])[H:10])([H:6])([H:7])[H:8]>>[C:1]([O:2][C:4]1=[N:5][C:3]1([H:9])[H:10])([H:6])([H:7])[H:8]"
C       -1.21089748       0.76251687       0.47417326
O       -0.32833071       0.49262003      -0.60545058
C        0.86937874      -0.97919619      -0.76085116
C        1.19549258       0.22015171      -0.06844049
N        2.03778856      -0.03045971       0.73220070
H       -1.86948699       1.56952978       0.15758409
H       -0.69862646       1.07873509       1.38681379
H       -1.80018599      -0.12431917       0.71846001
H        1.33996932      -1.11073593      -1.73178172
H        0.46489842      -1.87884248      -0.30270791
10
Frame=12 idx=006020 GeodesicLength=0.6969987338032694 rxn_smarts="[C:1]([O:2][C:3]([C:4]#[N:5])([H:9])[H:10])([H:6])([H:7])[H:8]>>[C:1]([O:2][C:4]1=[N:5][C:3]1([H:9])[H:10])([H:6])([H:7])[H:8]"
C       -1.20763622       0.76743550       0.47385832
O       -0.32890283       0.49095027      -0.60817313
C        0.86459688      -0.96561527      -0.76632329
C        1.19826892       0.21894135      -0.04926947
N        2.01653633      -0.09868673       0.75271075
H       -1.91126064       1.52324498       0.13007090
H       -0.69005784       1.15444168       1.35574607
H       -1.74541015      -0.13397763       0.77709001
H        1.35337139      -1.08219293      -1.73032743
H        0.45049415      -1.87454123      -0.33538273
10
Frame=13 idx=006020 GeodesicLength=0.754436010141317 rxn_smarts="[C:1]([O:2][C:3]([C:4]#[N:5])([H:9])[H:10])([H:6])([H:7])[H:8]>>[C:1]([O:2][C:4]1=[N:5][C:3]1([H:9])[H:10])([H:6])([H:7])[H:8]"
C       -1.20458219       0.77170524       0.47316428
O       -0.32967793       0.48924222      -0.61148618
C        0.86003298      -0.95223404      -0.77050449
C        1.20069211       0.21764151      -0.02988011
N        1.99405555      -0.16320980       0.76987869
H       -1.94884147       1.47650688       0.10833781
H       -0.68329611       1.22301229       1.32176600
H       -1.69171706      -0.13830046       0.83196121
H        1.36668986      -1.05495454      -1.72700506
H        0.43664425      -1.86940930      -0.36623217
10
Frame=14 idx=006020 GeodesicLength=0.8120743627425283 rxn_smarts="[C:1]([O:2][C:3]([C:4]#[N:5])([H:9])[H:10])([H:6])([H:7])[H:8]>>[C:1]([O:2][C:4]1=[N:5][C:3]1([H:9])[H:10])([H:6])([H:7])[H:8]"
C       -1.20129950       0.77539608       0.47259691
O       -0.33054214       0.48726658      -0.61491181
C        0.85582237      -0.93914419      -0.77370754
C        1.20290450       0.21614956      -0.01049741
N        1.96991032      -0.22440163       0.78449016
H       -1.98234860       1.42898546       0.09096145
H       -0.67847556       1.28596464       1.28591498
H       -1.63887215      -0.13789338       0.88346733
H        1.37955217      -1.02872837      -1.72239296
H        0.42334859      -1.86359476      -0.39592110
10
Frame=15 idx=006020 GeodesicLength=0.8697353964295111 rxn_smarts="[C:1]([O:2][C:3]([C:4]#[N:5])([H:9])[H:10])([H:6])([H:7])[H:8]>>[C:1]([O:2][C:4]1=[N:5][C:3]1([H:9])[H:10])([H:6])([H:7])[H:8]"
C       -1.19815971       0.77859671       0.47200626
O       -0.33158021       0.48505313      -0.61863312
C        0.85193195      -0.92638183      -0.77601271
C        1.20497542       0.21436103       0.00905154
N        1.94529622      -0.28245775       0.79653824
H       -2.01237536       1.38164439       0.07761595
H       -0.67522444       1.34332282       1.24873555
H       -1.58771984      -0.13340660       0.93168249
H        1.39217330      -1.00347237      -1.71670685
H        0.41068268      -1.85725954      -0.42427736
10
Frame=16 idx=006020 GeodesicLength=0.9277647914058047 rxn_smarts="[C:1]([O:2][C:3]([C:4]#[N:5])([H:9])[H:10])([H:6])([H:7])[H:8]>>[C:1]([O:2][C:4]1=[N:5][C:3]1([H:9])[H:10])([H:6])([H:7])[H:8]"
C       -1.19519206       0.78129091       0.47105643
O       -0.33271383       0.48285606      -0.62265491
C        0.84805130      -0.91387861      -0.77724395
C        1.20654452       0.21240754       0.02885925
N        1.92060505      -0.33722637       0.80570339
H       -2.03899648       1.33536779       0.06831350
H       -0.67325705       1.39474308       1.21067911
H       -1.53801058      -0.12581985       0.97581109
H        1.40428258      -0.97934541      -1.70955651
H        0.39868655      -1.85039515      -0.45096739
