14
Frame=0 idx=002151 GeodesicLength=0.0 rxn_smarts="[C:1]([C:2]([C:3]([O:4][C:5](=[O:6])[H:14])([H:12])[H:13])([H:10])[H:11])([H:7])([H:8])[H:9]>>[C:1]([C:2]([C:3]([O+:4]=[C-:5][O:6][H:14])([H:12])[H:13])([H:10])[H:11])([H:7])([H:8])[H:9]"
C       -2.12871125      -0.04050609      -0.21286273
C       -0.86723682       0.64019331       0.30265791
C        0.37192350      -0.14929013      -0.05031923
O        1.51353772       0.58327107       0.47275559
C        2.69802871       0.08480435       0.28073605
O        2.82887240      -1.02705950      -0.35807996
H       -2.24269800      -1.04115676       0.21051720
H       -3.01610431       0.53443845       0.05344683
H       -2.11174260      -0.13955801      -1.30068818
H       -0.91620481       0.75721823       1.38807421
H       -0.77964008       1.64442351      -0.11923550
H        0.36005530      -1.14616432       0.39450196
H        0.49001595      -0.26217394      -1.12982393
H        3.79990428      -0.43844017       0.06831974
14
Frame=1 idx=002151 GeodesicLength=0.027090066142053417 rxn_smarts="[C:1]([C:2]([C:3]([O:4][C:5](=[O:6])[H:14])([H:12])[H:13])([H:10])[H:11])([H:7])([H:8])[H:9]>>[C:1]([C:2]([C:3]([O+:4]=[C-:5][O:6][H:14])([H:12])[H:13])([H:10])[H:11])([H:7])([H:8])[H:9]"
C       -2.12906580      -0.03926407      -0.21468080
C       -0.86762922       0.64047589       0.30220192
C        0.37124133      -0.15125720      -0.04698145
O        1.51270955       0.57965487       0.47701660
C        2.69613059       0.06985665       0.30548766
O        2.82768093      -1.02887582      -0.35198368
H       -2.24552981      -1.03892788       0.21038252
H       -3.01622127       0.53737453       0.04878981
H       -2.10984913      -0.14048687      -1.30227398
H       -0.91855430       0.75920566       1.38736429
H       -0.77788102       1.64399799      -0.12094644
H        0.35532128      -1.14829782       0.39748296
H        0.49229938      -0.26470539      -1.12612737
H        3.80934748      -0.41875055       0.03426796
14
Frame=2 idx=002151 GeodesicLength=0.05419749120393927 rxn_smarts="[C:1]([C:2]([C:3]([O:4][C:5](=[O:6])[H:14])([H:12])[H:13])([H:10])[H:11])([H:7])([H:8])[H:9]>>[C:1]([C:2]([C:3]([O+:4]=[C-:5][O:6][H:14])([H:12])[H:13])([H:10])[H:11])([H:7])([H:8])[H:9]"
C       -2.12921052      -0.03798892      -0.21636143
C       -0.86771600       0.64068679       0.30173703
C        0.37073665      -0.15333495      -0.04387462
O        1.51220650       0.57579827       0.48090473
C        2.69419295       0.05493863       0.32907710
O        2.82683128      -1.03066786      -0.34619222
H       -2.24813755      -1.03667498       0.21033016
H       -3.01604408       0.54036272       0.04442740
H       -2.10791996      -0.14131083      -1.30372265
H       -0.92042149       0.76106020       1.38665273
H       -0.77581292       1.64350362      -0.12262818
H        0.35084799      -1.15053689       0.40019929
H        0.49456927      -0.26739120      -1.12266950
H        3.81587787      -0.39844461       0.00212017
14
Frame=3 idx=002151 GeodesicLength=0.08128923776301197 rxn_smarts="[C:1]([C:2]([C:3]([O:4][C:5](=[O:6])[H:14])([H:12])[H:13])([H:10])[H:11])([H:7])([H:8])[H:9]>>[C:1]([C:2]([C:3]([O+:4]=[C-:5][O:6][H:14])([H:12])[H:13])([H:10])[H:11])([H:7])([H:8])[H:9]"
C       -2.12929603      -0.03689395      -0.21755525
C       -0.86760940       0.64089252       0.30117545
C        0.37037042      -0.15513953      -0.04160576
O        1.51199017       0.57237190       0.48342846
C        2.69229931       0.04110796       0.34991519
O        2.82636228      -1.03150592      -0.34219275
H       -2.25026103      -1.03469083       0.21066642
H       -3.01576718       0.54295379       0.04111244
H       -2.10650093      -0.14213579      -1.30469932
H       -0.92154210       0.76276714       1.38587584
H       -0.77395252       1.64307162      -0.12433178
H        0.34700386      -1.15252994       0.40201789
H        0.49639917      -0.26976690      -1.12010735
H        3.82050399      -0.38050210      -0.02369948
14
Frame=4 idx=002151 GeodesicLength=0.10835671771173863 rxn_smarts="[C:1]([C:2]([C:3]([O:4][C:5](=[O:6])[H:14])([H:12])[H:13])([H:10])[H:11])([H:7])([H:8])[H:9]>>[C:1]([C:2]([C:3]([O+:4]=[C-:5][O:6][H:14])([H:12])[H:13])([H:10])[H:11])([H:7])([H:8])[H:9]"
C       -2.12938854      -0.03591765      -0.21840658
C       -0.86739863       0.64109246       0.30056277
C        0.37008637      -0.15675193      -0.03993065
O        1.51198458       0.56921945       0.48501501
C        2.69045154       0.02817410       0.36851449
O        2.82616221      -1.03170543      -0.33939721
H       -2.25209070      -1.03288701       0.21126264
H       -3.01548248       0.54527478       0.03853683
H       -2.10549031      -0.14294989      -1.30535274
H       -0.92216515       0.76435744       1.38507939
H       -0.77226945       1.64268038      -0.12602015
H        0.34359948      -1.15434292       0.40320262
H        0.49787630      -0.27193452      -1.11819054
H        3.82412478      -0.36430927      -0.04487589
14
Frame=5 idx=002151 GeodesicLength=0.13548023035796228 rxn_smarts="[C:1]([C:2]([C:3]([O:4][C:5](=[O:6])[H:14])([H:12])[H:13])([H:10])[H:11])([H:7])([H:8])[H:9]>>[C:1]([C:2]([C:3]([O+:4]=[C-:5][O:6][H:14])([H:12])[H:13])([H:10])[H:11])([H:7])([H:8])[H:9]"
C       -2.12948139      -0.03500852      -0.21902924
C       -0.86711365       0.64127996       0.29992277
C        0.36984535      -0.15825863      -0.03864840
O        1.51211003       0.56620138       0.48599927
C        2.68858935       0.01589040       0.38542909
O        2.82613381      -1.03150575      -0.33734221
H       -2.25373452      -1.03119569       0.21202571
H       -3.01517671       0.54743819       0.03645410
H       -2.10474580      -0.14373331      -1.30579064
H       -0.92245308       0.76585596       1.38427658
H       -0.77068191       1.64231092      -0.12768828
H        0.34047221      -1.15605912       0.40397130
H        0.49909745      -0.27399401      -1.11670116
H        3.82713887      -0.34922179      -0.06287888
14
Frame=6 idx=002151 GeodesicLength=0.1626139856380887 rxn_smarts="[C:1]([C:2]([C:3]([O:4][C:5](=[O:6])[H:14])([H:12])[H:13])([H:10])[H:11])([H:7])([H:8])[H:9]>>[C:1]([C:2]([C:3]([O+:4]=[C-:5][O:6][H:14])([H:12])[H:13])([H:10])[H:11])([H:7])([H:8])[H:9]"
C       -2.12958382      -0.03414928      -0.21947344
C       -0.86677787       0.64145593       0.29926450
C        0.36962865      -0.15968614      -0.03766938
O        1.51233287       0.56327523       0.48652466
C        2.68670164       0.00414137       0.40095032
O        2.82623197      -1.03099415      -0.33584762
H       -2.25524851      -1.02958852       0.21291816
H       -3.01486297       0.54948363       0.03474909
H       -2.10421671      -0.14449194      -1.30605952
H       -0.92248633       0.76728112       1.38347103
H       -0.76916975       1.64195631      -0.12933544
H        0.33755103      -1.15770050       0.40442272
H        0.50010225      -0.27597424      -1.11554237
H        3.82979753      -0.33500881      -0.07837273
14
Frame=7 idx=002151 GeodesicLength=0.1897520602752865 rxn_smarts="[C:1]([C:2]([C:3]([O:4][C:5](=[O:6])[H:14])([H:12])[H:13])([H:10])[H:11])([H:7])([H:8])[H:9]>>[C:1]([C:2]([C:3]([O+:4]=[C-:5][O:6][H:14])([H:12])[H:13])([H:10])[H:11])([H:7])([H:8])[H:9]"
C       -2.12969777      -0.03332124      -0.21978389
C       -0.86640530       0.64161879       0.29859781
C        0.36942596      -0.16106447      -0.03691645
O        1.51262673       0.56039116       0.48672571
C        2.68478301      -0.00718078       0.41533106
O        2.82642941      -1.03026231      -0.33474270
H       -2.25668159      -1.02803174       0.21391894
H       -3.01454459       0.55145981       0.03331216
H       -2.10384534      -0.14523926      -1.30620071
H       -0.92233184       0.76864317       1.38266962
H       -0.76770696       1.64160932      -0.13095771
H        0.33477779      -1.15929763       0.40463265
H        0.50093924      -0.27790041      -1.11463202
H        3.83223127      -0.32142440      -0.09195448
14
Frame=8 idx=002151 GeodesicLength=0.21692035462339435 rxn_smarts="[C:1]([C:2]([C:3]([O:4][C:5](=[O:6])[H:14])([H:12])[H:13])([H:10])[H:11])([H:7])([H:8])[H:9]>>[C:1]([C:2]([C:3]([O+:4]=[C-:5][O:6][H:14])([H:12])[H:13])([H:10])[H:11])([H:7])([H:8])[H:9]"
C       -2.12982728      -0.03250802      -0.21999743
C       -0.86600785       0.64177282       0.29792876
C        0.36923595      -0.16242484      -0.03632296
O        1.51297768       0.55750016       0.48672657
C        2.68284017      -0.01818721       0.42879931
O        2.82672660      -1.02939777      -0.33389239
H       -2.25808229      -1.02650521       0.21501546
H       -3.01423213       0.55341338       0.03205755
H       -2.10358173      -0.14598440      -1.30625248
H       -0.92205609       0.76996239       1.38187935
H       -0.76626679       1.64127700      -0.13256224
H        0.33210401      -1.16089447       0.40466368
H        0.50166987      -0.27979572      -1.11390322
H        3.83449988      -0.30822812      -0.10413996
14
Frame=9 idx=002151 GeodesicLength=0.24409774736796158 rxn_smarts="[C:1]([C:2]([C:3]([O:4][C:5](=[O:6])[H:14])([H:12])[H:13])([H:10])[H:11])([H:7])([H:8])[H:9]>>[C:1]([C:2]([C:3]([O+:4]=[C-:5][O:6][H:14])([H:12])[H:13])([H:10])[H:11])([H:7])([H:8])[H:9]"
C       -2.12995399      -0.03170877      -0.22014095
C       -0.86558326       0.64191072       0.29726116
C        0.36905135      -0.16375375      -0.03585959
O        1.51336980       0.55462670       0.48653930
C        2.68086868      -0.02885029       0.44142225
O        2.82705237      -1.02847729      -0.33311905
H       -2.25941210      -1.02501419       0.21612280
H       -3.01390564       0.55530296       0.03098496
H       -2.10341540      -0.14667574      -1.30623789
H       -0.92165816       0.77122033       1.38109522
H       -0.76485050       1.64093913      -0.13412491
H        0.32951884      -1.16244732       0.40456570
H        0.50228531      -0.28167002      -1.11331270
H        3.83663270      -0.29540246      -0.11519629
14
Frame=10 idx=002151 GeodesicLength=0.2711863246120249 rxn_smarts="[C:1]([C:2]([C:3]([O:4][C:5](=[O:6])[H:14])([H:12])[H:13])([H:10])[H:11])([H:7])([H:8])[H:9]>>[C:1]([C:2]([C:3]([O+:4]=[C-:5][O:6][H:14])([H:12])[H:13])([H:10])[H:11])([H:7])([H:8])[H:9]"
C       -2.13010044      -0.03095562      -0.22015505
C       -0.86514139       0.64204396       0.29656469
C        0.36885781      -0.16500054      -0.03561892
O        1.51379674       0.55184026       0.48602710
C        2.67882233      -0.03920761       0.45324093
O        2.82740031      -1.02731206      -0.33269729
H       -2.26065125      -1.02356409       0.21735086
H       -3.01357638       0.55709402       0.03016354
H       -2.10343187      -0.14739211      -1.30608763
H       -0.92107916       0.77243802       1.38028292
H       -0.76352540       1.64059520      -0.13569395
H        0.32703855      -1.16390995       0.40421696
H        0.50272517      -0.28343936      -1.11295550
H        3.83886499      -0.28323013      -0.12463865
14
Frame=11 idx=002151 GeodesicLength=0.2982994820496196 rxn_smarts="[C:1]([C:2]([C:3]([O:4][C:5](=[O:6])[H:14])([H:12])[H:13])([H:10])[H:11])([H:7])([H:8])[H:9]>>[C:1]([C:2]([C:3]([O+:4]=[C-:5][O:6][H:14])([H:12])[H:13])([H:10])[H:11])([H:7])([H:8])[H:9]"
C       -2.13028991      -0.03024491      -0.22006251
C       -0.86471958       0.64219171       0.29585356
C        0.36866129      -0.16616269      -0.03557237
O        1.51425626       0.54917684       0.48520878
C        2.67674357      -0.04924486       0.46431314
O        2.82779951      -1.02602918      -0.33245838
H       -2.26181799      -1.02220388       0.21864129
H       -3.01330390       0.55877924       0.02959838
H       -2.10361324      -0.14808005      -1.30584702
H       -0.92040739       0.77361983       1.37947463
H       -0.76232257       1.64030167      -0.13725012
H        0.32465573      -1.16530122       0.40367884
H        0.50304413      -0.28511777      -1.11281613
H        3.84131411      -0.27168475      -0.13276209
14
Frame=12 idx=002151 GeodesicLength=0.32540326683043896 rxn_smarts="[C:1]([C:2]([C:3]([O:4][C:5](=[O:6])[H:14])([H:12])[H:13])([H:10])[H:11])([H:7])([H:8])[H:9]>>[C:1]([C:2]([C:3]([O+:4]=[C-:5][O:6][H:14])([H:12])[H:13])([H:10])[H:11])([H:7])([H:8])[H:9]"
C       -2.13050318      -0.02956332      -0.21989192
C       -0.86430319       0.64234273       0.29513062
C        0.36845941      -0.16726355      -0.03567310
O        1.51474034       0.54659147       0.48416131
C        2.67461951      -0.05901872       0.47476479
O        2.82821934      -1.02467005      -0.33231051
H       -2.26291836      -1.02090244       0.21996509
H       -3.01305654       0.56038008       0.02923263
H       -2.10392456      -0.14873362      -1.30553655
H       -0.91964586       0.77476305       1.37866387
H       -0.76120019       1.64003019      -0.13878954
H        0.32234259      -1.16662903       0.40299787
H        0.50325622      -0.28673741      -1.11283638
H        3.84391447      -0.26058940      -0.13987818
14
Frame=13 idx=002151 GeodesicLength=0.35249818727857896 rxn_smarts="[C:1]([C:2]([C:3]([O:4][C:5](=[O:6])[H:14])([H:12])[H:13])([H:10])[H:11])([H:7])([H:8])[H:9]>>[C:1]([C:2]([C:3]([O+:4]=[C-:5][O:6][H:14])([H:12])[H:13])([H:10])[H:11])([H:7])([H:8])[H:9]"
C       -2.13073474      -0.02890004      -0.21966319
C       -0.86388864       0.64249147       0.29440106
C        0.36825283      -0.16832469      -0.03588684
O        1.51524332       0.54405149       0.48294690
C        2.67245210      -0.06857225       0.48468995
O        2.82865806      -1.02327079      -0.33219373
H       -2.26397546      -1.01964040       0.22131271
H       -3.01282465       0.56192667       0.02901516
H       -2.10433408      -0.14935641      -1.30517372
H       -0.91881244       0.77586731       1.37785381
H       -0.76013241       1.63977221      -0.14030819
H        0.32008043      -1.16791344       0.40220927
H        0.50338495      -0.28832043      -1.11297871
H        3.84663073      -0.24981070      -0.14622447
14
Frame=14 idx=002151 GeodesicLength=0.3795872222707732 rxn_smarts="[C:1]([C:2]([C:3]([O:4][C:5](=[O:6])[H:14])([H:12])[H:13])([H:10])[H:11])([H:7])([H:8])[H:9]>>[C:1]([C:2]([C:3]([O+:4]=[C-:5][O:6][H:14])([H:12])[H:13])([H:10])[H:11])([H:7])([H:8])[H:9]"
C       -2.13097849      -0.02824784      -0.21939063
C       -0.86347223       0.64263514       0.29366972
C        0.36804287      -0.16936272      -0.03618431
O        1.51576126       0.54152431       0.48162692
C        2.67024411      -0.07794896       0.49416963
O        2.82911488      -1.02185788      -0.33207029
H       -2.26501026      -1.01839815       0.22268972
H       -3.01259812       0.56344913       0.02889191
H       -2.10480950      -0.14996430      -1.30476968
H       -0.91792367       0.77693398       1.37704772
H       -0.75909834       1.63952140      -0.14180566
H        0.31785220      -1.16917440       0.40133279
H        0.50345271      -0.28987530      -1.11321225
H        3.84942259      -0.23923441      -0.15199559
14
Frame=15 idx=002151 GeodesicLength=0.40667280409123946 rxn_smarts="[C:1]([C:2]([C:3]([O:4][C:5](=[O:6])[H:14])([H:12])[H:13])([H:10])[H:11])([H:7])([H:8])[H:9]>>[C:1]([C:2]([C:3]([O+:4]=[C-:5][O:6][H:14])([H:12])[H:13])([H:10])[H:11])([H:7])([H:8])[H:9]"
C       -2.13123063      -0.02759905      -0.21908715
C       -0.86305108       0.64277168       0.29293809
C        0.36783051      -0.17039214      -0.03654068
O        1.51629156       0.53898886       0.48024173
C        2.66799925      -0.08717896       0.50326431
O        2.82959006      -1.02045048      -0.33191281
H       -2.26603161      -1.01716783       0.22408005
H       -3.01237199       0.56496047       0.02884186
H       -2.10533499      -0.15055043      -1.30433703
H       -0.91699163       0.77797003       1.37624527
H       -0.75807904       1.63927195      -0.14328576
H        0.31564684      -1.17042474       0.40039596
H        0.50347463      -0.29142292      -1.11350970
H        3.85225813      -0.22877644      -0.15733413
14
Frame=16 idx=002151 GeodesicLength=0.43375678516414506 rxn_smarts="[C:1]([C:2]([C:3]([O:4][C:5](=[O:6])[H:14])([H:12])[H:13])([H:10])[H:11])([H:7])([H:8])[H:9]>>[C:1]([C:2]([C:3]([O+:4]=[C-:5][O:6][H:14])([H:12])[H:13])([H:10])[H:11])([H:7])([H:8])[H:9]"
C       -2.13148827      -0.02694932      -0.21876000
C       -0.86262351       0.64290124       0.29220717
C        0.36761616      -0.17142073      -0.03694077
O        1.51683278       0.53643090       0.47881852
C        2.66571957      -0.09628865       0.51202216
O        2.83008303      -1.01906143      -0.33170637
H       -2.26704452      -1.01594352       0.22547809
H       -3.01214319       0.56646955       0.02884782
H       -2.10589711      -0.15111812      -1.30388194
H       -0.91602510       0.77898150       1.37544623
H       -0.75706289       1.63902114      -0.14475200
H        0.31345604      -1.17167243       0.39941271
H        0.50346263      -0.29296867      -1.11385472
H        3.85511437      -0.21838146      -0.16233689
