19
Frame=0 idx=006358 GeodesicLength=0.0 rxn_smarts="[C:1]([C:2]([C@@:3]([O:4][H:14])([C:5]([C:6]([O:7][H:19])([H:17])[H:18])([H:15])[H:16])[H:13])([H:11])[H:12])([H:8])([H:9])[H:10]>>[C:1]([C:2]([C:3](=[O:4])[H:13])([H:11])[H:12])([H:8])([H:9])[H:10].[C:5](=[C:6]([H:17])[H:18])([H:15])[H:16].[O:7]([H:14])[H:19]"
C        2.66197248      -0.40715731       0.60042467
C        1.59264937       0.13567470      -0.34259030
C        0.21666735      -0.10723626       0.24550058
O       -0.10038886       0.54787534       1.29556582
C       -0.94753321       0.40539262      -1.18057632
C       -2.27644314       0.36287140      -0.75734420
O       -2.43873282      -0.04526019       1.22954758
H        3.66025349      -0.24960600       0.18893067
H        2.60245569       0.09085942       1.56819199
H        2.53389477      -1.48017273       0.76474196
H        1.67162895      -0.34225789      -1.32255809
H        1.72505773       1.21147513      -0.47870016
H       -0.06295500      -1.17803324       0.21303886
H       -1.42190068       0.22045870       1.44641653
H       -0.66082888      -0.34856035      -1.90575079
H       -0.53991488       1.39425493      -1.35711747
H       -2.90623451      -0.48041146      -1.01048999
H       -2.81145433       1.26871060      -0.51452291
H       -2.49819345      -0.99887744       1.31729166
19
Frame=1 idx=006358 GeodesicLength=0.08953479762739418 rxn_smarts="[C:1]([C:2]([C@@:3]([O:4][H:14])([C:5]([C:6]([O:7][H:19])([H:17])[H:18])([H:15])[H:16])[H:13])([H:11])[H:12])([H:8])([H:9])[H:10]>>[C:1]([C:2]([C:3](=[O:4])[H:13])([H:11])[H:12])([H:8])([H:9])[H:10].[C:5](=[C:6]([H:17])[H:18])([H:15])[H:16].[O:7]([H:14])[H:19]"
C        2.67486782      -0.40943601       0.60437203
C        1.60563099       0.13764033      -0.33627864
C        0.22743743      -0.10592272       0.24533844
O       -0.09247313       0.55189846       1.29526202
C       -0.96686905       0.39917457      -1.18516235
C       -2.29453363       0.35991982      -0.75457348
O       -2.43886985      -0.04298361       1.23536222
H        3.67310774      -0.25059439       0.19336161
H        2.61673560       0.08491545       1.57412770
H        2.54585633      -1.48289200       0.76473406
H        1.68571751      -0.33715387      -1.31783124
H        1.73869927       1.21376645      -0.46949598
H       -0.04610644      -1.17862774       0.22350922
H       -1.40922430       0.22245047       1.45398967
H       -0.68909846      -0.34795169      -1.92123941
H       -0.55639131       1.38699216      -1.36232529
H       -2.92803376      -0.47730321      -1.02038825
H       -2.82428587       1.27246817      -0.52271042
H       -2.52216690      -0.99636064       1.29994808
19
Frame=2 idx=006358 GeodesicLength=0.179096455231545 rxn_smarts="[C:1]([C:2]([C@@:3]([O:4][H:14])([C:5]([C:6]([O:7][H:19])([H:17])[H:18])([H:15])[H:16])[H:13])([H:11])[H:12])([H:8])([H:9])[H:10]>>[C:1]([C:2]([C:3](=[O:4])[H:13])([H:11])[H:12])([H:8])([H:9])[H:10].[C:5](=[C:6]([H:17])[H:18])([H:15])[H:16].[O:7]([H:14])[H:19]"
C        2.68796837      -0.41170859       0.60856936
C        1.61903477       0.13973619      -0.32986128
C        0.23846338      -0.10449507       0.24485567
O       -0.08445493       0.55614927       1.29452892
C       -0.98668920       0.39245419      -1.18984339
C       -2.31305027       0.35707189      -0.75170993
O       -2.43880089      -0.04168832       1.24100566
H        3.68626134      -0.25153521       0.19829061
H        2.63099470       0.07883338       1.58035385
H        2.55797866      -1.48560978       0.76480001
H        1.70039173      -0.33177072      -1.31304528
H        1.75285005       1.21618461      -0.46005980
H       -0.02886274      -1.17901318       0.23388504
H       -1.39631217       0.22451111       1.46131865
H       -0.71861190      -0.34759631      -1.93703162
H       -0.57308921       1.37906879      -1.36788346
H       -2.95072739      -0.47338713      -1.03055209
H       -2.83695233       1.27640678      -0.53046965
H       -2.54639196      -0.99361189       1.28284873
19
Frame=3 idx=006358 GeodesicLength=0.26869690755594344 rxn_smarts="[C:1]([C:2]([C@@:3]([O:4][H:14])([C:5]([C:6]([O:7][H:19])([H:17])[H:18])([H:15])[H:16])[H:13])([H:11])[H:12])([H:8])([H:9])[H:10]>>[C:1]([C:2]([C:3](=[O:4])[H:13])([H:11])[H:12])([H:8])([H:9])[H:10].[C:5](=[C:6]([H:17])[H:18])([H:15])[H:16].[O:7]([H:14])[H:19]"
C        2.70128203      -0.41397092       0.61302909
C        1.63287869       0.14196847      -0.32333545
C        0.24975929      -0.10294641       0.24403224
O       -0.07632903       0.56064112       1.29333790
C       -1.00701336       0.38519328      -1.19462232
C       -2.33200285       0.35433224      -0.74874853
O       -2.43851488      -0.04142724       1.24646750
H        3.69972622      -0.25242446       0.20374269
H        2.64522654       0.07261364       1.58688265
H        2.57027004      -1.48832069       0.76494646
H        1.71568618      -0.32609825      -1.30819525
H        1.76753015       1.21873489      -0.45038391
H       -0.01121239      -1.17917368       0.24415354
H       -1.38315300       0.22667604       1.46838639
H       -0.74943442      -0.34750064      -1.95313276
H       -0.59001187       1.37043459      -1.37380792
H       -2.97435194      -0.46860414      -1.04094579
H       -2.84941917       1.28054730      -0.53778214
H       -2.57091626      -0.99067513       1.26597559
19
Frame=4 idx=006358 GeodesicLength=0.3583418294892876 rxn_smarts="[C:1]([C:2]([C@@:3]([O:4][H:14])([C:5]([C:6]([O:7][H:19])([H:17])[H:18])([H:15])[H:16])[H:13])([H:11])[H:12])([H:8])([H:9])[H:10]>>[C:1]([C:2]([C:3](=[O:4])[H:13])([H:11])[H:12])([H:8])([H:9])[H:10].[C:5](=[C:6]([H:17])[H:18])([H:15])[H:16].[O:7]([H:14])[H:19]"
C        2.71481588      -0.41621900       0.61776464
C        1.64718235       0.14434484      -0.31669847
C        0.26134039      -0.10127101       0.24284249
O       -0.06809113       0.56538272       1.29165421
C       -1.02786198       0.37735192      -1.19950334
C       -2.35140095       0.35170573      -0.74568580
O       -2.43799811      -0.04225852       1.25173277
H        3.71351510      -0.25325485       0.20974811
H        2.65941945       0.06625252       1.59372876
H        2.58273958      -1.49102019       0.76517595
H        1.73163982      -0.32012200      -1.30327721
H        1.78276082       1.22142427      -0.44045693
H        0.00685625      -1.17909287       0.25429394
H       -1.36973570       0.22897358       1.47517124
H       -0.78163436      -0.34766756      -1.96954972
H       -0.60716418       1.36103703      -1.38011203
H       -2.99893828      -0.46289944      -1.05152903
H       -2.86164718       1.28490689      -0.54463012
H       -2.59579777      -0.98757407       1.24933056
19
Frame=5 idx=006358 GeodesicLength=0.44803418421385394 rxn_smarts="[C:1]([C:2]([C@@:3]([O:4][H:14])([C:5]([C:6]([O:7][H:19])([H:17])[H:18])([H:15])[H:16])[H:13])([H:11])[H:12])([H:8])([H:9])[H:10]>>[C:1]([C:2]([C:3](=[O:4])[H:13])([H:11])[H:12])([H:8])([H:9])[H:10].[C:5](=[C:6]([H:17])[H:18])([H:15])[H:16].[O:7]([H:14])[H:19]"
C        2.72857639      -0.41844988       0.62278845
C        1.66196273       0.14686936      -0.30994736
C        0.27322088      -0.09946485       0.24126491
O       -0.05973894       0.57038255       1.28944683
C       -1.04925483       0.36889477      -1.20449173
C       -2.37125154       0.34919077      -0.74251926
O       -2.43723459      -0.04423777       1.25678456
H        3.72763936      -0.25402218       0.21633247
H        2.67356468       0.05974900       1.60090466
H        2.59539524      -1.49370408       0.76549426
H        1.74828736      -0.31383311      -1.29828580
H        1.79855987       1.22425598      -0.43027013
H        0.02535137      -1.17875455       0.26428914
H       -1.35605195       0.23143209       1.48165170
H       -0.81527156      -0.34808191      -1.98629383
H       -0.62454915       1.35083070      -1.38680429
H       -3.02451314      -0.45622881      -1.06226060
H       -2.87360347       1.28949819      -0.55100008
H       -2.62108871      -0.98432625       1.23291610
19
Frame=6 idx=006358 GeodesicLength=0.5377761904289717 rxn_smarts="[C:1]([C:2]([C@@:3]([O:4][H:14])([C:5]([C:6]([O:7][H:19])([H:17])[H:18])([H:15])[H:16])[H:13])([H:11])[H:12])([H:8])([H:9])[H:10]>>[C:1]([C:2]([C:3](=[O:4])[H:13])([H:11])[H:12])([H:8])([H:9])[H:10].[C:5](=[C:6]([H:17])[H:18])([H:15])[H:16].[O:7]([H:14])[H:19]"
C        2.74257160      -0.42065575       0.62811531
C        1.67724271       0.14955199      -0.30308090
C        0.28541979      -0.09752528       0.23926610
O       -0.05126960       0.57564157       1.28667414
C       -1.07121500       0.35977264      -1.20959309
C       -2.39156006       0.34679308      -0.73924402
O       -2.43620170      -0.04744267       1.26159661
H        3.74211218      -0.25471298       0.22353195
H        2.68764649       0.05310249       1.60842581
H        2.60824981      -1.49636399       0.76590386
H        1.76567737      -0.30721315      -1.29321766
H        1.81494841       1.22723962      -0.41980995
H        0.04428738      -1.17814632       0.27410453
H       -1.34209031       0.23406294       1.48779874
H       -0.85042370      -0.34874308      -2.00336673
H       -0.64217217       1.33975061      -1.39389515
H       -3.05110084      -0.44852872      -1.07308556
H       -2.88523615       1.29433387      -0.55686815
H       -2.64688621      -0.98091687       1.21674416
19
Frame=7 idx=006358 GeodesicLength=0.6275646001155123 rxn_smarts="[C:1]([C:2]([C@@:3]([O:4][H:14])([C:5]([C:6]([O:7][H:19])([H:17])[H:18])([H:15])[H:16])[H:13])([H:11])[H:12])([H:8])([H:9])[H:10]>>[C:1]([C:2]([C:3](=[O:4])[H:13])([H:11])[H:12])([H:8])([H:9])[H:10].[C:5](=[C:6]([H:17])[H:18])([H:15])[H:16].[O:7]([H:14])[H:19]"
C        2.75680727      -0.42283357       0.63376069
C        1.69304174       0.15240099      -0.29609624
C        0.29795330      -0.09544497       0.23681910
O       -0.04268429       0.58116825       1.28329918
C       -1.09376220       0.34994347      -1.21481879
C       -2.41233313       0.34451322      -0.73585619
O       -2.43487278      -0.05193833       1.26614144
H        3.75694350      -0.25532582       0.23138025
H        2.70164993       0.04631041       1.61630545
H        2.62130978      -1.49899463       0.76641297
H        1.78385005      -0.30024785      -1.28806799
H        1.83194614       1.23038293      -0.40906582
H        0.06367018      -1.17725051       0.28371138
H       -1.32784348       0.23688472       1.49358391
H       -0.88715981      -0.34963228      -2.02077880
H       -0.66003298       1.32774310      -1.40139217
H       -3.07872712      -0.43975473      -1.08394770
H       -2.89650615       1.29942256      -0.56221658
H       -2.67324995      -0.97734695       1.20082590
19
Frame=8 idx=006358 GeodesicLength=0.7173769924379606 rxn_smarts="[C:1]([C:2]([C@@:3]([O:4][H:14])([C:5]([C:6]([O:7][H:19])([H:17])[H:18])([H:15])[H:16])[H:13])([H:11])[H:12])([H:8])([H:9])[H:10]>>[C:1]([C:2]([C:3](=[O:4])[H:13])([H:11])[H:12])([H:8])([H:9])[H:10].[C:5](=[C:6]([H:17])[H:18])([H:15])[H:16].[O:7]([H:14])[H:19]"
C        2.77128640      -0.42497871       0.63973810
C        1.70938081       0.15543203      -0.28899130
C        0.31083956      -0.09321782       0.23388782
O       -0.03398671       0.58695884       1.27928488
C       -1.11691151       0.33935818      -1.22018836
C       -2.43357165       0.34234536      -0.73235183
O       -2.43320782      -0.05779720       1.27037161
H        3.77213927      -0.25585094       0.23991546
H        2.71555391       0.03936241       1.62455553
H        2.63458551      -1.50159000       0.76701954
H        1.80285588      -0.29290439      -1.28283068
H        1.84956835       1.23370302      -0.39801738
H        0.08350761      -1.17605247       0.29306457
H       -1.31330197       0.23988403       1.49897749
H       -0.92554206      -0.35073711      -2.03853888
H       -0.67812384       1.31475097      -1.40931339
H       -3.10740992      -0.42986778      -1.09477175
H       -2.90736166       1.30476412      -0.56702107
H       -2.70030015      -0.97356254       1.18520962
19
Frame=9 idx=006358 GeodesicLength=0.8070612953238214 rxn_smarts="[C:1]([C:2]([C@@:3]([O:4][H:14])([C:5]([C:6]([O:7][H:19])([H:17])[H:18])([H:15])[H:16])[H:13])([H:11])[H:12])([H:8])([H:9])[H:10]>>[C:1]([C:2]([C:3](=[O:4])[H:13])([H:11])[H:12])([H:8])([H:9])[H:10].[C:5](=[C:6]([H:17])[H:18])([H:15])[H:16].[O:7]([H:14])[H:19]"
C        2.78600178      -0.42706744       0.64607186
C        1.72630430       0.15869504      -0.28176228
C        0.32411213      -0.09087512       0.23033355
O       -0.02518638       0.59290790       1.27450562
C       -1.14072902       0.32789402      -1.22568642
C       -2.45524837       0.34030151      -0.72872159
O       -2.43117951      -0.06507755       1.27422799
H        3.78771555      -0.25619270       0.24925365
H        2.72925821       0.03220610       1.63323174
H        2.64809843      -1.50414100       0.76763946
H        1.82282929      -0.28506364      -1.27752381
H        1.86783984       1.23725489      -0.38656505
H        0.10384625      -1.17457095       0.30196596
H       -1.29844682       0.24286920       1.50389039
H       -0.96570964      -0.35204632      -2.05659369
H       -0.69649887       1.30058243      -1.41766818
H       -3.13705720      -0.41881218      -1.10543827
H       -2.91766616       1.31035356      -0.57131696
H       -2.72828379      -0.96921774       1.17015602
19
Frame=10 idx=006358 GeodesicLength=0.8967632337373163 rxn_smarts="[C:1]([C:2]([C@@:3]([O:4][H:14])([C:5]([C:6]([O:7][H:19])([H:17])[H:18])([H:15])[H:16])[H:13])([H:11])[H:12])([H:8])([H:9])[H:10]>>[C:1]([C:2]([C:3](=[O:4])[H:13])([H:11])[H:12])([H:8])([H:9])[H:10].[C:5](=[C:6]([H:17])[H:18])([H:15])[H:16].[O:7]([H:14])[H:19]"
C        2.80096385      -0.42910595       0.65276583
C        1.74380575       0.16217008      -0.27440852
C        0.33777823      -0.08838779       0.22620577
O       -0.01628595       0.59909062       1.26899087
C       -1.16519994       0.31555886      -1.23135406
C       -2.47737770       0.33836774      -0.72496390
O       -2.42876030      -0.07388358       1.27768030
H        3.80367048      -0.25640199       0.25936958
H        2.74280004       0.02487320       1.64231003
H        2.66185577      -1.50663861       0.76833723
H        1.84374222      -0.27677698      -1.27212220
H        1.88675551       1.24101484      -0.37475715
H        0.12466243      -1.17277291       0.31049517
H       -1.28327571       0.24596466       1.50833839
H       -1.00765995      -0.35353002      -2.07498181
H       -0.71510988       1.28527510      -1.42646052
H       -3.16776175      -0.40655163      -1.11593058
H       -2.92742464       1.31619560      -0.57505004
H       -2.75717847      -0.96446124       1.15553559
19
Frame=11 idx=006358 GeodesicLength=0.9864836029590507 rxn_smarts="[C:1]([C:2]([C@@:3]([O:4][H:14])([C:5]([C:6]([O:7][H:19])([H:17])[H:18])([H:15])[H:16])[H:13])([H:11])[H:12])([H:8])([H:9])[H:10]>>[C:1]([C:2]([C:3](=[O:4])[H:13])([H:11])[H:12])([H:8])([H:9])[H:10].[C:5](=[C:6]([H:17])[H:18])([H:15])[H:16].[O:7]([H:14])[H:19]"
C        2.81617358      -0.43108090       0.65983428
C        1.76190274       0.16586911      -0.26692846
C        0.35185883      -0.08576542       0.22145454
O       -0.00729352       0.60547904       1.26268466
C       -1.19035850       0.30229735      -1.23719752
C       -2.49995083       0.33654984      -0.72107344
O       -2.42593355      -0.08429911       1.28069082
H        3.82001294      -0.25644467       0.27031104
H        2.75614426       0.01735813       1.65181011
H        2.67587318      -1.50907108       0.76909894
H        1.86565015      -0.26801439      -1.26662429
H        1.90632074       1.24499461      -0.36256552
H        0.14596980      -1.17065806       0.31858277
H       -1.26778143       0.24911892       1.51227646
H       -1.05145459      -0.35516898      -2.09367507
H       -0.73396847       1.26874404      -1.43569292
H       -3.19950900      -0.39303399      -1.12618606
H       -2.93656783       1.32229285      -0.57822156
H       -2.78708849      -0.95916729       1.14142123
19
Frame=12 idx=006358 GeodesicLength=1.0762111256209168 rxn_smarts="[C:1]([C:2]([C@@:3]([O:4][H:14])([C:5]([C:6]([O:7][H:19])([H:17])[H:18])([H:15])[H:16])[H:13])([H:11])[H:12])([H:8])([H:9])[H:10]>>[C:1]([C:2]([C:3](=[O:4])[H:13])([H:11])[H:12])([H:8])([H:9])[H:10].[C:5](=[C:6]([H:17])[H:18])([H:15])[H:16].[O:7]([H:14])[H:19]"
C        2.83162798      -0.43298144       0.66729303
C        1.78061217       0.16981420      -0.25931752
C        0.36637498      -0.08301194       0.21602436
O        0.00177508       0.61204196       1.25553002
C       -1.21623989       0.28804121      -1.24323586
C       -2.52295459       0.33485034      -0.71704419
O       -2.42267464      -0.09640318       1.28320193
H        3.83674503      -0.25628542       0.28213694
H        2.76924333       0.00963877       1.66175347
H        2.69016744      -1.51142902       0.76990103
H        1.88861363      -0.25872290      -1.26102675
H        1.92653731       1.24921813      -0.34994871
H        0.16777910      -1.16822501       0.32614389
H       -1.25195834       0.25226399       1.51565756
H       -1.09716557      -0.35694745      -2.11265031
H       -0.75307765       1.25089154      -1.44537786
H       -3.23228430      -0.37821081      -1.13612134
H       -2.94500803       1.32864217      -0.58083703
H       -2.81811304      -0.95318514       1.12791737
19
Frame=13 idx=006358 GeodesicLength=1.1659162706357447 rxn_smarts="[C:1]([C:2]([C@@:3]([O:4][H:14])([C:5]([C:6]([O:7][H:19])([H:17])[H:18])([H:15])[H:16])[H:13])([H:11])[H:12])([H:8])([H:9])[H:10]>>[C:1]([C:2]([C:3](=[O:4])[H:13])([H:11])[H:12])([H:8])([H:9])[H:10].[C:5](=[C:6]([H:17])[H:18])([H:15])[H:16].[O:7]([H:14])[H:19]"
C        2.84731400      -0.43481480       0.67515084
C        1.79994896       0.17402825      -0.25156802
C        0.38134479      -0.08012331       0.20985504
O        0.01090300       0.61874622       1.24746938
C       -1.24287030       0.27274523      -1.24949039
C       -2.54637111       0.33324099      -0.71287923
O       -2.41896325      -0.11024110       1.28515474
H        3.85386513      -0.25590718       0.29490291
H        2.78204334       0.00165856       1.67215970
H        2.70473653      -1.51372000       0.77069527
H        1.91269070      -0.24883375      -1.25532469
H        1.94741321       1.25370864      -0.33684776
H        0.19008590      -1.16546177       0.33307991
H       -1.23580585       0.25535049       1.51842707
H       -1.14481692      -0.35879604      -2.13190134
H       -0.77244582       1.23165919      -1.45548912
H       -3.26602254      -0.36213727      -1.14565372
H       -2.95272676       1.33520326      -0.58294898
H       -2.85032298      -0.94630559       1.11520837
19
Frame=14 idx=006358 GeodesicLength=1.255591803317547 rxn_smarts="[C:1]([C:2]([C@@:3]([O:4][H:14])([C:5]([C:6]([O:7][H:19])([H:17])[H:18])([H:15])[H:16])[H:13])([H:11])[H:12])([H:8])([H:9])[H:10]>>[C:1]([C:2]([C:3](=[O:4])[H:13])([H:11])[H:12])([H:8])([H:9])[H:10].[C:5](=[C:6]([H:17])[H:18])([H:15])[H:16].[O:7]([H:14])[H:19]"
C        2.86322250      -0.43656527       0.68342447
C        1.81992570       0.17854059      -0.24367438
C        0.39679124      -0.07710454       0.20288297
O        0.02006549       0.62554693       1.23844616
C       -1.27029117       0.25633334      -1.25599332
C       -2.57017603       0.33171987      -0.70856993
O       -2.41476694      -0.12593040       1.28646224
H        3.87136417      -0.25526959       0.30867644
H        2.79448340      -0.00660334       1.68304582
H        2.71960086      -1.51592720       0.77145796
H        1.93794679      -0.23827975      -1.24951075
H        1.96893465       1.25849757      -0.32321235
H        0.21290375      -1.16237427       0.33928567
H       -1.21932104       0.25826988       1.52053184
H       -1.19447688      -0.36070413      -2.15138858
H       -0.79207221       1.21093303      -1.46605378
H       -3.30070193      -0.34474576      -1.15468477
H       -2.95960513       1.34194913      -0.58455262
H       -2.88382722      -0.93828609       1.10342692
19
Frame=15 idx=006358 GeodesicLength=1.3452066164640955 rxn_smarts="[C:1]([C:2]([C@@:3]([O:4][H:14])([C:5]([C:6]([O:7][H:19])([H:17])[H:18])([H:15])[H:16])[H:13])([H:11])[H:12])([H:8])([H:9])[H:10]>>[C:1]([C:2]([C:3](=[O:4])[H:13])([H:11])[H:12])([H:8])([H:9])[H:10].[C:5](=[C:6]([H:17])[H:18])([H:15])[H:16].[O:7]([H:14])[H:19]"
C        2.87932915      -0.43822922       0.69212622
C        1.84054821       0.18338319      -0.23562779
C        0.41273211      -0.07395546       0.19503663
O        0.02923124       0.63238833       1.22840023
C       -1.29853935       0.23874581      -1.26277820
C       -2.59433664       0.33026675      -0.70411572
O       -2.41006273      -0.14356346       1.28703651
H        3.88922172      -0.25434349       0.32352523
H        2.80648813      -0.01519514       1.69442781
H        2.73475911      -1.51804417       0.77214511
H        1.96444313      -0.22697560      -1.24357512
H        1.99108517       1.26361663      -0.30897433
H        0.23623200      -1.15896297       0.34463293
H       -1.20250427       0.26091131       1.52191088
H       -1.24617284      -0.36262711      -2.17107933
H       -0.81195888       1.18862191      -1.47706949
H       -3.33625603      -0.32604882      -1.16312216
H       -2.96557026       1.34883012      -0.58568542
H       -2.91866898      -0.92881860       1.09278602
19
Frame=16 idx=006358 GeodesicLength=1.4347499790179317 rxn_smarts="[C:1]([C:2]([C@@:3]([O:4][H:14])([C:5]([C:6]([O:7][H:19])([H:17])[H:18])([H:15])[H:16])[H:13])([H:11])[H:12])([H:8])([H:9])[H:10]>>[C:1]([C:2]([C:3](=[O:4])[H:13])([H:11])[H:12])([H:8])([H:9])[H:10].[C:5](=[C:6]([H:17])[H:18])([H:15])[H:16].[O:7]([H:14])[H:19]"
C        2.89561610      -0.43978832       0.70126951
C        1.86182218       0.18859403      -0.22741870
C        0.42919244      -0.07069162       0.18623197
O        0.03836548       0.63917977       1.21727024
C       -1.32765383       0.21990951      -1.26988764
C       -2.61881242       0.32885844      -0.69951784
O       -2.40483137      -0.16329334       1.28676245
H        3.90742106      -0.25307044       0.33952754
H        2.81797904      -0.02415346       1.70632166
H        2.75023359      -1.52005040       0.77270791
H        1.99225123      -0.21482334      -1.23750770
H        2.01382926       1.26910551      -0.29405323
H        0.26008458      -1.15525312       0.34895823
H       -1.18535193       0.26308429       1.52250081
H       -1.29993017      -0.36452856      -2.19093442
H       -0.83210230       1.16461232      -1.48854515
H       -3.37261966      -0.30603921      -1.17088081
H       -2.97051622       1.35578701      -0.58637813
H       -2.95497709      -0.91743908       1.08357330
