13
Frame=0 idx=007965 GeodesicLength=0.0 rxn_smarts="[N:1](=[C:2]1\[O:3][C:4]([H:9])([H:10])[C@@:5]12[C:6]([H:11])([H:12])[N:7]2[H:13])\[H:8]>>[N:1](=[C:2]1\[O:3][C:4]([H:10])=[C:5]1[C:6]([N:7]([H:9])[H:13])([H:11])[H:12])\[H:8]"
N        1.67737354      -0.98874451      -1.31957126
C        1.20378020      -0.12546517      -0.54265737
O        1.74997249       0.77477932       0.28946087
C        0.37551073       1.31489936       0.73366190
C       -0.18707867       0.22143626      -0.13842517
C       -1.58068637      -0.14165953      -0.31168392
N       -0.87773675      -0.65431587       0.88638014
H        2.69475313      -0.98068071      -1.30663558
H       -0.51408379       0.20440308       1.60924554
H        0.30896937       2.32702416       0.32810144
H       -1.84750445      -0.90906059      -1.02809956
H       -2.34260626       0.60122593      -0.11043856
H       -0.66066321      -1.64384175       0.91066150
13
Frame=1 idx=007965 GeodesicLength=0.08432928652011118 rxn_smarts="[N:1](=[C:2]1\[O:3][C:4]([H:9])([H:10])[C@@:5]12[C:6]([H:11])([H:12])[N:7]2[H:13])\[H:8]>>[N:1](=[C:2]1\[O:3][C:4]([H:10])=[C:5]1[C:6]([N:7]([H:9])[H:13])([H:11])[H:12])\[H:8]"
N        1.67528118      -0.99736646      -1.31204282
C        1.20135912      -0.12068904      -0.55147188
O        1.75236493       0.78810255       0.27369527
C        0.38326830       1.31249680       0.72803546
C       -0.18692297       0.22724807      -0.14136558
C       -1.57970551      -0.14541439      -0.31041616
N       -0.89048031      -0.65987230       0.89300467
H        2.69266085      -0.98664149      -1.30262026
H       -0.50482979       0.20840093       1.62278451
H        0.30332392       2.33171589       0.34430289
H       -1.83769946      -0.90854880      -1.03475487
H       -2.34205182       0.59868146      -0.11441526
H       -0.66656843      -1.64811320       0.90526402
13
Frame=2 idx=007965 GeodesicLength=0.16863646042559965 rxn_smarts="[N:1](=[C:2]1\[O:3][C:4]([H:9])([H:10])[C@@:5]12[C:6]([H:11])([H:12])[N:7]2[H:13])\[H:8]>>[N:1](=[C:2]1\[O:3][C:4]([H:10])=[C:5]1[C:6]([N:7]([H:9])[H:13])([H:11])[H:12])\[H:8]"
N        1.67330845      -1.00595598      -1.30417069
C        1.19889038      -0.11604769      -0.56042595
O        1.75459073       0.80151503       0.25750378
C        0.39102200       1.31001051       0.72221334
C       -0.18680166       0.23313768      -0.14462029
C       -1.57869696      -0.14919108      -0.30924514
N       -0.90359507      -0.66545637       0.89959944
H        2.69066886      -0.99229330      -1.29860357
H       -0.49527629       0.21248840       1.63628961
H        0.29795035       2.33599154       0.36116726
H       -1.82801518      -0.90814488      -1.04115884
H       -2.34148445       0.59610634      -0.11861772
H       -0.67256118      -1.65216021       0.90006879
13
Frame=3 idx=007965 GeodesicLength=0.2529232700748154 rxn_smarts="[N:1](=[C:2]1\[O:3][C:4]([H:9])([H:10])[C@@:5]12[C:6]([H:11])([H:12])[N:7]2[H:13])\[H:8]>>[N:1](=[C:2]1\[O:3][C:4]([H:10])=[C:5]1[C:6]([N:7]([H:9])[H:13])([H:11])[H:12])\[H:8]"
N        1.67146376      -1.01449269      -1.29595093
C        1.19637944      -0.11155819      -0.56949499
O        1.75663876       0.81500603       0.24090008
C        0.39876802       1.30744073       0.71618698
C       -0.18671684       0.23910814      -0.14819724
C       -1.57765900      -0.15299076      -0.30817126
N       -0.91710656      -0.67106124       0.90616654
H        2.68877887      -0.99760720      -1.29462853
H       -0.48542283       0.21668312       1.64976132
H        0.29288242       2.33981513       0.37870150
H       -1.81844676      -0.90786533      -1.04731445
H       -2.34090619       0.59349536      -0.12306336
H       -0.67865309      -1.65597310       0.89510433
13
Frame=4 idx=007965 GeodesicLength=0.3372026716981626 rxn_smarts="[N:1](=[C:2]1\[O:3][C:4]([H:9])([H:10])[C@@:5]12[C:6]([H:11])([H:12])[N:7]2[H:13])\[H:8]>>[N:1](=[C:2]1\[O:3][C:4]([H:10])=[C:5]1[C:6]([N:7]([H:9])[H:13])([H:11])[H:12])\[H:8]"
N        1.66974872      -1.02291039      -1.28742200
C        1.19382170      -0.10720729      -0.57869108
O        1.75848965       0.82859922       0.22386016
C        0.40650287       1.30478952       0.70994719
C       -0.18667622       0.24517517      -0.15211272
C       -1.57659338      -0.15681235      -0.30718714
N       -0.93102231      -0.67669407       0.91269632
H        2.68698479      -1.00265088      -1.29061283
H       -0.47524538       0.22098350       1.66319675
H        0.28814206       2.34315558       0.39692289
H       -1.80899795      -0.90771295      -1.05322710
H       -2.34032711       0.59083580      -0.12773816
H       -0.68482743      -1.65955086       0.89036771
13
Frame=5 idx=007965 GeodesicLength=0.4214675719684262 rxn_smarts="[N:1](=[C:2]1\[O:3][C:4]([H:9])([H:10])[C@@:5]12[C:6]([H:11])([H:12])[N:7]2[H:13])\[H:8]>>[N:1](=[C:2]1\[O:3][C:4]([H:10])=[C:5]1[C:6]([N:7]([H:9])[H:13])([H:11])[H:12])\[H:8]"
N        1.66816233      -1.03117550      -1.27861284
C        1.19121829      -0.10298149      -0.58801551
O        1.76013008       0.84229079       0.20639339
C        0.41421652       1.30206625       0.70348582
C       -0.18668604       0.25135343      -0.15638172
C       -1.57550003      -0.16065655      -0.30628828
N       -0.94535483      -0.68235464       0.91918237
H        2.68528170      -1.00745543      -1.28652528
H       -0.46472758       0.22539868       1.67659197
H        0.28375098       2.34598226       0.41584434
H       -1.79966623      -0.90769605      -1.05890103
H       -2.33975576       0.58811477      -0.13264096
H       -0.69106942      -1.66288653       0.88586773
13
Frame=6 idx=007965 GeodesicLength=0.5057310920490792 rxn_smarts="[N:1](=[C:2]1\[O:3][C:4]([H:9])([H:10])[C@@:5]12[C:6]([H:11])([H:12])[N:7]2[H:13])\[H:8]>>[N:1](=[C:2]1\[O:3][C:4]([H:10])=[C:5]1[C:6]([N:7]([H:9])[H:13])([H:11])[H:12])\[H:8]"
N        1.66671114      -1.03925532      -1.26951787
C        1.18856869      -0.09890125      -0.59744675
O        1.76154203       0.85607405       0.18850874
C        0.42190839       1.29926590       0.69679245
C       -0.18675144       0.25764578      -0.16101178
C       -1.57437753      -0.16452420      -0.30547265
N       -0.96013365      -0.68804147       0.92562617
H        2.68367293      -1.01197921      -1.28239308
H       -0.45386780       0.22994343       1.68994940
H        0.27976371       2.34824502       0.43545866
H       -1.79044827      -0.90782723      -1.06433856
H       -2.33919521       0.58532526      -0.13778671
H       -0.69739299      -1.66597076       0.88163198
13
Frame=7 idx=007965 GeodesicLength=0.5899897086358291 rxn_smarts="[N:1](=[C:2]1\[O:3][C:4]([H:9])([H:10])[C@@:5]12[C:6]([H:11])([H:12])[N:7]2[H:13])\[H:8]>>[N:1](=[C:2]1\[O:3][C:4]([H:10])=[C:5]1[C:6]([N:7]([H:9])[H:13])([H:11])[H:12])\[H:8]"
N        1.66539116      -1.04711983      -1.26016937
C        1.18586980      -0.09494430      -0.60699527
O        1.76271002       0.86994307       0.17022475
C        0.42956541       1.29639924       0.68986098
C       -0.18688144       0.26407086      -0.16601700
C       -1.57322631      -0.16841478      -0.30473271
N       -0.97537013      -0.69376048       0.93201811
H        2.68215511      -1.01625508      -1.27816836
H       -0.44264479       0.23462210       1.70326753
H        0.27620746       2.34991468       0.45576107
H       -1.78134254      -0.90810859      -1.06954426
H       -2.33865692       0.58245293      -0.14316670
H       -0.70377683      -1.66879983       0.87766123
13
Frame=8 idx=007965 GeodesicLength=0.6742572383589748 rxn_smarts="[N:1](=[C:2]1\[O:3][C:4]([H:9])([H:10])[C@@:5]12[C:6]([H:11])([H:12])[N:7]2[H:13])\[H:8]>>[N:1](=[C:2]1\[O:3][C:4]([H:10])=[C:5]1[C:6]([N:7]([H:9])[H:13])([H:11])[H:12])\[H:8]"
N        1.66420464      -1.05473486      -1.25057467
C        1.18311626      -0.09111218      -0.61665851
O        1.76361155       0.88389470       0.15154804
C        0.43718186       1.29346763       0.68267910
C       -0.18708552       0.27063743      -0.17141116
C       -1.57204789      -0.17233014      -0.30406325
N       -0.99108768      -0.69951628       0.93835350
H        2.68072984      -1.02026565      -1.27383349
H       -0.43104575       0.23944781       1.71654568
H        0.27313973       2.35093692       0.47674959
H       -1.77235056      -0.90854782      -1.07452063
H       -2.33814916       0.57948856      -0.14878586
H       -0.71021731      -1.67136612       0.87397167
13
Frame=9 idx=007965 GeodesicLength=0.7585221027643058 rxn_smarts="[N:1](=[C:2]1\[O:3][C:4]([H:9])([H:10])[C@@:5]12[C:6]([H:11])([H:12])[N:7]2[H:13])\[H:8]>>[N:1](=[C:2]1\[O:3][C:4]([H:10])=[C:5]1[C:6]([N:7]([H:9])[H:13])([H:11])[H:12])\[H:8]"
N        1.66314782      -1.06206701      -1.24075315
C        1.18030329      -0.08738187      -0.62644566
O        1.76422832       0.89791686       0.13251198
C        0.44473539       1.29049414       0.67523014
C       -0.18737561       0.27736313      -0.17721091
C       -1.57084372      -0.17627285      -0.30345843
N       -1.00730225      -0.70531250       0.94462331
H        2.67939302      -1.02402175      -1.26935790
H       -0.41905135       0.24442809       1.72977893
H        0.27061867       2.35124949       0.49841891
H       -1.76347089      -0.90915213      -1.07927062
H       -2.33768683       0.57641525      -0.15464180
H       -0.71669586      -1.67365886       0.87057519
13
Frame=10 idx=007965 GeodesicLength=0.84279023423116 rxn_smarts="[N:1](=[C:2]1\[O:3][C:4]([H:9])([H:10])[C@@:5]12[C:6]([H:11])([H:12])[N:7]2[H:13])\[H:8]>>[N:1](=[C:2]1\[O:3][C:4]([H:10])=[C:5]1[C:6]([N:7]([H:9])[H:13])([H:11])[H:12])\[H:8]"
N        1.66220776      -1.06906944      -1.23075012
C        1.17742581      -0.08374584      -0.63635544
O        1.76454913       0.91198852       0.11315217
C        0.45222173       1.28747438       0.66751705
C       -0.18775933       0.28426084      -0.18342336
C       -1.56960984      -0.18024219      -0.30290805
N       -1.02403358      -0.71116329       0.95082077
H        2.67813768      -1.02752445      -1.26469666
H       -0.40664846       0.24956799       1.74297330
H        0.26868198       2.35083256       0.52071981
H       -1.75469815      -0.90992063      -1.08379714
H       -2.33727452       0.57321841      -0.16073123
H       -0.72320023      -1.67567685       0.86747892
13
Frame=11 idx=007965 GeodesicLength=0.9270544586690244 rxn_smarts="[N:1](=[C:2]1\[O:3][C:4]([H:9])([H:10])[C@@:5]12[C:6]([H:11])([H:12])[N:7]2[H:13])\[H:8]>>[N:1](=[C:2]1\[O:3][C:4]([H:10])=[C:5]1[C:6]([N:7]([H:9])[H:13])([H:11])[H:12])\[H:8]"
N        1.66137035      -1.07570558      -1.22060754
C        1.17447896      -0.08017563      -0.64639676
O        1.76456653       0.92608386       0.09352619
C        0.45962193       1.28442130       0.65954156
C       -0.18824646       0.29134771      -0.19005482
C       -1.56834370      -0.18423835      -0.30240094
N       -1.04129680      -0.71708826       0.95693264
H        2.67695535      -1.03079394      -1.25980469
H       -0.39381749       0.25486912       1.75613355
H        0.26736877       2.34966739       0.54359487
H       -1.74602738      -0.91084804      -1.08810597
H       -2.33692347       0.56987951      -0.16704203
H       -0.72970658      -1.67741909       0.86468394
13
Frame=12 idx=007965 GeodesicLength=1.0113237174694039 rxn_smarts="[N:1](=[C:2]1\[O:3][C:4]([H:9])([H:10])[C@@:5]12[C:6]([H:11])([H:12])[N:7]2[H:13])\[H:8]>>[N:1](=[C:2]1\[O:3][C:4]([H:10])=[C:5]1[C:6]([N:7]([H:9])[H:13])([H:11])[H:12])\[H:8]"
N        1.66062340      -1.08193449      -1.21036048
C        1.17145466      -0.07665783      -0.65657344
O        1.76426761       0.94018693       0.07367387
C        0.46692289       1.28134277       0.65129611
C       -0.18884821       0.29863640      -0.19711507
C       -1.56704436      -0.18826188      -0.30192675
N       -1.05911330      -0.72310653       0.96294775
H        2.67584196      -1.03382338      -1.25463140
H       -0.38053658       0.26033721       1.76926418
H        0.26673434       2.34771072       0.56699628
H       -1.73745936      -0.91193073      -1.09220081
H       -2.33664273       0.56638513      -0.17356800
H       -0.73620031      -1.67888432       0.86219775
13
Frame=13 idx=007965 GeodesicLength=1.0955825041899176 rxn_smarts="[N:1](=[C:2]1\[O:3][C:4]([H:9])([H:10])[C@@:5]12[C:6]([H:11])([H:12])[N:7]2[H:13])\[H:8]>>[N:1](=[C:2]1\[O:3][C:4]([H:10])=[C:5]1[C:6]([N:7]([H:9])[H:13])([H:11])[H:12])\[H:8]"
N        1.65994140      -1.08771801      -1.20007324
C        1.16835216      -0.07316779      -0.66688613
O        1.76365965       0.95425438       0.05368167
C        0.47410472       1.27825050       0.64278823
C       -0.18957035       0.30614370      -0.20460717
C       -1.56570294      -0.19231403      -0.30147331
N       -1.07750150      -0.72924035       0.96885380
H        2.67478299      -1.03662609      -1.24914202
H       -0.36678980       0.26597575       1.78237350
H        0.26680108       2.34495659       0.59084282
H       -1.72898076      -0.91316288      -1.09608641
H       -2.33643778       0.56271642      -0.18030160
H       -0.74265888      -1.68006818       0.86002985
13
Frame=14 idx=007965 GeodesicLength=1.1798356239689838 rxn_smarts="[N:1](=[C:2]1\[O:3][C:4]([H:9])([H:10])[C@@:5]12[C:6]([H:11])([H:12])[N:7]2[H:13])\[H:8]>>[N:1](=[C:2]1\[O:3][C:4]([H:10])=[C:5]1[C:6]([N:7]([H:9])[H:13])([H:11])[H:12])\[H:8]"
N        1.65930386      -1.09301811      -1.18979544
C        1.16516124      -0.06968522      -0.67734831
O        1.76273607       0.96827055       0.03359446
C        0.48115231       1.27515417       0.63401060
C       -0.19042405       0.31388481      -0.21254026
C       -1.56431514      -0.19639295      -0.30102781
N       -1.09647925      -0.73551646       0.97463437
H        2.67377186      -1.03921045      -1.24326167
H       -0.35254651       0.27178765       1.79546712
H        0.26760843       2.34137187       0.61508232
H       -1.72059112      -0.91453464      -1.09976596
H       -2.33631645       0.55885845      -0.18723237
H       -0.74906124      -1.68096966       0.85818295
13
Frame=15 idx=007965 GeodesicLength=1.2640703209152653 rxn_smarts="[N:1](=[C:2]1\[O:3][C:4]([H:9])([H:10])[C@@:5]12[C:6]([H:11])([H:12])[N:7]2[H:13])\[H:8]>>[N:1](=[C:2]1\[O:3][C:4]([H:10])=[C:5]1[C:6]([N:7]([H:9])[H:13])([H:11])[H:12])\[H:8]"
N        1.65868234      -1.09780139      -1.17959384
C        1.16187973      -0.06618884      -0.68795887
O        1.76150881       0.98219757       0.01349697
C        0.48804445       1.27206758       0.62496977
C       -0.19141531       0.32187249      -0.22091532
C       -1.56287207      -0.20049861      -0.30057681
N       -1.11606781      -0.74196478       0.98027252
H        2.67279599      -1.04158404      -1.23694790
H       -0.33778333       0.27777877       1.80855542
H        0.26917680       2.33695027       0.63962822
H       -1.71228057      -0.91603501      -1.10324436
H       -2.33628243       0.55479435      -0.19435184
H       -0.75538659      -1.68158835       0.85666604
13
Frame=16 idx=007965 GeodesicLength=1.348283559548492 rxn_smarts="[N:1](=[C:2]1\[O:3][C:4]([H:9])([H:10])[C@@:5]12[C:6]([H:11])([H:12])[N:7]2[H:13])\[H:8]>>[N:1](=[C:2]1\[O:3][C:4]([H:10])=[C:5]1[C:6]([N:7]([H:9])[H:13])([H:11])[H:12])\[H:8]"
N        1.65804833      -1.10203940      -1.16952780
C        1.15850130      -0.06265767      -0.69872671
O        1.75998465       0.99601754      -0.00655656
C        0.49476418       1.26900223       0.61566407
C       -0.19255143       0.33012099      -0.22973763
C       -1.56136558      -0.20462834      -0.30010605
N       -1.13628788      -0.74861980       0.98574670
H        2.67184592      -1.04375804      -1.23012677
H       -0.32246218       0.28394663       1.82164727
H        0.27152172       2.33167409       0.66441309
H       -1.70404495      -0.91764739      -1.10652710
H       -2.33633888       0.55051117      -0.20164759
H       -0.76161521      -1.68192199       0.85548509
