17
Frame=0 idx=011422 GeodesicLength=0.0 rxn_smarts="[C:1]1([H:8])([H:9])[C:2]([H:10])([H:11])[C:3]1([C@@:4]1([H:13])[C:5]([H:14])([H:15])[C:6]([H:16])([H:17])[O:7]1)[H:12]>>[C:1]1([H:8])([H:9])[C:2]([H:10])([H:11])[C:3]1([C@@:4]([C:5]([H:14])([H:15])[H:17])([O+:7]=[C-:6][H:16])[H:13])[H:12]"
C       -1.75637885      -0.13121511       1.22198412
C       -1.76409994       0.66064231      -0.05359427
C       -0.92502034      -0.57490153       0.05978834
C        0.57243606      -0.47804770       0.11898432
C        1.27612184      -0.15222980      -1.21076499
C        2.25597904       0.84479413       0.27627314
O        1.01628412       0.62512609       0.88662133
H       -1.23466731       0.30314524       2.06420205
H       -2.63132629      -0.71465440       1.47560428
H       -2.64710790       0.62141114      -0.67756895
H       -1.25098285       1.61332557      -0.04083745
H       -1.26742563      -1.45259266      -0.47952927
H        0.99267196      -1.40522163       0.53706534
H        1.81488260      -0.95519867      -1.70541413
H        0.63978290       0.40050937      -1.90612856
H        2.88077457      -0.06021273       0.42722799
H        2.02807608       0.85532041      -0.99391329
17
Frame=1 idx=011422 GeodesicLength=0.06560227041615647 rxn_smarts="[C:1]1([H:8])([H:9])[C:2]([H:10])([H:11])[C:3]1([C@@:4]1([H:13])[C:5]([H:14])([H:15])[C:6]([H:16])([H:17])[O:7]1)[H:12]>>[C:1]1([H:8])([H:9])[C:2]([H:10])([H:11])[C:3]1([C@@:4]([C:5]([H:14])([H:15])[H:17])([O+:7]=[C-:6][H:16])[H:13])[H:12]"
C       -1.75968499      -0.13220878       1.22103813
C       -1.75475775       0.66968293      -0.04826818
C       -0.92767348      -0.57471221       0.05907272
C        0.57087323      -0.49180344       0.11955770
C        1.27862128      -0.16105226      -1.20519547
C        2.23873548       0.85851941       0.27750799
O        1.01964565       0.59993333       0.90436574
H       -1.23760695       0.29059733       2.06888306
H       -2.64151678      -0.70884697       1.46624800
H       -2.63486257       0.64378459      -0.67696547
H       -1.23165976       1.61692457      -0.02679378
H       -1.27712064      -1.44473514      -0.48807011
H        0.98253112      -1.42368142       0.53445374
H        1.84124995      -0.95862025      -1.68242914
H        0.63212035       0.35240508      -1.92046876
H        2.90194900      -0.02166392       0.40217168
H        1.99915685       0.88547714      -1.00510785
17
Frame=2 idx=011422 GeodesicLength=0.1313483097002097 rxn_smarts="[C:1]1([H:8])([H:9])[C:2]([H:10])([H:11])[C:3]1([C@@:4]1([H:13])[C:5]([H:14])([H:15])[C:6]([H:16])([H:17])[O:7]1)[H:12]>>[C:1]1([H:8])([H:9])[C:2]([H:10])([H:11])[C:3]1([C@@:4]([C:5]([H:14])([H:15])[H:17])([O+:7]=[C-:6][H:16])[H:13])[H:12]"
C       -1.76265745      -0.13304250       1.22005609
C       -1.74486469       0.67895035      -0.04269999
C       -0.93032243      -0.57447151       0.05811986
C        0.56921748      -0.50623534       0.11992111
C        1.28129589      -0.17017410      -1.19962434
C        2.22010927       0.87231314       0.27887118
O        1.02354314       0.57341825       0.92194401
H       -1.24009500       0.27784434       2.07344424
H       -2.65145103      -0.70245886       1.45689559
H       -2.62201819       0.66683709      -0.67587991
H       -1.21162482       1.62043456      -0.01237966
H       -1.28708405      -1.43643806      -0.49697502
H        0.97176960      -1.44315910       0.53112698
H        1.86805909      -0.96130093      -1.65894098
H        0.62633131       0.30273604      -1.93439293
H        2.92174595       0.02014266       0.37670350
H        1.96804592       0.91460397      -1.01618973
17
Frame=3 idx=011422 GeodesicLength=0.19729885269241604 rxn_smarts="[C:1]1([H:8])([H:9])[C:2]([H:10])([H:11])[C:3]1([C@@:4]1([H:13])[C:5]([H:14])([H:15])[C:6]([H:16])([H:17])[O:7]1)[H:12]>>[C:1]1([H:8])([H:9])[C:2]([H:10])([H:11])[C:3]1([C@@:4]([C:5]([H:14])([H:15])[H:17])([O+:7]=[C-:6][H:16])[H:13])[H:12]"
C       -1.76528404      -0.13371942       1.21904984
C       -1.73439793       0.68845956      -0.03683751
C       -0.93296110      -0.57414666       0.05689344
C        0.56746087      -0.52135140       0.12003639
C        1.28421298      -0.17965628      -1.19406900
C        2.20000956       0.88614021       0.28037580
O        1.02799923       0.54560294       0.93922336
H       -1.24211020       0.26484789       2.07788671
H       -2.66112460      -0.69547679       1.44756339
H       -2.60854805       0.69060990      -0.67422313
H       -1.19089562       1.62387608       0.00251759
H       -1.29730856      -1.42763079      -0.50630702
H        0.96033837      -1.46363662       0.52705342
H        1.89537862      -0.96328049      -1.63488117
H        0.62258803       0.25145801      -1.94786573
H        2.93986170       0.06535903       0.35080172
H        1.93478073       0.94254483      -1.02721811
17
Frame=4 idx=011422 GeodesicLength=0.2634183389211416 rxn_smarts="[C:1]1([H:8])([H:9])[C:2]([H:10])([H:11])[C:3]1([C@@:4]1([H:13])[C:5]([H:14])([H:15])[C:6]([H:16])([H:17])[O:7]1)[H:12]>>[C:1]1([H:8])([H:9])[C:2]([H:10])([H:11])[C:3]1([C@@:4]([C:5]([H:14])([H:15])[H:17])([O+:7]=[C-:6][H:16])[H:13])[H:12]"
C       -1.76742183      -0.13423853       1.21799621
C       -1.72332136       0.69816620      -0.03073397
C       -0.93553521      -0.57369346       0.05536502
C        0.56557686      -0.53710388       0.11989254
C        1.28731030      -0.18946976      -1.18851937
C        2.17835644       0.89982595       0.28209106
O        1.03302502       0.51655964       0.95604832
H       -1.24349248       0.25162004       2.08214523
H       -2.67031383      -0.68791051       1.43828254
H       -2.59441538       0.71501553      -0.67201611
H       -1.16952047       1.62719862       0.01781519
H       -1.30771087      -1.41823863      -0.51605910
H        0.94818819      -1.48501897       0.52226927
H        1.92299275      -0.96452398      -1.61018730
H        0.62093494       0.19883250      -1.96074708
H        2.95585693       0.11391877       0.32458464
H        1.89949001       0.96906048      -1.03822709
17
Frame=5 idx=011422 GeodesicLength=0.32984726738949405 rxn_smarts="[C:1]1([H:8])([H:9])[C:2]([H:10])([H:11])[C:3]1([C@@:4]1([H:13])[C:5]([H:14])([H:15])[C:6]([H:16])([H:17])[O:7]1)[H:12]>>[C:1]1([H:8])([H:9])[C:2]([H:10])([H:11])[C:3]1([C@@:4]([C:5]([H:14])([H:15])[H:17])([O+:7]=[C-:6][H:16])[H:13])[H:12]"
C       -1.76914082      -0.13459403       1.21694222
C       -1.71173441       0.70807588      -0.02434432
C       -0.93807924      -0.57311326       0.05351213
C        0.56358281      -0.55348103       0.11943740
C        1.29071005      -0.19964077      -1.18302857
C        2.15526441       0.91329918       0.28404475
O        1.03867294       0.48645146       0.97225547
H       -1.24428692       0.23822917       2.08624219
H       -2.67911034      -0.67980590       1.42915228
H       -2.57976640       0.74000966      -0.66916406
H       -1.14763484       1.63048698       0.03357887
H       -1.31831474      -1.40830530      -0.52626756
H        0.93532986      -1.50729264       0.51673284
H        1.95095816      -0.96510599      -1.58492187
H        0.62154297       0.14498564      -1.97298019
H        2.96951719       0.16578430       0.29810591
H        1.86248932       0.99401667      -1.04929750
17
Frame=6 idx=011422 GeodesicLength=0.3965346804403226 rxn_smarts="[C:1]1([H:8])([H:9])[C:2]([H:10])([H:11])[C:3]1([C@@:4]1([H:13])[C:5]([H:14])([H:15])[C:6]([H:16])([H:17])[O:7]1)[H:12]>>[C:1]1([H:8])([H:9])[C:2]([H:10])([H:11])[C:3]1([C@@:4]([C:5]([H:14])([H:15])[H:17])([O+:7]=[C-:6][H:16])[H:13])[H:12]"
C       -1.77028438      -0.13479000       1.21585759
C       -1.69959316       0.71813775      -0.01771558
C       -0.94052002      -0.57234574       0.05131019
C        0.56145823      -0.57040605       0.11866165
C        1.29435059      -0.21013223      -1.17757714
C        2.13068367       0.92633945       0.28629453
O        1.04492291       0.45540459       0.98766932
H       -1.24433285       0.22467980       2.09010524
H       -2.68726931      -0.67117772       1.42018422
H       -2.56455161       0.76550204      -0.66568060
H       -1.12530413       1.63368414       0.04975152
H       -1.32900130      -1.39772293      -0.53693306
H        0.92174659      -1.53029478       0.51049818
H        1.97906117      -0.96496430      -1.55901897
H        0.62441124       0.09011835      -1.98446127
H        2.98032895       0.22075561       0.27152568
H        1.82389339       1.01721204      -1.06047152
17
Frame=7 idx=011422 GeodesicLength=0.46349955947561916 rxn_smarts="[C:1]1([H:8])([H:9])[C:2]([H:10])([H:11])[C:3]1([C@@:4]1([H:13])[C:5]([H:14])([H:15])[C:6]([H:16])([H:17])[O:7]1)[H:12]>>[C:1]1([H:8])([H:9])[C:2]([H:10])([H:11])[C:3]1([C@@:4]([C:5]([H:14])([H:15])[H:17])([O+:7]=[C-:6][H:16])[H:13])[H:12]"
C       -1.77091626      -0.13482245       1.21478745
C       -1.68700780       0.72829698      -0.01084452
C       -0.94286501      -0.57138578       0.04876653
C        0.55921267      -0.58779074       0.11753777
C        1.29830082      -0.22089824      -1.17221350
C        2.10482693       0.93876825       0.28885725
O        1.05176902       0.42368458       1.00213532
H       -1.24369927       0.21107174       2.09374467
H       -2.69484114      -0.66209557       1.41149247
H       -2.54890466       0.79132642      -0.66152432
H       -1.10269488       1.63680550       0.06629565
H       -1.33971875      -1.38653937      -0.54802956
H        0.90746950      -1.55388559       0.50357953
H        2.00721870      -0.96413363      -1.53258527
H        0.62962401       0.03457310      -1.99507205
H        2.98805276       0.27850910       0.24490865
H        1.78417336       1.03851569      -1.07183608
17
Frame=8 idx=011422 GeodesicLength=0.5308256356332359 rxn_smarts="[C:1]1([H:8])([H:9])[C:2]([H:10])([H:11])[C:3]1([C@@:4]1([H:13])[C:5]([H:14])([H:15])[C:6]([H:16])([H:17])[O:7]1)[H:12]>>[C:1]1([H:8])([H:9])[C:2]([H:10])([H:11])[C:3]1([C@@:4]([C:5]([H:14])([H:15])[H:17])([O+:7]=[C-:6][H:16])[H:13])[H:12]"
C       -1.77095731      -0.13472075       1.21370360
C       -1.67397166       0.73852584      -0.00377617
C       -0.94506071      -0.57019996       0.04587980
C        0.55683728      -0.60554680       0.11608452
C        1.30250155      -0.23189566      -1.16691948
C        2.07781912       0.95043120       0.29177530
O        1.05918146       0.39149477       1.01551647
H       -1.24230391       0.19737770       2.09710852
H       -2.70169675      -0.65261903       1.40306002
H       -2.53281455       0.81742254      -0.65672997
H       -1.07988380       1.63985774       0.08315999
H       -1.35035897      -1.37471514      -0.55953632
H        0.89252132      -1.57791059       0.49608230
H        2.03527389      -0.96261066      -1.50554691
H        0.63707928      -0.02147082      -2.00473766
H        2.99234341       0.33868003       0.21829559
H        1.74349034       1.05789957      -1.08341960
17
Frame=9 idx=011422 GeodesicLength=0.598454702661092 rxn_smarts="[C:1]1([H:8])([H:9])[C:2]([H:10])([H:11])[C:3]1([C@@:4]1([H:13])[C:5]([H:14])([H:15])[C:6]([H:16])([H:17])[O:7]1)[H:12]>>[C:1]1([H:8])([H:9])[C:2]([H:10])([H:11])[C:3]1([C@@:4]([C:5]([H:14])([H:15])[H:17])([O+:7]=[C-:6][H:16])[H:13])[H:12]"
C       -1.77044233      -0.13447829       1.21264074
C       -1.66064687       0.74873681       0.00342527
C       -0.94710482      -0.56879482       0.04268612
C        0.55436796      -0.62354079       0.11430072
C        1.30695563      -0.24299733      -1.16173498
C        2.05003700       0.96107715       0.29508798
O        1.06714183       0.35917025       1.02769652
H       -1.24018139       0.18377237       2.10019261
H       -2.70783034      -0.64285048       1.39500769
H       -2.51649758       0.84353442      -0.65135464
H       -1.05708952       1.64283127       0.10017706
H       -1.36085131      -1.36234168      -0.57136748
H        0.87703790      -1.60216583       0.48807527
H        2.06298811      -0.96037256      -1.47811215
H        0.64670416      -0.07753294      -2.01336611
H        2.99306173       0.40062301       0.19192039
H        1.70234985       1.07532946      -1.09527500
17
Frame=10 idx=011422 GeodesicLength=0.6664064585972653 rxn_smarts="[C:1]1([H:8])([H:9])[C:2]([H:10])([H:11])[C:3]1([C@@:4]1([H:13])[C:5]([H:14])([H:15])[C:6]([H:16])([H:17])[O:7]1)[H:12]>>[C:1]1([H:8])([H:9])[C:2]([H:10])([H:11])[C:3]1([C@@:4]([C:5]([H:14])([H:15])[H:17])([O+:7]=[C-:6][H:16])[H:13])[H:12]"
C       -1.76940827      -0.13409895       1.21160851
C       -1.64705980       0.75889070       0.01079631
C       -0.94895060      -0.56715220       0.03919652
C        0.55180358      -0.64165917       0.11217415
C        1.31166977      -0.25418193      -1.15668357
C        2.02168038       0.97061865       0.29878985
O        1.07551554       0.32698345       1.03859805
H       -1.23744060       0.17029662       2.10300175
H       -2.71324256      -0.63284409       1.38733942
H       -2.49992973       0.86955216      -0.64535073
H       -1.03441282       1.64573147       0.11739332
H       -1.37104517      -1.34942619      -0.58353269
H        0.86106848      -1.62645039       0.47958589
H        2.09026257      -0.95750141      -1.45034838
H        0.65848003      -0.13349410      -2.02093066
H        2.99002684       0.46388937       0.16579245
H        1.66098235       1.09084600      -1.10743018
17
Frame=11 idx=011422 GeodesicLength=0.7345384343633032 rxn_smarts="[C:1]1([H:8])([H:9])[C:2]([H:10])([H:11])[C:3]1([C@@:4]1([H:13])[C:5]([H:14])([H:15])[C:6]([H:16])([H:17])[O:7]1)[H:12]>>[C:1]1([H:8])([H:9])[C:2]([H:10])([H:11])[C:3]1([C@@:4]([C:5]([H:14])([H:15])[H:17])([O+:7]=[C-:6][H:16])[H:13])[H:12]"
C       -1.76773035      -0.13361416       1.21053706
C       -1.63324256       0.76886262       0.01814520
C       -0.95052855      -0.56525041       0.03547032
C        0.54915638      -0.65972349       0.10980423
C        1.31642781      -0.26525848      -1.15170295
C        1.99309511       0.97877637       0.30293273
O        1.08426105       0.29516199       1.04822752
H       -1.23394200       0.15697892       2.10544503
H       -2.71771769      -0.62268449       1.38000285
H       -2.48316071       0.89523520      -0.63897444
H       -1.01193088       1.64841707       0.13448255
H       -1.38081365      -1.33595820      -0.59587336
H        0.84474694      -1.65046834       0.47085022
H        2.11666496      -0.95386529      -1.42228445
H        0.67197057      -0.18880125      -2.02725887
H        2.98313460       0.52768039       0.14003824
H        1.61960898       1.10451154      -1.11984188
17
Frame=12 idx=011422 GeodesicLength=0.8029065752189177 rxn_smarts="[C:1]1([H:8])([H:9])[C:2]([H:10])([H:11])[C:3]1([C@@:4]1([H:13])[C:5]([H:14])([H:15])[C:6]([H:16])([H:17])[O:7]1)[H:12]>>[C:1]1([H:8])([H:9])[C:2]([H:10])([H:11])[C:3]1([C@@:4]([C:5]([H:14])([H:15])[H:17])([O+:7]=[C-:6][H:16])[H:13])[H:12]"
C       -1.76568514      -0.13302168       1.20953242
C       -1.61941349       0.77866389       0.02550353
C       -0.95191138      -0.56317650       0.03158359
C        0.54648905      -0.67769204       0.10717856
C        1.32137419      -0.27616922      -1.14689800
C        1.96478222       0.98557831       0.30749262
O        1.09332315       0.26398099       1.05660611
H       -1.23000868       0.14398946       2.10763527
H       -2.72160675      -0.61249329       1.37314934
H       -2.46644158       0.92047729      -0.63220768
H       -0.98982098       1.65104274       0.15140166
H       -1.39016596      -1.32219817      -0.60829815
H        0.82823392      -1.67421882       0.46186953
H        2.14226952      -0.94960905      -1.39426039
H        0.68718468      -0.24322625      -2.03242348
H        2.97271052       0.59148662       0.11469128
H        1.57868669       1.11658573      -1.13255623
17
Frame=13 idx=011422 GeodesicLength=0.8713916818837896 rxn_smarts="[C:1]1([H:8])([H:9])[C:2]([H:10])([H:11])[C:3]1([C@@:4]1([H:13])[C:5]([H:14])([H:15])[C:6]([H:16])([H:17])[O:7]1)[H:12]>>[C:1]1([H:8])([H:9])[C:2]([H:10])([H:11])[C:3]1([C@@:4]([C:5]([H:14])([H:15])[H:17])([O+:7]=[C-:6][H:16])[H:13])[H:12]"
C       -1.76310546      -0.13230996       1.20851212
C       -1.60547332       0.78817776       0.03277043
C       -0.95299753      -0.56090067       0.02755572
C        0.54378577      -0.69541407       0.10434634
C        1.32628877      -0.28681665      -1.14221615
C        1.93686155       0.99088003       0.31253355
O        1.10258205       0.23358395       1.06381695
H       -1.22551181       0.13138427       2.10950458
H       -2.72465170      -0.60225136       1.36664836
H       -2.44962237       0.94507874      -0.62520777
H       -0.96802614       1.65343335       0.16802122
H       -1.39894566      -1.30810268      -0.62076671
H        0.81159220      -1.69741171       0.45273326
H        2.16671983      -0.94461584      -1.36633325
H        0.70376298      -0.29658107      -2.03636315
H        2.95858494       0.65475803       0.08992225
H        1.53815590       1.12710788      -1.14547775
17
Frame=14 idx=011422 GeodesicLength=0.9399891529089371 rxn_smarts="[C:1]1([H:8])([H:9])[C:2]([H:10])([H:11])[C:3]1([C@@:4]1([H:13])[C:5]([H:14])([H:15])[C:6]([H:16])([H:17])[O:7]1)[H:12]>>[C:1]1([H:8])([H:9])[C:2]([H:10])([H:11])[C:3]1([C@@:4]([C:5]([H:14])([H:15])[H:17])([O+:7]=[C-:6][H:16])[H:13])[H:12]"
C       -1.76018110      -0.13151510       1.20750599
C       -1.59156051       0.79745132       0.03996688
C       -0.95383113      -0.55845175       0.02344540
C        0.54110009      -0.71286910       0.10133882
C        1.33125044      -0.29718736      -1.13767437
C        1.90966540       0.99477247       0.31795970
O        1.11199583       0.20405043       1.06991798
H       -1.22066657       0.11912062       2.11109332
H       -2.72709345      -0.59205822       1.36051681
H       -2.43286061       0.96909794      -0.61797672
H       -0.94664176       1.65568328       0.18432442
H       -1.40716067      -1.29374441      -0.63320734
H        0.79495378      -1.72005577       0.44352406
H        2.19011455      -0.93904831      -1.33857966
H        0.72164503      -0.34875755      -2.03910651
H        2.94111175       0.71719283       0.06561603
H        1.49815894       1.13631868      -1.15866479
17
Frame=15 idx=011422 GeodesicLength=1.0087724980568553 rxn_smarts="[C:1]1([H:8])([H:9])[C:2]([H:10])([H:11])[C:3]1([C@@:4]1([H:13])[C:5]([H:14])([H:15])[C:6]([H:16])([H:17])[O:7]1)[H:12]>>[C:1]1([H:8])([H:9])[C:2]([H:10])([H:11])[C:3]1([C@@:4]([C:5]([H:14])([H:15])[H:17])([O+:7]=[C-:6][H:16])[H:13])[H:12]"
C       -1.75691743      -0.13066040       1.20650010
C       -1.57761832       0.80649225       0.04709016
C       -0.95439210      -0.55583438       0.01926269
C        0.53843509      -0.73002636       0.09819472
C        1.33621274      -0.30729271      -1.13327102
C        1.88328131       0.99732832       0.32374724
O        1.12152069       0.17541647       1.07504079
H       -1.21550180       0.10713450       2.11244719
H       -2.72895410      -0.58192422       1.35466494
H       -2.41606005       0.99257618      -0.61058069
H       -0.92558695       1.65779368       0.20035860
H       -1.41478434      -1.27911838      -0.64565611
H        0.77833688      -1.74210157       0.43431152
H        2.21241640      -0.93292746      -1.31102723
H        0.74068654      -0.39982861      -2.04069298
H        2.92032427       0.77865524       0.04175760
H        1.45860116       1.14431747      -1.17214753
17
Frame=16 idx=011422 GeodesicLength=1.0777533304033038 rxn_smarts="[C:1]1([H:8])([H:9])[C:2]([H:10])([H:11])[C:3]1([C@@:4]1([H:13])[C:5]([H:14])([H:15])[C:6]([H:16])([H:17])[O:7]1)[H:12]>>[C:1]1([H:8])([H:9])[C:2]([H:10])([H:11])[C:3]1([C@@:4]([C:5]([H:14])([H:15])[H:17])([O+:7]=[C-:6][H:16])[H:13])[H:12]"
C       -1.75335016      -0.12975815       1.20547734
C       -1.56363118       0.81531619       0.05415191
C       -0.95467308      -0.55304881       0.01502631
C        0.53580965      -0.74686934       0.09493768
C        1.34116801      -0.31714423      -1.12899480
C        1.85780266       0.99861949       0.32985107
O        1.13112582       0.14767875       1.07927586
H       -1.21007394       0.09537532       2.11357428
H       -2.73029153      -0.57184858       1.34902220
H       -2.39918510       1.01556363      -0.60303752
H       -0.90482252       1.65976648       0.21616447
H       -1.42180058      -1.26420995      -0.65811219
H        0.76178490      -1.76352517       0.42512995
H        2.23364590      -0.92629083      -1.28370156
H        0.76079608      -0.44984777      -2.04113173
H        2.89630137       0.83902700       0.01831587
H        1.41939368       1.15119596      -1.18594915
