12
Frame=0 idx=004055 GeodesicLength=0.0 rxn_smarts="[C:1]([C@@:2]1([C:5]#[C:6][H:12])[C:3]([H:10])([H:11])[O:4]1)([H:7])([H:8])[H:9]>>[C:1]([C+:2]1[C:3]([H:10])([H:11])[O:4][C:5]1=[C-:6][H:12])([H:7])([H:8])[H:9]"
C       -1.26877415      -0.90508423      -0.23535489
C       -0.15404971       0.04432177      -0.07174473
C       -0.10311368       1.49946909      -0.02096558
O        1.16215493       1.75914741       0.33613787
C        1.17495328      -0.27856190       0.18806267
C        2.08434164      -1.12152265       0.33061035
H       -0.94746980      -1.79280623      -0.77987060
H       -2.12065741      -0.43215785      -0.72230122
H       -1.58518931      -1.23768514       0.75911592
H       -0.91038029       1.85526762       0.66512429
H       -0.45119798       1.87127778      -1.01970019
H        3.11938243      -1.26166571       0.57088610
12
Frame=1 idx=004055 GeodesicLength=0.06989908883329664 rxn_smarts="[C:1]([C@@:2]1([C:5]#[C:6][H:12])[C:3]([H:10])([H:11])[O:4]1)([H:7])([H:8])[H:9]>>[C:1]([C+:2]1[C:3]([H:10])([H:11])[O:4][C:5]1=[C-:6][H:12])([H:7])([H:8])[H:9]"
C       -1.26712507      -0.90519208      -0.21800705
C       -0.15453727       0.04757561      -0.05261320
C       -0.11636822       1.50330593      -0.01572196
O        1.12745152       1.72388551       0.44267916
C        1.18225616      -0.27623278       0.16301097
C        2.09706656      -1.12304026       0.26236615
H       -0.93457211      -1.82184555      -0.70479347
H       -2.09273082      -0.45591912      -0.76895429
H       -1.62852674      -1.18548723       0.77696391
H       -0.95503493       1.87130496       0.62171379
H       -0.38535944       1.87858365      -1.03460597
H        3.12748036      -1.25693864       0.52796197
12
Frame=2 idx=004055 GeodesicLength=0.13952575592481065 rxn_smarts="[C:1]([C@@:2]1([C:5]#[C:6][H:12])[C:3]([H:10])([H:11])[O:4]1)([H:7])([H:8])[H:9]>>[C:1]([C+:2]1[C:3]([H:10])([H:11])[O:4][C:5]1=[C-:6][H:12])([H:7])([H:8])[H:9]"
C       -1.26534667      -0.90537598      -0.20159582
C       -0.15477705       0.05047448      -0.03616089
C       -0.12806891       1.50671777      -0.01121962
O        1.08974563       1.68470104       0.53793101
C        1.18835244      -0.27212338       0.13904899
C        2.10920252      -1.11957059       0.19370095
H       -0.92298431      -1.84799003      -0.62798490
H       -2.06177105      -0.48338769      -0.81385067
H       -1.67127833      -1.13310582       0.78932683
H       -0.99160297       1.88510762       0.58215898
H       -0.32315783       1.88771568      -1.04202093
H        3.13168652      -1.25316309       0.49066608
12
Frame=3 idx=004055 GeodesicLength=0.2085776221119905 rxn_smarts="[C:1]([C@@:2]1([C:5]#[C:6][H:12])[C:3]([H:10])([H:11])[O:4]1)([H:7])([H:8])[H:9]>>[C:1]([C+:2]1[C:3]([H:10])([H:11])[O:4][C:5]1=[C-:6][H:12])([H:7])([H:8])[H:9]"
C       -1.26405592      -0.90587532      -0.18705617
C       -0.15485934       0.05271520      -0.02338967
C       -0.13821997       1.50967930      -0.00736547
O        1.05182372       1.64247188       0.62043354
C        1.19331375      -0.26774219       0.11687528
C        2.11886702      -1.11489657       0.13589153
H       -0.91409354      -1.87148985      -0.55123348
H       -2.02898870      -0.51368668      -0.85690657
H       -1.71386348      -1.08086490       0.79531391
H       -1.02043063       1.89704878       0.54818234
H       -0.26599682       1.89918672      -1.04293154
H        3.13650390      -1.24654637       0.45218632
12
Frame=4 idx=004055 GeodesicLength=0.2773085850911505 rxn_smarts="[C:1]([C@@:2]1([C:5]#[C:6][H:12])[C:3]([H:10])([H:11])[O:4]1)([H:7])([H:8])[H:9]>>[C:1]([C+:2]1[C:3]([H:10])([H:11])[O:4][C:5]1=[C-:6][H:12])([H:7])([H:8])[H:9]"
C       -1.26356479      -0.90654243      -0.17441326
C       -0.15501167       0.05406262      -0.01402631
C       -0.14675782       1.51179149      -0.00410538
O        1.01460514       1.59744978       0.69168901
C        1.19685840      -0.26422336       0.09720950
C        2.12550656      -1.11142829       0.09061214
H       -0.90873117      -1.89187194      -0.47543298
H       -1.99520840      -0.54583927      -0.89735455
H       -1.75613385      -1.02896646       0.79503985
H       -1.04268200       1.90731746       0.51919746
H       -0.21277010       1.91216522      -1.03881031
H        3.14388969      -1.23391483       0.41039483
12
Frame=5 idx=004055 GeodesicLength=0.34593610085885146 rxn_smarts="[C:1]([C@@:2]1([C:5]#[C:6][H:12])[C:3]([H:10])([H:11])[O:4]1)([H:7])([H:8])[H:9]>>[C:1]([C+:2]1[C:3]([H:10])([H:11])[O:4][C:5]1=[C-:6][H:12])([H:7])([H:8])[H:9]"
C       -1.26371743      -0.90724529      -0.16285820
C       -0.15541198       0.05492220      -0.00626082
C       -0.15411236       1.51348866      -0.00114509
O        0.97786545       1.55150590       0.75399656
C        1.19922613      -0.26113289       0.08168958
C        2.13051688      -1.10814803       0.05089536
H       -0.90557491      -1.90886273      -0.39907182
H       -1.95949496      -0.58090158      -0.93605303
H       -1.79870456      -0.97754726       0.78883279
H       -1.06024854       1.91681902       0.49402827
H       -0.16252743       1.92577177      -1.03080368
H        3.15218370      -1.21866979       0.36675009
12
Frame=6 idx=004055 GeodesicLength=0.41439871521453236 rxn_smarts="[C:1]([C@@:2]1([C:5]#[C:6][H:12])[C:3]([H:10])([H:11])[O:4]1)([H:7])([H:8])[H:9]>>[C:1]([C+:2]1[C:3]([H:10])([H:11])[O:4][C:5]1=[C-:6][H:12])([H:7])([H:8])[H:9]"
C       -1.26456115      -0.90799614      -0.15238478
C       -0.15605355       0.05527149      -0.00003671
C       -0.16040703       1.51475752       0.00152490
O        0.94221533       1.50510018       0.80813774
C        1.20073921      -0.25879621       0.06904049
C        2.13401345      -1.10591258       0.01749009
H       -0.90510542      -1.92235007      -0.32313645
H       -1.92257891      -0.61828494      -0.97211217
H       -1.84088813      -0.92712657       0.77701774
H       -1.07381108       1.92570517       0.47254481
H       -0.11515148       1.93979557      -1.01958990
H        3.16158878      -1.20016342       0.32150424
12
Frame=7 idx=004055 GeodesicLength=0.48251948087744434 rxn_smarts="[C:1]([C@@:2]1([C:5]#[C:6][H:12])[C:3]([H:10])([H:11])[O:4]1)([H:7])([H:8])[H:9]>>[C:1]([C+:2]1[C:3]([H:10])([H:11])[O:4][C:5]1=[C-:6][H:12])([H:7])([H:8])[H:9]"
C       -1.26476121      -0.90899539      -0.14284090
C       -0.15618386       0.05589687       0.00235971
C       -0.16656751       1.51633869       0.00345402
O        0.90925504       1.45937442       0.85178235
C        1.20270384      -0.25527842       0.05249950
C        2.13764370      -1.10265868      -0.01611499
H       -0.90561327      -1.93190755      -0.25181924
H       -1.88773876      -0.65647063      -1.00158811
H       -1.87714875      -0.88060836       0.76266332
H       -1.08405327       1.93327512       0.45682180
H       -0.07425594       1.95608204      -1.00588125
H        3.16671999      -1.18504812       0.28866379
12
Frame=8 idx=004055 GeodesicLength=0.5507360721797546 rxn_smarts="[C:1]([C@@:2]1([C:5]#[C:6][H:12])[C:3]([H:10])([H:11])[O:4]1)([H:7])([H:8])[H:9]>>[C:1]([C+:2]1[C:3]([H:10])([H:11])[O:4][C:5]1=[C-:6][H:12])([H:7])([H:8])[H:9]"
C       -1.26527949      -0.91005388      -0.13382243
C       -0.15656688       0.05633472       0.00404032
C       -0.17217163       1.51778322       0.00530507
O        0.87731244       1.41417714       0.88981511
C        1.20405383      -0.25202164       0.03841865
C        2.14058895      -1.09934682      -0.04789928
H       -0.90770710      -1.93823776      -0.18015875
H       -1.85137744      -0.69717395      -1.02874962
H       -1.91309046      -0.83515070       0.74361118
H       -1.09208661       1.94062595       0.44377658
H       -0.03531189       1.97250924      -0.98994343
H        3.17163628      -1.16944553       0.25560660
12
Frame=9 idx=004055 GeodesicLength=0.618837892108828 rxn_smarts="[C:1]([C@@:2]1([C:5]#[C:6][H:12])[C:3]([H:10])([H:11])[O:4]1)([H:7])([H:8])[H:9]>>[C:1]([C+:2]1[C:3]([H:10])([H:11])[O:4][C:5]1=[C-:6][H:12])([H:7])([H:8])[H:9]"
C       -1.26541016      -0.91125951      -0.12531145
C       -0.15676930       0.05703664       0.00352306
C       -0.17776257       1.51951720       0.00672867
O        0.84736229       1.37003544       0.92100572
C        1.20553575      -0.24791748       0.02282169
C        2.14362752      -1.09494867      -0.08067985
H       -0.91027417      -1.94121624      -0.11109691
H       -1.81591861      -0.73911694      -1.05131181
H       -1.94540814      -0.79263858       0.72211106
H       -1.09837647       1.94735989       0.43443903
H       -0.00033343       1.99018816      -0.97231142
H        3.17372730      -1.15703989       0.23008219
12
Frame=10 idx=004055 GeodesicLength=0.6870256690245364 rxn_smarts="[C:1]([C@@:2]1([C:5]#[C:6][H:12])[C:3]([H:10])([H:11])[O:4]1)([H:7])([H:8])[H:9]>>[C:1]([C+:2]1[C:3]([H:10])([H:11])[O:4][C:5]1=[C-:6][H:12])([H:7])([H:8])[H:9]"
C       -1.26624623      -0.91240891      -0.11736807
C       -0.15738283       0.05733394       0.00273022
C       -0.18264941       1.52088309       0.00810624
O        0.81806457       1.32621149       0.94873956
C        1.20627594      -0.24483463       0.01034644
C        2.14553321      -1.09187369      -0.10892077
H       -0.91519317      -1.94107917      -0.04179317
H       -1.77928517      -0.78307016      -1.07166316
H       -1.97791421      -0.75097755       0.69595339
H       -1.10303093       1.95407637       0.42646824
H        0.03434768       2.00729349      -0.95286525
H        3.17748056      -1.14155428       0.20026634
12
Frame=11 idx=004055 GeodesicLength=0.7551951779771555 rxn_smarts="[C:1]([C@@:2]1([C:5]#[C:6][H:12])[C:3]([H:10])([H:11])[O:4]1)([H:7])([H:8])[H:9]>>[C:1]([C+:2]1[C:3]([H:10])([H:11])[O:4][C:5]1=[C-:6][H:12])([H:7])([H:8])[H:9]"
C       -1.26724235      -0.91357927      -0.10991538
C       -0.15810825       0.05755844       0.00080582
C       -0.18722488       1.52220273       0.00921937
O        0.78991158       1.28311985       0.97227661
C        1.20677365      -0.24192488      -0.00148828
C        2.14703377      -1.08904776      -0.13546818
H       -0.92155637      -1.93784306       0.02600704
H       -1.74293392      -0.82821129      -1.08843332
H       -2.00847885      -0.71135658       0.66670490
H       -1.10638731       1.96051833       0.42047421
H        0.06740044       2.02449769      -0.93191549
H        3.18081250      -1.12593421       0.17173270
12
Frame=12 idx=004055 GeodesicLength=0.8233653850424754 rxn_smarts="[C:1]([C@@:2]1([C:5]#[C:6][H:12])[C:3]([H:10])([H:11])[O:4]1)([H:7])([H:8])[H:9]>>[C:1]([C+:2]1[C:3]([H:10])([H:11])[O:4][C:5]1=[C-:6][H:12])([H:7])([H:8])[H:9]"
C       -1.26828701      -0.91476095      -0.10286269
C       -0.15891289       0.05780654      -0.00219875
C       -0.19161671       1.52356387       0.01007786
O        0.76290767       1.24090906       0.99194816
C        1.20712397      -0.23898395      -0.01307419
C        2.14828157      -1.08616356      -0.16125411
H       -0.92905432      -1.93157650       0.09227073
H       -1.70688060      -0.87447127      -1.10162923
H       -2.03698774      -0.67389787       0.63470270
H       -1.10870432       1.96668767       0.41638591
H        0.09878422       2.04183827      -0.90956787
H        3.18334616      -1.11095131       0.14520147
12
Frame=13 idx=004055 GeodesicLength=0.8915892303313769 rxn_smarts="[C:1]([C@@:2]1([C:5]#[C:6][H:12])[C:3]([H:10])([H:11])[O:4]1)([H:7])([H:8])[H:9]>>[C:1]([C+:2]1[C:3]([H:10])([H:11])[O:4][C:5]1=[C-:6][H:12])([H:7])([H:8])[H:9]"
C       -1.26938945      -0.91594417      -0.09614154
C       -0.15981548       0.05807686      -0.00612245
C       -0.19585802       1.52496118       0.01072281
O        0.73693421       1.19957471       1.00825582
C        1.20732697      -0.23603158      -0.02436333
C        2.14931379      -1.08315914      -0.18656490
H       -0.93772294      -1.92233935       0.15726698
H       -1.67091446      -0.92189868      -1.11138847
H       -2.06367992      -0.63845748       0.59991049
H       -1.11015289       1.97259884       0.41398874
H        0.12877436       2.05921315      -0.88582325
H        3.18518381      -1.09659435       0.12025910
12
Frame=14 idx=004055 GeodesicLength=0.959912250382288 rxn_smarts="[C:1]([C@@:2]1([C:5]#[C:6][H:12])[C:3]([H:10])([H:11])[O:4]1)([H:7])([H:8])[H:9]>>[C:1]([C+:2]1[C:3]([H:10])([H:11])[O:4][C:5]1=[C-:6][H:12])([H:7])([H:8])[H:9]"
C       -1.27064121      -0.91707976      -0.08973317
C       -0.16085747       0.05832596      -0.01067771
C       -0.19991926       1.52635013       0.01122933
O        0.71186524       1.15909087       1.02173043
C        1.20733945      -0.23321520      -0.03505743
C        2.15002657      -1.08025735      -0.21110396
H       -0.94781786      -1.91007180       0.22137526
H       -1.63462298      -0.97065078      -1.11788761
H       -2.08894844      -0.60482629       0.56197990
H       -1.11080680       1.97828605       0.41307415
H        0.15769508       2.07640269      -0.86064875
H        3.18668769      -1.08235453       0.09571956
12
Frame=15 idx=004055 GeodesicLength=1.0282090887288282 rxn_smarts="[C:1]([C@@:2]1([C:5]#[C:6][H:12])[C:3]([H:10])([H:11])[O:4]1)([H:7])([H:8])[H:9]>>[C:1]([C+:2]1[C:3]([H:10])([H:11])[O:4][C:5]1=[C-:6][H:12])([H:7])([H:8])[H:9]"
C       -1.27182940      -0.91817496      -0.08363648
C       -0.16192586       0.05868421      -0.01620067
C       -0.20396359       1.52785285       0.01139669
O        0.68787749       1.11962496       1.03213080
C        1.20732431      -0.23018126      -0.04604441
C        2.15063301      -1.07712234      -0.23549315
H       -0.95865099      -1.89509429       0.28319700
H       -1.59915832      -1.01968780      -1.12068448
H       -2.11176335      -0.57375500       0.52236062
H       -1.11086773       1.98364731       0.41361795
H        0.18506765       2.09356370      -0.83438322
H        3.18725679      -1.06935738       0.07373936
12
Frame=16 idx=004055 GeodesicLength=1.0965617169319661 rxn_smarts="[C:1]([C@@:2]1([C:5]#[C:6][H:12])[C:3]([H:10])([H:11])[O:4]1)([H:7])([H:8])[H:9]>>[C:1]([C+:2]1[C:3]([H:10])([H:11])[O:4][C:5]1=[C-:6][H:12])([H:7])([H:8])[H:9]"
C       -1.27322207      -0.91918283      -0.07786855
C       -0.16311911       0.05895801      -0.02219221
C       -0.20781098       1.52928957       0.01136153
O        0.66466291       1.08097909       1.04025797
C        1.20713919      -0.22741753      -0.05638584
C        2.15096320      -1.07432318      -0.25866297
H       -0.97100878      -1.87735128       0.34353617
H       -1.56385154      -1.06930784      -1.12016567
H       -2.13296085      -0.54463814       0.48018527
H       -1.11027508       1.98873891       0.41521980
H        0.21162864       2.11019796      -0.80688424
H        3.18785446      -1.05594273       0.05159875
