15
Frame=0 idx=010617 GeodesicLength=0.0 rxn_smarts="[O:1]=[C:2]1[C:3]([H:8])([H:9])[C:4]([H:10])([H:11])[C@@:5]2([H:12])[C:6]([H:13])([H:14])[C@@:7]12[H:15]>>[O:1]([C:2]1=[C:3]([H:8])[C:4]([H:10])([H:11])[C@@:5]2([H:12])[C:6]([H:13])([H:14])[C@@:7]12[H:15])[H:9]"
O       -0.59002041       2.47845149       0.11962437
C       -0.23889399       1.25583667      -0.01749895
C       -1.32070698       0.39043084      -0.30610789
C       -0.95059152      -0.99018764       0.21821897
C        0.54687224      -0.86971610       0.51978236
C        1.44228623      -0.49403002      -0.59716936
C        1.00111903       0.59353856       0.35608799
H       -1.78926834       0.50768840      -1.28003248
H       -1.67213036       1.78079523       0.12834589
H       -1.49515054      -1.24342827       1.13093608
H       -1.13776686      -1.79273832      -0.49982032
H        0.96696356      -1.43857834       1.33870243
H        1.04139504      -0.47368607      -1.60317060
H        2.48453181      -0.77363007      -0.52408969
H        1.71136104       1.06925363       1.01619125
15
Frame=1 idx=010617 GeodesicLength=0.03858437838368581 rxn_smarts="[O:1]=[C:2]1[C:3]([H:8])([H:9])[C:4]([H:10])([H:11])[C@@:5]2([H:12])[C:6]([H:13])([H:14])[C@@:7]12[H:15]>>[O:1]([C:2]1=[C:3]([H:8])[C:4]([H:10])([H:11])[C@@:5]2([H:12])[C:6]([H:13])([H:14])[C@@:7]12[H:15])[H:9]"
O       -0.59041360       2.47790133       0.13054819
C       -0.23495147       1.25835385      -0.02672746
C       -1.31938677       0.39181248      -0.30820640
C       -0.94940051      -0.98783952       0.21848451
C        0.54783632      -0.87003738       0.51938462
C        1.44434598      -0.49472063      -0.59767159
C        1.00135455       0.59140979       0.35615691
H       -1.78907640       0.50316180      -1.28231387
H       -1.68452617       1.78217075       0.12966132
H       -1.49426677      -1.23683833       1.13227686
H       -1.13947026      -1.79185568      -0.49716309
H        0.96691985      -1.44129403       1.33716455
H        1.04421709      -0.47585078      -1.60407190
H        2.48638665      -0.77509893      -0.52391894
H        1.71043151       1.06872528       1.01639630
15
Frame=2 idx=010617 GeodesicLength=0.07717886811747829 rxn_smarts="[O:1]=[C:2]1[C:3]([H:8])([H:9])[C:4]([H:10])([H:11])[C@@:5]2([H:12])[C:6]([H:13])([H:14])[C@@:7]12[H:15]>>[O:1]([C:2]1=[C:3]([H:8])[C:4]([H:10])([H:11])[C@@:5]2([H:12])[C:6]([H:13])([H:14])[C@@:7]12[H:15])[H:9]"
O       -0.59081048       2.47706259       0.14160298
C       -0.23096567       1.26090658      -0.03583667
C       -1.31801482       0.39325754      -0.31028760
C       -0.94821380      -0.98543981       0.21878641
C        0.54880627      -0.87035931       0.51898127
C        1.44638491      -0.49539918      -0.59819630
C        1.00159627       0.58928865       0.35621732
H       -1.78868875       0.49860131      -1.28462626
H       -1.69715866       1.78354940       0.13074941
H       -1.49336431      -1.23015959       1.13365619
H       -1.14122017      -1.79091253      -0.49444566
H        0.96688632      -1.44401840       1.33560271
H        1.04699532      -0.47797137      -1.60498329
H        2.48821939      -0.77656424      -0.52380156
H        1.70954820       1.06815836       1.01658103
15
Frame=3 idx=010617 GeodesicLength=0.11577515789109391 rxn_smarts="[O:1]=[C:2]1[C:3]([H:8])([H:9])[C:4]([H:10])([H:11])[C@@:5]2([H:12])[C:6]([H:13])([H:14])[C@@:7]12[H:15]>>[O:1]([C:2]1=[C:3]([H:8])[C:4]([H:10])([H:11])[C@@:5]2([H:12])[C:6]([H:13])([H:14])[C@@:7]12[H:15])[H:9]"
O       -0.59121581       2.47593602       0.15273615
C       -0.22693298       1.26349347      -0.04481339
C       -1.31659362       0.39476895      -0.31233919
C       -0.94703007      -0.98299015       0.21912305
C        0.54978273      -0.87068453       0.51857328
C        1.44840352      -0.49606529      -0.59874176
C        1.00184843       0.58717214       0.35627644
H       -1.78811477       0.49401418      -1.28695229
H       -1.71002830       1.78493685       0.13161661
H       -1.49244162      -1.22340561       1.13506887
H       -1.14301363      -1.78990377      -0.49167716
H        0.96686252      -1.44675600       1.33401701
H        1.04972880      -0.48003972      -1.60590259
H        2.49003022      -0.77802744      -0.52373797
H        1.70871458       1.06755090       1.01675293
15
Frame=4 idx=010617 GeodesicLength=0.15436560079935696 rxn_smarts="[O:1]=[C:2]1[C:3]([H:8])([H:9])[C:4]([H:10])([H:11])[C@@:5]2([H:12])[C:6]([H:13])([H:14])[C@@:7]12[H:15]>>[O:1]([C:2]1=[C:3]([H:8])[C:4]([H:10])([H:11])[C@@:5]2([H:12])[C:6]([H:13])([H:14])[C@@:7]12[H:15])[H:9]"
O       -0.59163311       2.47452472       0.16389115
C       -0.22284941       1.26611307      -0.05364884
C       -1.31512581       0.39634947      -0.31435014
C       -0.94584788      -0.98049269       0.21949136
C        0.55076605      -0.87101538       0.51816187
C        1.45040322      -0.49671928      -0.59930551
C        1.00211488       0.58505762       0.35634060
H       -1.78736822       0.48940981      -1.28927373
H       -1.72313389       1.78633667       0.13227985
H       -1.49149771      -1.21659111       1.13650814
H       -1.14484663      -1.78882499      -0.48886872
H        0.96684695      -1.44950995       1.33240904
H        1.05241853      -0.48204995      -1.60682753
H        2.49182018      -0.77949045      -0.52372638
H        1.70793286       1.06690242       1.01691884
15
Frame=5 idx=010617 GeodesicLength=0.19294421439055787 rxn_smarts="[O:1]=[C:2]1[C:3]([H:8])([H:9])[C:4]([H:10])([H:11])[C@@:5]2([H:12])[C:6]([H:13])([H:14])[C@@:7]12[H:15]>>[O:1]([C:2]1=[C:3]([H:8])[C:4]([H:10])([H:11])[C@@:5]2([H:12])[C:6]([H:13])([H:14])[C@@:7]12[H:15])[H:9]"
O       -0.59206550       2.47284236       0.17500615
C       -0.21871036       1.26876226      -0.06233895
C       -1.31361431       0.39800114      -0.31630998
C       -0.94466584      -0.97794970       0.21988666
C        0.55175620      -0.87135383       0.51774815
C        1.45238636      -0.49736217      -0.59988412
C        1.00239908       0.58294227       0.35641540
H       -1.78646720       0.48479911      -1.29156992
H       -1.73647083       1.78774484       0.13276641
H       -1.49053232      -1.20973156       1.13796472
H       -1.14671456      -1.78767134      -0.48603324
H        0.96683699      -1.45228223       1.33078088
H        1.05506741      -0.48399841      -1.60775493
H        2.49359120      -0.78095554      -0.52376259
H        1.70720369       1.06621281       1.01708538
15
Frame=6 idx=010617 GeodesicLength=0.23150057673254776 rxn_smarts="[O:1]=[C:2]1[C:3]([H:8])([H:9])[C:4]([H:10])([H:11])[C@@:5]2([H:12])[C:6]([H:13])([H:14])[C@@:7]12[H:15]>>[O:1]([C:2]1=[C:3]([H:8])[C:4]([H:10])([H:11])[C@@:5]2([H:12])[C:6]([H:13])([H:14])[C@@:7]12[H:15])[H:9]"
O       -0.59251272       2.47089796       0.18600984
C       -0.21451106       1.27143954      -0.07088338
C       -1.31206250       0.39972654      -0.31820927
C       -0.94348253      -0.97536493       0.22030296
C        0.55275285      -0.87170189       0.51733398
C        1.45435612      -0.49799513      -0.60047352
C        1.00270383       0.58082437       0.35650633
H       -1.78543513       0.48019580      -1.29382019
H       -1.75003276       1.78916074       0.13311692
H       -1.48954579      -1.20284576       1.13942873
H       -1.14861175      -1.78644012      -0.48318676
H        0.96682915      -1.45507456       1.32913689
H        1.05768012      -0.48588262      -1.60868244
H        2.49534620      -0.78242445      -0.52384020
H        1.70652599       1.06548452       1.01726011
15
Frame=7 idx=010617 GeodesicLength=0.2699937605481075 rxn_smarts="[O:1]=[C:2]1[C:3]([H:8])([H:9])[C:4]([H:10])([H:11])[C@@:5]2([H:12])[C:6]([H:13])([H:14])[C@@:7]12[H:15]>>[O:1]([C:2]1=[C:3]([H:8])[C:4]([H:10])([H:11])[C@@:5]2([H:12])[C:6]([H:13])([H:14])[C@@:7]12[H:15])[H:9]"
O       -0.59298493       2.46868098       0.19687615
C       -0.21024384       1.27414380      -0.07928266
C       -1.31047211       0.40152880      -0.32003858
C       -0.94229867      -0.97273779       0.22073794
C        0.55375575      -0.87205886       0.51691999
C        1.45631504      -0.49861802      -0.60107256
C        1.00303420       0.57870271       0.35661621
H       -1.78428775       0.47560444      -1.29600791
H       -1.76381147       1.79058630       0.13333295
H       -1.48854125      -1.19594314       1.14089547
H       -1.15053768      -1.78512559      -0.48033737
H        0.96682082      -1.45788434       1.32747968
H        1.06025900      -0.48769854      -1.60960853
H        2.49708802      -0.78389781      -0.52395784
H        1.70590487       1.06471706       1.01744707
15
Frame=8 idx=010617 GeodesicLength=0.30856330861121045 rxn_smarts="[O:1]=[C:2]1[C:3]([H:8])([H:9])[C:4]([H:10])([H:11])[C@@:5]2([H:12])[C:6]([H:13])([H:14])[C@@:7]12[H:15]>>[O:1]([C:2]1=[C:3]([H:8])[C:4]([H:10])([H:11])[C@@:5]2([H:12])[C:6]([H:13])([H:14])[C@@:7]12[H:15])[H:9]"
O       -0.59344036       2.46628752       0.20751559
C       -0.20591459       1.27686427      -0.08753851
C       -1.30884579       0.40340563      -0.32179242
C       -0.94110695      -0.97006964       0.22118401
C        0.55476504      -0.87242964       0.51650248
C        1.45826651      -0.49923440      -0.60167373
C        1.00338544       0.57657121       0.35675123
H       -1.78305305       0.47104083      -1.29811154
H       -1.77783045       1.79196831       0.13347778
H       -1.48750864      -1.18902948       1.14235018
H       -1.15247830      -1.78372263      -0.47749441
H        0.96681038      -1.46072437       1.32579653
H        1.06281339      -0.48945232      -1.61052399
H        2.49881766      -0.78537963      -0.52410316
H        1.70531970       1.06390434       1.01765995
15
Frame=9 idx=010617 GeodesicLength=0.3469802658423091 rxn_smarts="[O:1]=[C:2]1[C:3]([H:8])([H:9])[C:4]([H:10])([H:11])[C@@:5]2([H:12])[C:6]([H:13])([H:14])[C@@:7]12[H:15]>>[O:1]([C:2]1=[C:3]([H:8])[C:4]([H:10])([H:11])[C@@:5]2([H:12])[C:6]([H:13])([H:14])[C@@:7]12[H:15])[H:9]"
O       -0.59395168       2.46361228       0.21793200
C       -0.20150465       1.27961070      -0.09568199
C       -1.30718216       0.40536546      -0.32348171
C       -0.93991155      -0.96736105       0.22163197
C        0.55577830      -0.87280619       0.51608995
C        1.46021600      -0.49984882      -0.60227342
C        1.00376496       0.57443691       0.35690328
H       -1.78174107       0.46652282      -1.30013004
H       -1.79203875       1.79335339       0.13360236
H       -1.48645955      -1.18211431       1.14378670
H       -1.15444024      -1.78223474      -0.47467297
H        0.96678805      -1.46357354       1.32411437
H        1.06535202      -0.49115274      -1.61143271
H        2.50054168      -0.78687539      -0.52426611
H        1.70478864       1.06306522       1.01787831
15
Frame=10 idx=010617 GeodesicLength=0.3853884991014761 rxn_smarts="[O:1]=[C:2]1[C:3]([H:8])([H:9])[C:4]([H:10])([H:11])[C@@:5]2([H:12])[C:6]([H:13])([H:14])[C@@:7]12[H:15]>>[O:1]([C:2]1=[C:3]([H:8])[C:4]([H:10])([H:11])[C@@:5]2([H:12])[C:6]([H:13])([H:14])[C@@:7]12[H:15])[H:9]"
O       -0.59446788       2.46073998       0.22806135
C       -0.19701941       1.28237636      -0.10369917
C       -1.30548323       0.40740259      -0.32509999
C       -0.93871137      -0.96461757       0.22208104
C        0.55679547      -0.87319428       0.51568042
C        1.46216471      -0.50045933      -0.60287046
C        1.00417142       0.57229580       0.35708128
H       -1.78036573       0.46205249      -1.30205705
H       -1.80646662       1.79469943       0.13373378
H       -1.48539269      -1.17520606       1.14520327
H       -1.15641967      -1.78066297      -0.47187892
H        0.96675304      -1.46644447       1.32242523
H        1.06787739      -0.49279493      -1.61233304
H        2.50226085      -0.78838281      -0.52444710
H        1.70430371       1.06219575       1.01811936
15
Frame=11 idx=010617 GeodesicLength=0.42380866682315366 rxn_smarts="[O:1]=[C:2]1[C:3]([H:8])([H:9])[C:4]([H:10])([H:11])[C@@:5]2([H:12])[C:6]([H:13])([H:14])[C@@:7]12[H:15]>>[O:1]([C:2]1=[C:3]([H:8])[C:4]([H:10])([H:11])[C@@:5]2([H:12])[C:6]([H:13])([H:14])[C@@:7]12[H:15])[H:9]"
O       -0.59499281       2.45770869       0.23789896
C       -0.19245697       1.28515812      -0.11159930
C       -1.30374796       0.40951625      -0.32665345
C       -0.93750557      -0.96183673       0.22252901
C        0.55781661      -0.87359356       0.51527272
C        1.46411547      -0.50106964      -0.60346392
C        1.00460575       0.57014645       0.35728157
H       -1.77892733       0.45763470      -1.30389307
H       -1.82112001       1.79597308       0.13389763
H       -1.48430877      -1.16829577       1.14659683
H       -1.15841656      -1.77900520      -0.46911129
H        0.96670297      -1.46933627       1.32072906
H        1.07039560      -0.49438358      -1.61322448
H        2.50397688      -0.78990989      -0.52464213
H        1.70386272       1.06129336       1.01838188
15
Frame=12 idx=010617 GeodesicLength=0.4622436647227476 rxn_smarts="[O:1]=[C:2]1[C:3]([H:8])([H:9])[C:4]([H:10])([H:11])[C@@:5]2([H:12])[C:6]([H:13])([H:14])[C@@:7]12[H:15]>>[O:1]([C:2]1=[C:3]([H:8])[C:4]([H:10])([H:11])[C@@:5]2([H:12])[C:6]([H:13])([H:14])[C@@:7]12[H:15])[H:9]"
O       -0.59552502       2.45449850       0.24745351
C       -0.18781613       1.28795811      -0.11938767
C       -1.30197418       0.41170748      -0.32815197
C       -0.93629377      -0.95901668       0.22297615
C        0.55884092      -0.87400154       0.51486610
C        1.46606952      -0.50168016      -0.60405300
C        1.00506844       0.56799114       0.35750073
H       -1.77741982       0.45327460      -1.30565236
H       -1.83601161       1.79717476       0.13411386
H       -1.48320794      -1.16137434       1.14797072
H       -1.16043201      -1.77726457      -0.46636533
H        0.96663661      -1.47224749       1.31902379
H        1.07290947      -0.49592302      -1.61410733
H        2.50568901      -0.79146065      -0.52484608
H        1.70346649       1.06036386       1.01865889
15
Frame=13 idx=010617 GeodesicLength=0.500672692729957 rxn_smarts="[O:1]=[C:2]1[C:3]([H:8])([H:9])[C:4]([H:10])([H:11])[C@@:5]2([H:12])[C:6]([H:13])([H:14])[C@@:7]12[H:15]>>[O:1]([C:2]1=[C:3]([H:8])[C:4]([H:10])([H:11])[C@@:5]2([H:12])[C:6]([H:13])([H:14])[C@@:7]12[H:15])[H:9]"
O       -0.59607398       2.45114028       0.25670288
C       -0.18309321       1.29077494      -0.12707304
C       -1.30016127       0.41397706      -0.32960018
C       -0.93507698      -0.95615407       0.22341906
C        0.55986792      -0.87441781       0.51445935
C        1.46803082      -0.50229284      -0.60463672
C        1.00556105       0.56582873       0.35773751
H       -1.77585055       0.44897692      -1.30733071
H       -1.85113329       1.79827180       0.13441471
H       -1.48209175      -1.15443458       1.14932111
H       -1.16246753      -1.77543742      -0.46364216
H        0.96655103      -1.47518118       1.31730691
H        1.07542460      -0.49741913      -1.61498108
H        2.50740144      -0.79303758      -0.52505354
H        1.70311170       1.05940488       1.01895591
15
Frame=14 idx=010617 GeodesicLength=0.5391031433198537 rxn_smarts="[O:1]=[C:2]1[C:3]([H:8])([H:9])[C:4]([H:10])([H:11])[C@@:5]2([H:12])[C:6]([H:13])([H:14])[C@@:7]12[H:15]>>[O:1]([C:2]1=[C:3]([H:8])[C:4]([H:10])([H:11])[C@@:5]2([H:12])[C:6]([H:13])([H:14])[C@@:7]12[H:15])[H:9]"
O       -0.59663734       2.44763000       0.26564840
C       -0.17828706       1.29361017      -0.13465664
C       -1.29830695       0.41632542      -0.33100629
C       -0.93385564      -0.95324709       0.22386054
C        0.56089755      -0.87484199       0.51404979
C        1.47000037      -0.50290618      -0.60521690
C        1.00608439       0.56366021       0.35799086
H       -1.77421049       0.44474532      -1.30894207
H       -1.86649670       1.79925890       0.13481093
H       -1.48095724      -1.14746419       1.15065709
H       -1.16452688      -1.77352762      -0.46093283
H        0.96644556      -1.47814345       1.31557101
H        1.07794169      -0.49887726      -1.61584795
H        2.50911529      -0.79463736      -0.52526519
H        1.70279345       1.05841512       1.01927924
15
Frame=15 idx=010617 GeodesicLength=0.5775429537320067 rxn_smarts="[O:1]=[C:2]1[C:3]([H:8])([H:9])[C:4]([H:10])([H:11])[C@@:5]2([H:12])[C:6]([H:13])([H:14])[C@@:7]12[H:15]>>[O:1]([C:2]1=[C:3]([H:8])[C:4]([H:10])([H:11])[C@@:5]2([H:12])[C:6]([H:13])([H:14])[C@@:7]12[H:15])[H:9]"
O       -0.59721323       2.44398750       0.27429316
C       -0.17339626       1.29646327      -0.14214446
C       -1.29641056       0.41875232      -0.33237610
C       -0.93262973      -0.95029415       0.22429956
C        0.56192948      -0.87527408       0.51363727
C        1.47197906      -0.50352290      -0.60579306
C        1.00663915       0.56148517       0.35825870
H       -1.77250024       0.44058329      -1.31049040
H       -1.88210729       1.80011434       0.13531424
H       -1.47980359      -1.14045559       1.15197882
H       -1.16661070      -1.77153494      -0.45823578
H        0.96632026      -1.48113363       1.31381640
H        1.08046341      -0.50030032      -1.61670848
H        2.51083085      -0.79626493      -0.52548018
H        1.70250938       1.05739466       1.01963033
15
Frame=16 idx=010617 GeodesicLength=0.6159885565032114 rxn_smarts="[O:1]=[C:2]1[C:3]([H:8])([H:9])[C:4]([H:10])([H:11])[C@@:5]2([H:12])[C:6]([H:13])([H:14])[C@@:7]12[H:15]>>[O:1]([C:2]1=[C:3]([H:8])[C:4]([H:10])([H:11])[C@@:5]2([H:12])[C:6]([H:13])([H:14])[C@@:7]12[H:15])[H:9]"
O       -0.59780231       2.44022050       0.28263322
C       -0.16841880       1.29933286      -0.14953724
C       -1.29446996       0.42125703      -0.33371565
C       -0.93140081      -0.94729277       0.22473776
C        0.56296245      -0.87571383       0.51322053
C        1.47396748      -0.50414294      -0.60636484
C        1.00722585       0.55930244       0.35854203
H       -1.77071121       0.43649343      -1.31198360
H       -1.89797023       1.80081886       0.13593689
H       -1.47863296      -1.13339809       1.15328949
H       -1.16872419      -1.76946009      -0.45554305
H        0.96617178      -1.48415512       1.31203849
H        1.08299285      -0.50168602      -1.61756246
H        2.51254926      -0.79791802      -0.52570056
H        1.70226079       1.05634174       1.02000899
