12
Frame=0 idx=010613 GeodesicLength=0.0 rxn_smarts="[O:1]=[C:2]([C@@:3]1([H:9])[C:4]([H:10])([H:11])[C@:5]1([C:6]#[N:7])[H:12])[H:8]>>[H:8][H:12].[O+:1]#[C:2][C@@:3]1([H:9])[C:4]([H:10])([H:11])[C:5]1=[C:6]=[N-:7]"
O       -1.41962093      -1.70882522       1.11587873
C       -1.08985987      -0.67001305       0.75442544
C       -0.25669629       0.46975835       0.72471217
C        1.20220302       0.78610006       0.47659951
C        0.32990954       0.40669639      -0.69560550
C        0.69280009      -0.90334200      -1.17601063
N        0.98081358      -1.91711809      -1.63946134
H       -1.83810941      -0.12691151      -0.66677272
H       -0.87700547       1.36034119       0.78445743
H        2.00983100       0.11171596       0.73444392
H        1.38781274       1.82891709       0.70487435
H       -1.12207801       0.36268083      -1.11754138
12
Frame=1 idx=010613 GeodesicLength=0.07385579200256895 rxn_smarts="[O:1]=[C:2]([C@@:3]1([H:9])[C:4]([H:10])([H:11])[C@:5]1([C:6]#[N:7])[H:12])[H:8]>>[H:8][H:12].[O+:1]#[C:2][C@@:3]1([H:9])[C:4]([H:10])([H:11])[C:5]1=[C:6]=[N-:7]"
O       -1.42161440      -1.69383347       1.15547912
C       -1.08705392      -0.66897626       0.75812937
C       -0.25963680       0.47505649       0.72032232
C        1.20208853       0.78156859       0.47822286
C        0.33429797       0.41193132      -0.69839203
C        0.70293685      -0.89167578      -1.19113636
N        0.98265054      -1.90371729      -1.66349761
H       -1.84197894      -0.15320538      -0.67156232
H       -0.87899220       1.36520733       0.79069259
H        1.99372832       0.09605878       0.75650757
H        1.39784843       1.82299898       0.70412474
H       -1.12427439       0.35858669      -1.13889026
12
Frame=2 idx=010613 GeodesicLength=0.1475396658163293 rxn_smarts="[O:1]=[C:2]([C@@:3]1([H:9])[C:4]([H:10])([H:11])[C@:5]1([C:6]#[N:7])[H:12])[H:8]>>[H:8][H:12].[O+:1]#[C:2][C@@:3]1([H:9])[C:4]([H:10])([H:11])[C:5]1=[C:6]=[N-:7]"
O       -1.42470310      -1.67707916       1.19562679
C       -1.08418033      -0.66819768       0.76195811
C       -0.26263381       0.48014030       0.71591101
C        1.20188163       0.77674646       0.47989903
C        0.33865855       0.41709844      -0.70115241
C        0.71326518      -0.87980751      -1.20635726
N        0.98516634      -1.88967821      -1.68798082
H       -1.84545762      -0.18053712      -0.67610988
H       -0.88083741       1.36984073       0.79739276
H        1.97732069       0.08061374       0.77770489
H        1.40789163       1.81661318       0.70367890
H       -1.12637174       0.35424685      -1.16057113
12
Frame=3 idx=010613 GeodesicLength=0.221077793413187 rxn_smarts="[O:1]=[C:2]([C@@:3]1([H:9])[C:4]([H:10])([H:11])[C@:5]1([C:6]#[N:7])[H:12])[H:8]>>[H:8][H:12].[O+:1]#[C:2][C@@:3]1([H:9])[C:4]([H:10])([H:11])[C:5]1=[C:6]=[N-:7]"
O       -1.42886967      -1.65851351       1.23616075
C       -1.08122480      -0.66768613       0.76596102
C       -0.26569063       0.48501264       0.71148345
C        1.20157378       0.77164266       0.48161380
C        0.34297826       0.42219647      -0.70388502
C        0.72375164      -0.86773361      -1.22166799
N        0.98834717      -1.87500904      -1.71285914
H       -1.84854100      -0.20896574      -0.68034518
H       -0.88252930       1.37423277       0.80457727
H        1.96064240       0.06535939       0.79802979
H        1.41792968       1.80976868       0.70351917
H       -1.12836754       0.34969543      -1.18258791
12
Frame=4 idx=010613 GeodesicLength=0.2944722710886278 rxn_smarts="[O:1]=[C:2]([C@@:3]1([H:9])[C:4]([H:10])([H:11])[C@:5]1([C:6]#[N:7])[H:12])[H:8]>>[H:8][H:12].[O+:1]#[C:2][C@@:3]1([H:9])[C:4]([H:10])([H:11])[C:5]1=[C:6]=[N-:7]"
O       -1.43407118      -1.63810404       1.27690837
C       -1.07818941      -0.66743125       0.77019355
C       -0.26881472       0.48968246       0.70704587
C        1.20115491       0.76626345       0.48335495
C        0.34724226       0.42721822      -0.70658554
C        0.73435673      -0.85546548      -1.23704505
N        0.99218060      -1.85970797      -1.73810364
H       -1.85121641      -0.23854869      -0.68419313
H       -0.88405146       1.37839097       0.81226040
H        1.94371808       0.05027462       0.81749067
H        1.42795631       1.80246863       0.70362363
H       -1.13026569       0.34495909      -1.20495009
12
Frame=5 idx=010613 GeodesicLength=0.36773231248178184 rxn_smarts="[O:1]=[C:2]([C@@:3]1([H:9])[C:4]([H:10])([H:11])[C@:5]1([C:6]#[N:7])[H:12])[H:8]>>[H:8][H:12].[O+:1]#[C:2][C@@:3]1([H:9])[C:4]([H:10])([H:11])[C:5]1=[C:6]=[N-:7]"
O       -1.44021603      -1.61587183       1.31762273
C       -1.07507626      -0.66741309       0.77472039
C       -0.27201662       0.49417379       0.70260524
C        1.20061504       0.76062418       0.48511329
C        0.35143776       0.43216596      -0.70924925
C        0.74503443      -0.84300688      -1.25246350
N        0.99660673      -1.84381941      -1.76362995
H       -1.85347845      -0.26934325      -0.68757472
H       -0.88538516       1.38232823       0.82045195
H        1.92657626       0.03533912       0.83609814
H        1.43796348       1.79472881       0.70396960
H       -1.13206119       0.34009438      -1.22766389
12
Frame=6 idx=010613 GeodesicLength=0.4408635447076036 rxn_smarts="[O:1]=[C:2]([C@@:3]1([H:9])[C:4]([H:10])([H:11])[C@:5]1([C:6]#[N:7])[H:12])[H:8]>>[H:8][H:12].[O+:1]#[C:2][C@@:3]1([H:9])[C:4]([H:10])([H:11])[C:5]1=[C:6]=[N-:7]"
O       -1.44720554      -1.59187084       1.35807433
C       -1.07190931      -0.66757927       0.77961679
C       -0.27530784       0.49851305       0.69816789
C        1.19994407       0.75473174       0.48687916
C        0.35554965       0.43702680      -0.71186807
C        0.75572703      -0.83039205      -1.26787477
N        1.00159267      -1.82735126      -1.78940167
H       -1.85531040      -0.30140199      -0.69040069
H       -0.88650575       1.38608283       0.82915298
H        1.90922348       0.02053802       0.85387963
H        1.44795383       1.78655387       0.70452541
H       -1.13375190       0.33514909      -1.25075101
12
Frame=7 idx=010613 GeodesicLength=0.513859889773257 rxn_smarts="[O:1]=[C:2]([C@@:3]1([H:9])[C:4]([H:10])([H:11])[C@:5]1([C:6]#[N:7])[H:12])[H:8]>>[H:8][H:12].[O+:1]#[C:2][C@@:3]1([H:9])[C:4]([H:10])([H:11])[C:5]1=[C:6]=[N-:7]"
O       -1.45486950      -1.56621563       1.39797950
C       -1.06872573      -0.66786361       0.78495745
C       -0.27870854       0.50274324       0.69373877
C        1.19912834       0.74859991       0.48864887
C        0.35956539       0.44179736      -0.71443384
C        0.76637193      -0.81765051      -1.28322834
N        1.00705632      -1.81035632      -1.81532894
H       -1.85669373      -0.33477170      -0.69258487
H       -0.88738723       1.38970307       0.83835578
H        1.89166496       0.00585387       0.87086874
H        1.45792890       1.77795484       0.70526192
H       -1.13533112       0.33020549      -1.27423503
12
Frame=8 idx=010613 GeodesicLength=0.5866880057197714 rxn_smarts="[O:1]=[C:2]([C@@:3]1([H:9])[C:4]([H:10])([H:11])[C@:5]1([C:6]#[N:7])[H:12])[H:8]>>[H:8][H:12].[O+:1]#[C:2][C@@:3]1([H:9])[C:4]([H:10])([H:11])[C:5]1=[C:6]=[N-:7]"
O       -1.46304238      -1.53907845       1.43708940
C       -1.06558225      -0.66816863       0.79080587
C       -0.28223853       0.50691106       0.68932264
C        1.19815823       0.74223920       0.49042153
C        0.36347343       0.44647187      -0.71693900
C        0.77691275      -0.80482387      -1.29846042
N        1.01292698      -1.79287324      -1.84135162
H       -1.85758598      -0.36948112      -0.69403573
H       -0.88799354       1.39326257       0.84804397
H        1.87389343      -0.00872745       0.88711494
H        1.46789999       1.76893885       0.70614790
H       -1.13682213       0.32532919      -1.29815949
12
Frame=9 idx=010613 GeodesicLength=0.659342464750043 rxn_smarts="[O:1]=[C:2]([C@@:3]1([H:9])[C:4]([H:10])([H:11])[C@:5]1([C:6]#[N:7])[H:12])[H:8]>>[H:8][H:12].[O+:1]#[C:2][C@@:3]1([H:9])[C:4]([H:10])([H:11])[C:5]1=[C:6]=[N-:7]"
O       -1.47156010      -1.51063155       1.47545362
C       -1.06253383      -0.66843154       0.79716788
C       -0.28591997       0.51105575       0.68490045
C        1.19699524       0.73565571       0.49219341
C        0.36725370       0.45104971      -0.71938774
C        0.78728948      -0.79191517      -1.31358591
N        1.01913436      -1.77495408      -1.86739584
H       -1.85797100      -0.40551097      -0.69479944
H       -0.88833427       1.39675811       0.85821606
H        1.85590188      -0.02323930       0.90261619
H        1.47783615       1.75950451       0.70718102
H       -1.13809163       0.32065881      -1.32255970
12
Frame=10 idx=010613 GeodesicLength=0.7318228715007631 rxn_smarts="[O:1]=[C:2]([C@@:3]1([H:9])[C:4]([H:10])([H:11])[C@:5]1([C:6]#[N:7])[H:12])[H:8]>>[H:8][H:12].[O+:1]#[C:2][C@@:3]1([H:9])[C:4]([H:10])([H:11])[C:5]1=[C:6]=[N-:7]"
O       -1.48025809      -1.48109821       1.51266534
C       -1.05965063      -0.66850402       0.80412516
C       -0.28976784       0.51524503       0.68048595
C        1.19564857       0.72886444       0.49396727
C        0.37090912       0.45552641      -0.72176537
C        0.79744766      -0.77899000      -1.32850081
N        1.02559248      -1.75663068      -1.89342035
H       -1.85779950      -0.44297322      -0.69468768
H       -0.88833655       1.40032658       0.86883148
H        1.83765685      -0.03767376       0.91747419
H        1.48778746       1.74965678       0.70831664
H       -1.13922953       0.31625066      -1.34749182
12
Frame=11 idx=010613 GeodesicLength=0.8041474799121531 rxn_smarts="[O:1]=[C:2]([C@@:3]1([H:9])[C:4]([H:10])([H:11])[C@:5]1([C:6]#[N:7])[H:12])[H:8]>>[H:8][H:12].[O+:1]#[C:2][C@@:3]1([H:9])[C:4]([H:10])([H:11])[C:5]1=[C:6]=[N-:7]"
O       -1.48896540      -1.45066813       1.54862643
C       -1.05699827      -0.66828966       0.81169276
C       -0.29380624       0.51953388       0.67606793
C        1.19409891       0.72187051       0.49574508
C        0.37443504       0.45990912      -0.72407143
C        0.80733843      -0.76606435      -1.34318362
N        1.03220972      -1.73795274      -1.91936111
H       -1.85703915      -0.48194117      -0.69364889
H       -0.88797582       1.40402361       0.87986704
H        1.81912838      -0.05204870       0.93173375
H        1.49775622       1.73938761       0.70954680
H       -1.14018182       0.31224003      -1.37301474
12
Frame=12 idx=010613 GeodesicLength=0.8762948125327329 rxn_smarts="[O:1]=[C:2]([C@@:3]1([H:9])[C:4]([H:10])([H:11])[C@:5]1([C:6]#[N:7])[H:12])[H:8]>>[H:8][H:12].[O+:1]#[C:2][C@@:3]1([H:9])[C:4]([H:10])([H:11])[C:5]1=[C:6]=[N-:7]"
O       -1.49761735      -1.41948973       1.58335268
C       -1.05463627      -0.66770160       0.81985971
C       -0.29804811       0.52395751       0.67163607
C        1.19232971       0.71467480       0.49752730
C        0.37782650       0.46420042      -0.72630745
C        0.81693290      -0.75315208      -1.35762774
N        1.03894230      -1.71892458      -1.94521797
H       -1.85561884      -0.52249297      -0.69162894
H       -0.88722308       1.40789284       0.89130071
H        1.80028820      -0.06637798       0.94543168
H        1.50774781       1.72868051       0.71086581
H       -1.14092377       0.30873286      -1.39919185
12
Frame=13 idx=010613 GeodesicLength=0.9482545533740419 rxn_smarts="[O:1]=[C:2]([C@@:3]1([H:9])[C:4]([H:10])([H:11])[C@:5]1([C:6]#[N:7])[H:12])[H:8]>>[H:8][H:12].[O+:1]#[C:2][C@@:3]1([H:9])[C:4]([H:10])([H:11])[C:5]1=[C:6]=[N-:7]"
O       -1.50615759      -1.38770167       1.61685355
C       -1.05260435      -0.66667894       0.82861387
C       -0.30251089       0.52854959       0.66717983
C        1.19032464       0.70728374       0.49931352
C        0.38108192       0.46841876      -0.72847909
C        0.82621150      -0.74023995      -1.37184727
N        1.04569098      -1.69958888      -1.97094255
H       -1.85344897      -0.56473679      -0.68857760
H       -0.88605874       1.41196013       0.90311317
H        1.78111878      -0.08067516       0.95858857
H        1.51775559       1.71752940       0.71227834
H       -1.14140286       0.30587978      -1.42609434
12
Frame=14 idx=010613 GeodesicLength=1.0200066420024505 rxn_smarts="[O:1]=[C:2]([C@@:3]1([H:9])[C:4]([H:10])([H:11])[C@:5]1([C:6]#[N:7])[H:12])[H:8]>>[H:8][H:12].[O+:1]#[C:2][C@@:3]1([H:9])[C:4]([H:10])([H:11])[C:5]1=[C:6]=[N-:7]"
O       -1.51457746      -1.35537342       1.64920877
C       -1.05095691      -0.66515524       0.83792811
C       -0.30720961       0.53332988       0.66268777
C        1.18806442       0.69968672       0.50110553
C        0.38419558       0.47256379      -0.73059068
C        0.83515317      -0.72734206      -1.38584693
N        1.05243876      -1.67991915      -1.99657594
H       -1.85040855      -0.60879855      -0.68440529
H       -0.88445767       1.41625442       0.91527298
H        1.76158851      -0.09496383       0.97123334
H        1.52777740       1.70590350       0.71378791
H       -1.14160766       0.30381395      -1.45380557
12
Frame=15 idx=010613 GeodesicLength=1.0914994019965352 rxn_smarts="[O:1]=[C:2]([C@@:3]1([H:9])[C:4]([H:10])([H:11])[C@:5]1([C:6]#[N:7])[H:12])[H:8]>>[H:8][H:12].[O+:1]#[C:2][C@@:3]1([H:9])[C:4]([H:10])([H:11])[C:5]1=[C:6]=[N-:7]"
O       -1.52289202      -1.32258136       1.68046406
C       -1.04972327      -0.66308884       0.84777641
C       -0.31215654       0.53831681       0.65815186
C        1.18553277       0.69188413       0.50290002
C        0.38716333       0.47665176      -0.73264970
C        0.84374886      -0.71444017      -1.39965381
N        1.05910261      -1.65994080      -2.02209446
H       -1.84634943      -0.65481017      -0.67903097
H       -0.88240037       1.42078385       0.92776008
H        1.74168105      -0.10925860       0.98337509
H        1.53780103       1.69379012       0.71540229
H       -1.14150802       0.30269326      -1.48240086
12
Frame=16 idx=010613 GeodesicLength=1.162682306483165 rxn_smarts="[O:1]=[C:2]([C@@:3]1([H:9])[C:4]([H:10])([H:11])[C@:5]1([C:6]#[N:7])[H:12])[H:8]>>[H:8][H:12].[O+:1]#[C:2][C@@:3]1([H:9])[C:4]([H:10])([H:11])[C:5]1=[C:6]=[N-:7]"
O       -1.53116602      -1.28934541       1.71070581
C       -1.04893294      -0.66044543       0.85812558
C       -0.31736251       0.54352021       0.65356579
C        1.18271285       0.68386692       0.50469312
C        0.38997819       0.48069167      -0.73466338
C        0.85199077      -0.70152306      -1.41329445
N        1.06563857      -1.63964103      -2.04752430
H       -1.84109254      -0.70292394      -0.67234654
H       -0.87986752       1.42555031       0.94054677
H        1.72137820      -0.12358266       0.99502067
H        1.54781504       1.68116210       0.71712871
H       -1.14109209       0.30267030      -1.51195777
