13
Frame=0 idx=000071 GeodesicLength=0.0 rxn_smarts="[C:1]([C:2]([C:3]([C:4](=[O:5])[H:13])([H:11])[H:12])([H:9])[H:10])([H:6])([H:7])[H:8]>>[C:1]([C:2]([C:3]([O+:5]=[C-:4][H:13])([H:11])[H:12])([H:9])[H:10])([H:6])([H:7])[H:8]"
C       -1.73822553      -0.07780115       0.29718677
C       -0.47984407      -0.07460165      -0.56485164
C        0.70910844       0.36320967       0.28221494
C        2.46977460       0.09748370       0.05600162
O        1.85843128       0.37838307      -1.04045206
H       -1.94722361       0.91480472       0.70292864
H       -1.64741441      -0.77076217       1.13704337
H       -2.60357794      -0.38277551      -0.29222373
H       -0.29395331      -1.07232775      -0.96692927
H       -0.59956057       0.60110176      -1.41159841
H        0.66675900       1.38088721       0.64613228
H        0.82482852      -0.36707171       1.09832255
H        2.78089759      -0.99053016       0.05622488
13
Frame=1 idx=000071 GeodesicLength=0.048144685638425076 rxn_smarts="[C:1]([C:2]([C:3]([C:4](=[O:5])[H:13])([H:11])[H:12])([H:9])[H:10])([H:6])([H:7])[H:8]>>[C:1]([C:2]([C:3]([O+:5]=[C-:4][H:13])([H:11])[H:12])([H:9])[H:10])([H:6])([H:7])[H:8]"
C       -1.74566771      -0.07093311       0.29766113
C       -0.48853229      -0.07482558      -0.56602061
C        0.71004023       0.34300986       0.27612372
C        2.47712645       0.12537118       0.04580969
O        1.85581806       0.32936927      -1.05763355
H       -1.94374024       0.92108147       0.71028462
H       -1.66034316      -0.77003044       1.13300650
H       -2.61525018      -0.36300783      -0.29207199
H       -0.31597601      -1.07189933      -0.97582569
H       -0.60266695       0.60894380      -1.40731945
H        0.66561069       1.35542834       0.65713008
H        0.81972904      -0.38949894       1.09070658
H        2.84385205      -0.94300869       0.08814896
13
Frame=2 idx=000071 GeodesicLength=0.09580149750409299 rxn_smarts="[C:1]([C:2]([C:3]([C:4](=[O:5])[H:13])([H:11])[H:12])([H:9])[H:10])([H:6])([H:7])[H:8]>>[C:1]([C:2]([C:3]([O+:5]=[C-:4][H:13])([H:11])[H:12])([H:9])[H:10])([H:6])([H:7])[H:8]"
C       -1.75298535      -0.06364329       0.29807201
C       -0.49707733      -0.07511871      -0.56711635
C        0.71095768       0.32177280       0.27027287
C        2.48308965       0.15381846       0.03352107
O        1.85378270       0.27598079      -1.07317619
H       -1.93972497       0.92765148       0.71763426
H       -1.67361044      -0.76888272       1.12882017
H       -2.62671912      -0.34234027      -0.29200216
H       -0.33875417      -1.07134777      -0.98486073
H       -0.60457376       0.61686316      -1.40279707
H        0.66457468       1.32836647       0.66903538
H        0.81489828      -0.41371058       1.08254098
H        2.90614215      -0.88940983       0.12005576
13
Frame=3 idx=000071 GeodesicLength=0.14308115289536646 rxn_smarts="[C:1]([C:2]([C:3]([C:4](=[O:5])[H:13])([H:11])[H:12])([H:9])[H:10])([H:6])([H:7])[H:8]>>[C:1]([C:2]([C:3]([O+:5]=[C-:4][H:13])([H:11])[H:12])([H:9])[H:10])([H:6])([H:7])[H:8]"
C       -1.76027049      -0.05570434       0.29829030
C       -0.50532378      -0.07568992      -0.56792052
C        0.71182050       0.29922559       0.26514068
C        2.48743618       0.18276382       0.01889799
O        1.85227031       0.21843091      -1.08645781
H       -1.93536796       0.93498330       0.72424809
H       -1.68759654      -0.76668713       1.12473579
H       -2.63788881      -0.32073977      -0.29231348
H       -0.36210160      -1.07095226      -0.99358915
H       -0.60488066       0.62442364      -1.39803573
H        0.66354933       1.29927484       0.68262919
H        0.81043328      -0.44026790       1.07404538
H        2.96792023      -0.82906077       0.15032927
13
Frame=4 idx=000071 GeodesicLength=0.18984754417896987 rxn_smarts="[C:1]([C:2]([C:3]([C:4](=[O:5])[H:13])([H:11])[H:12])([H:9])[H:10])([H:6])([H:7])[H:8]>>[C:1]([C:2]([C:3]([O+:5]=[C-:4][H:13])([H:11])[H:12])([H:9])[H:10])([H:6])([H:7])[H:8]"
C       -1.76739134      -0.04721100       0.29828918
C       -0.51311291      -0.07645775      -0.56842622
C        0.71264748       0.27554143       0.26083657
C        2.48992628       0.21183347       0.00166984
O        1.85152416       0.15665556      -1.09695482
H       -1.93061308       0.94288837       0.73029087
H       -1.70214204      -0.76365947       1.12062953
H       -2.64858526      -0.29829547      -0.29309238
H       -0.38572024      -1.07055154      -1.00204976
H       -0.60341286       0.63168451      -1.39302099
H        0.66270692       1.26833449       0.69782967
H        0.80618749      -0.46877336       1.06553917
H        3.02798541      -0.76198924       0.17845937
13
Frame=5 idx=000071 GeodesicLength=0.23605273997651988 rxn_smarts="[C:1]([C:2]([C:3]([C:4](=[O:5])[H:13])([H:11])[H:12])([H:9])[H:10])([H:6])([H:7])[H:8]>>[C:1]([C:2]([C:3]([O+:5]=[C-:4][H:13])([H:11])[H:12])([H:9])[H:10])([H:6])([H:7])[H:8]"
C       -1.77424216      -0.03819845       0.29799633
C       -0.52027059      -0.07742257      -0.56855145
C        0.71343540       0.25078611       0.25758959
C        2.49028459       0.24067071      -0.01838935
O        1.85169329       0.09085979      -1.10401315
H       -1.92538676       0.95128726       0.73573407
H       -1.71723611      -0.75985326       1.11638431
H       -2.65862107      -0.27503631      -0.29450813
H       -0.40930168      -1.07008223      -1.01013764
H       -0.59993287       0.63855172      -1.38768735
H        0.66221008       1.23561158       0.71468090
H        0.80198394      -0.49897587       1.05738513
H        3.08538395      -0.68819848       0.20351672
13
Frame=6 idx=000071 GeodesicLength=0.2816365361082821 rxn_smarts="[C:1]([C:2]([C:3]([C:4](=[O:5])[H:13])([H:11])[H:12])([H:9])[H:10])([H:6])([H:7])[H:8]>>[C:1]([C:2]([C:3]([O+:5]=[C-:4][H:13])([H:11])[H:12])([H:9])[H:10])([H:6])([H:7])[H:8]"
C       -1.78079084      -0.02863701       0.29729524
C       -0.52659285      -0.07868095      -0.56815738
C        0.71414497       0.22495254       0.25582655
C        2.48822689       0.26880766      -0.04119762
O        1.85292881       0.02194517      -1.10697315
H       -1.91979843       0.96031558       0.74022613
H       -1.73299439      -0.75505304       1.11206013
H       -2.66780888      -0.25109785      -0.29683762
H       -0.43237019      -1.06965534      -1.01761925
H       -0.59419790       0.64477083      -1.38202489
H        0.66210871       1.20116040       0.73343981
H        0.79759883      -0.53076617       1.05014670
H        3.13954527      -0.60806181       0.22381534
13
Frame=7 idx=000071 GeodesicLength=0.3265912564808388 rxn_smarts="[C:1]([C:2]([C:3]([C:4](=[O:5])[H:13])([H:11])[H:12])([H:9])[H:10])([H:6])([H:7])[H:8]>>[C:1]([C:2]([C:3]([O+:5]=[C-:4][H:13])([H:11])[H:12])([H:9])[H:10])([H:6])([H:7])[H:8]"
C       -1.78691936      -0.01863411       0.29613524
C       -0.53191157      -0.08021023      -0.56718604
C        0.71479655       0.19817196       0.25574319
C        2.48359291       0.29584639      -0.06679516
O        1.85541381      -0.04943366      -1.10531494
H       -1.91374781       0.96976088       0.74393328
H       -1.74937590      -0.74951043       1.10745047
H       -2.67597264      -0.22648681      -0.30024682
H       -0.45452224      -1.06917966      -1.02447496
H       -0.58611116       0.65029801      -1.37596497
H        0.66262156       1.16526871       0.75387611
H        0.79276566      -0.56370419       1.04430236
H        3.18937019      -0.52218685       0.23854222
13
Frame=8 idx=000071 GeodesicLength=0.3710978173976459 rxn_smarts="[C:1]([C:2]([C:3]([C:4](=[O:5])[H:13])([H:11])[H:12])([H:9])[H:10])([H:6])([H:7])[H:8]>>[C:1]([C:2]([C:3]([O+:5]=[C-:4][H:13])([H:11])[H:12])([H:9])[H:10])([H:6])([H:7])[H:8]"
C       -1.79260280      -0.00818885       0.29440576
C       -0.53606971      -0.08209343      -0.56548836
C        0.71535160       0.17039094       0.25772147
C        2.47614642       0.32138952      -0.09489940
O        1.85926572      -0.12230348      -1.09850313
H       -1.90724394       0.97964354       0.74670103
H       -1.76655993      -0.74320623       1.10243050
H       -2.68294904      -0.20115659      -0.30503694
H       -0.47535027      -1.06872704      -1.03053924
H       -0.57554498       0.65495815      -1.36939348
H        0.66382318       1.12806111       0.77602309
H        0.78717740      -0.59768218       1.04039086
H        3.23455635      -0.43108547       0.24618786
13
Frame=9 idx=000071 GeodesicLength=0.41529835496202716 rxn_smarts="[C:1]([C:2]([C:3]([C:4](=[O:5])[H:13])([H:11])[H:12])([H:9])[H:10])([H:6])([H:7])[H:8]>>[C:1]([C:2]([C:3]([O+:5]=[C-:4][H:13])([H:11])[H:12])([H:9])[H:10])([H:6])([H:7])[H:8]"
C       -1.79774074       0.00257229       0.29209988
C       -0.53896762      -0.08431081      -0.56306623
C        0.71582598       0.14173316       0.26184920
C        2.46581973       0.34503296      -0.12527010
O        1.86475238      -0.19570542      -1.08630640
H       -1.90017365       0.98970180       0.74883723
H       -1.78449229      -0.73644800       1.09678922
H       -2.68862163      -0.17505846      -0.31128280
H       -0.49447447      -1.06822896      -1.03590088
H       -0.56257640       0.65876039      -1.36226539
H        0.66587390       1.08994500       0.79947939
H        0.78052640      -0.63229110       1.03880005
H        3.27424841      -0.33570285       0.24623684
13
Frame=10 idx=000071 GeodesicLength=0.45933023029952086 rxn_smarts="[C:1]([C:2]([C:3]([C:4](=[O:5])[H:13])([H:11])[H:12])([H:9])[H:10])([H:6])([H:7])[H:8]>>[C:1]([C:2]([C:3]([O+:5]=[C-:4][H:13])([H:11])[H:12])([H:9])[H:10])([H:6])([H:7])[H:8]"
C       -1.80221544       0.01352483       0.28921650
C       -0.54053025      -0.08685849      -0.55991250
C        0.71620909       0.11234673       0.26816165
C        2.45257805       0.36636622      -0.15741183
O        1.87209141      -0.26835448      -1.06868481
H       -1.89244403       0.99971475       0.75053836
H       -1.80307081      -0.72945892       1.09036758
H       -2.69282486      -0.14822618      -0.31900453
H       -0.51151603      -1.06766883      -1.04058941
H       -0.54736312       0.66170238      -1.35452125
H        0.66884087       1.05137519       0.82383409
H        0.77251012      -0.66717256       1.03978423
H        3.30773501      -0.23729064       0.23822193
13
Frame=11 idx=000071 GeodesicLength=0.5033489713379741 rxn_smarts="[C:1]([C:2]([C:3]([C:4](=[O:5])[H:13])([H:11])[H:12])([H:9])[H:10])([H:6])([H:7])[H:8]>>[C:1]([C:2]([C:3]([O+:5]=[C-:4][H:13])([H:11])[H:12])([H:9])[H:10])([H:6])([H:7])[H:8]"
C       -1.80607420       0.02451454       0.28576170
C       -0.54075129      -0.08969383      -0.55602063
C        0.71651930       0.08250442       0.27669982
C        2.43670504       0.38495788      -0.19051098
O        1.88148519      -0.33877425      -1.04586438
H       -1.88424274       1.00947854       0.75192392
H       -1.82226722      -0.72240765       1.08310335
H       -2.69556301      -0.12091594      -0.32825717
H       -0.52614716      -1.06701520      -1.04466305
H       -0.53020501       0.66381576      -1.34614253
H        0.67275203       1.01294030       0.84876591
H        0.76291424      -0.70185907       1.04359372
H        3.33487483      -0.13754551       0.22161033
13
Frame=12 idx=000071 GeodesicLength=0.5476950329622793 rxn_smarts="[C:1]([C:2]([C:3]([C:4](=[O:5])[H:13])([H:11])[H:12])([H:9])[H:10])([H:6])([H:7])[H:8]>>[C:1]([C:2]([C:3]([O+:5]=[C-:4][H:13])([H:11])[H:12])([H:9])[H:10])([H:6])([H:7])[H:8]"
C       -1.80933863       0.03539103       0.28166944
C       -0.53960524      -0.09272137      -0.55123799
C        0.71668712       0.05247308       0.28762081
C        2.41838312       0.40046856      -0.22371321
O        1.89280909      -0.40620465      -1.01777047
H       -1.87571002       1.01871481       0.75313781
H       -1.84221089      -0.71568864       1.07459844
H       -2.69665375      -0.09312248      -0.33930415
H       -0.53814671      -1.06618325      -1.04800596
H       -0.51124017       0.66524209      -1.33690013
H        0.67755408       0.97518766       0.87407992
H        0.75142639      -0.73594429       1.05049693
H        3.35604561      -0.03761254       0.19532855
13
Frame=13 idx=000071 GeodesicLength=0.5921051681584657 rxn_smarts="[C:1]([C:2]([C:3]([C:4](=[O:5])[H:13])([H:11])[H:12])([H:9])[H:10])([H:6])([H:7])[H:8]>>[C:1]([C:2]([C:3]([O+:5]=[C-:4][H:13])([H:11])[H:12])([H:9])[H:10])([H:6])([H:7])[H:8]"
C       -1.81151675       0.04606489       0.27727114
C       -0.53725860      -0.09595837      -0.54601849
C        0.71677679       0.02249357       0.29980225
C        2.39779165       0.41314770      -0.25692326
O        1.90639213      -0.46915425      -0.98586000
H       -1.86626451       1.02729716       0.75453901
H       -1.86177207      -0.70919108       1.06529633
H       -2.69594371      -0.06506907      -0.35102717
H       -0.54748575      -1.06526451      -1.05090781
H       -0.49126683       0.66600992      -1.32718000
H        0.68311025       0.93835977       0.89874018
H        0.73843643      -0.76926710       1.05922742
H        3.36900097       0.06053138       0.16304040
13
Frame=14 idx=000071 GeodesicLength=0.6366078923783743 rxn_smarts="[C:1]([C:2]([C:3]([C:4](=[O:5])[H:13])([H:11])[H:12])([H:9])[H:10])([H:6])([H:7])[H:8]>>[C:1]([C:2]([C:3]([O+:5]=[C-:4][H:13])([H:11])[H:12])([H:9])[H:10])([H:6])([H:7])[H:8]"
C       -1.81314990       0.05620931       0.27247928
C       -0.53385679      -0.09908165      -0.54018441
C        0.71674126      -0.00669605       0.31357287
C        2.37609205       0.42249325      -0.28845325
O        1.92186964      -0.52662714      -0.95045092
H       -1.85700539       1.03490407       0.75602759
H       -1.88137622      -0.70335447       1.05499426
H       -2.69378447      -0.03764423      -0.36387589
H       -0.55410450      -1.06396763      -1.05334103
H       -0.47056465       0.66655902      -1.31677489
H        0.68932427       0.90348844       0.92282184
H        0.72370597      -0.80091484       1.07028511
H        3.37610874       0.15463190       0.12289944
13
Frame=15 idx=000071 GeodesicLength=0.6812519650790436 rxn_smarts="[C:1]([C:2]([C:3]([C:4](=[O:5])[H:13])([H:11])[H:12])([H:9])[H:10])([H:6])([H:7])[H:8]>>[C:1]([C:2]([C:3]([O+:5]=[C-:4][H:13])([H:11])[H:12])([H:9])[H:10])([H:6])([H:7])[H:8]"
C       -1.81417184       0.06584632       0.26747311
C       -0.52960650      -0.10209640      -0.53398452
C        0.71662645      -0.03502604       0.32829782
C        2.35362489       0.42895626      -0.31834867
O        1.93930101      -0.57859560      -0.91243928
H       -1.84779161       1.04156296       0.75784052
H       -1.90062830      -0.69810256       1.04390019
H       -2.69032160      -0.01078012      -0.37732572
H       -0.55827624      -1.06237977      -1.05550706
H       -0.44961954       0.66694179      -1.30592005
H        0.69605405       0.87050141       0.94605953
H        0.70768300      -0.83094098       1.08283960
H        3.37712624       0.24411272       0.07711454
13
Frame=16 idx=000071 GeodesicLength=0.7260524563100439 rxn_smarts="[C:1]([C:2]([C:3]([C:4](=[O:5])[H:13])([H:11])[H:12])([H:9])[H:10])([H:6])([H:7])[H:8]>>[C:1]([C:2]([C:3]([O+:5]=[C-:4][H:13])([H:11])[H:12])([H:9])[H:10])([H:6])([H:7])[H:8]"
C       -1.81459642       0.07497104       0.26232844
C       -0.52467668      -0.10495639      -0.52752475
C        0.71641113      -0.06240416       0.34361824
C        2.33075312       0.43282721      -0.34635333
O        1.95852088      -0.62500565      -0.87239639
H       -1.83865155       1.04729452       0.75996178
H       -1.91932767      -0.69338353       1.03212908
H       -2.68565904       0.01542833      -0.39110668
H       -0.56027569      -1.06049859      -1.05744039
H       -0.42871651       0.66726884      -1.29469841
H        0.70314827       0.83932860       0.96836218
H        0.69063001      -0.85936397       1.09634618
H        3.37244014       0.32849376       0.02677405
