12
Frame=0 idx=004353 GeodesicLength=0.0 rxn_smarts="[O:1]=[C:2]([C@@:3]1([H:8])[C:4]([H:9])([H:10])[C:5]([H:11])([H:12])[O:6]1)[H:7]>>[O:1]=[C:2]([C:4]1([H:9])[C:3]([H:8])([H:10])[O:6][C:5]1([H:11])[H:12])[H:7]"
O        2.29307882      -0.51427757      -0.31441117
C        1.23597374      -0.26287539       0.34239576
C        0.38996415       0.93361779      -0.19384182
C       -0.09332166      -0.70950112      -0.32136726
C       -1.31090142      -0.15681891       0.40529234
O       -0.80327417       1.18631789       0.48356555
H        1.15658792      -0.30003301       1.44498094
H        0.91676338       1.71374085      -0.73643122
H       -0.03808479      -1.45064364      -1.11322847
H       -0.03919082       0.33176475      -1.23137086
H       -1.45992684      -0.59977802       1.39211854
H       -2.24766835      -0.17151366      -0.15770230
12
Frame=1 idx=004353 GeodesicLength=0.10014250152682906 rxn_smarts="[O:1]=[C:2]([C@@:3]1([H:8])[C:4]([H:9])([H:10])[C:5]([H:11])([H:12])[O:6]1)[H:7]>>[O:1]=[C:2]([C:4]1([H:9])[C:3]([H:8])([H:10])[O:6][C:5]1([H:11])[H:12])[H:7]"
O        2.30196055      -0.53306090      -0.30156055
C        1.24874937      -0.26657675       0.34676020
C        0.37983480       0.93129875      -0.20188121
C       -0.09886270      -0.69713106      -0.33379025
C       -1.31478764      -0.15644899       0.40484065
O       -0.80734375       1.18638822       0.48880839
H        1.17363311      -0.28893275       1.45041653
H        0.91694000       1.71731662      -0.72496614
H       -0.03682537      -1.45495550      -1.10787395
H       -0.04997510       0.33861023      -1.25701725
H       -1.45889073      -0.60591928       1.38952411
H       -2.25443254      -0.17058859      -0.15326053
12
Frame=2 idx=004353 GeodesicLength=0.2002737297939854 rxn_smarts="[O:1]=[C:2]([C@@:3]1([H:8])[C:4]([H:9])([H:10])[C:5]([H:11])([H:12])[O:6]1)[H:7]>>[O:1]=[C:2]([C:4]1([H:9])[C:3]([H:8])([H:10])[O:6][C:5]1([H:11])[H:12])[H:7]"
O        2.31053549      -0.55275994      -0.28823063
C        1.26152975      -0.27034900       0.35136241
C        0.36968884       0.92912840      -0.21000366
C       -0.10440568      -0.68465676      -0.34656047
C       -1.31853467      -0.15623742       0.40427915
O       -0.81129562       1.18629054       0.49415059
H        1.19109702      -0.27691865       1.45594368
H        0.91697695       1.72055203      -0.71352431
H       -0.03561426      -1.45871552      -1.10253167
H       -0.06126037       0.34583784      -1.28275015
H       -1.45762328      -0.61240647       1.38667478
H       -2.26109417      -0.16976507      -0.14880973
12
Frame=3 idx=004353 GeodesicLength=0.3003924785393356 rxn_smarts="[O:1]=[C:2]([C@@:3]1([H:8])[C:4]([H:9])([H:10])[C:5]([H:11])([H:12])[O:6]1)[H:7]>>[O:1]=[C:2]([C:4]1([H:9])[C:3]([H:8])([H:10])[O:6][C:5]1([H:11])[H:12])[H:7]"
O        2.31875963      -0.57343250      -0.27437873
C        1.27431609      -0.27420042       0.35621842
C        0.35952085       0.92712319      -0.21819963
C       -0.10996014      -0.67207892      -0.35967891
C       -1.32213818      -0.15619304       0.40360290
O       -0.81513916       1.18601528       0.49958394
H        1.20902982      -0.26393091       1.46152762
H        0.91688138       1.72344097      -0.70210002
H       -0.03444471      -1.46189905      -1.09723126
H       -0.07306080       0.35345974      -1.30855977
H       -1.45611382      -0.61924115       1.38356291
H       -2.26765095      -0.16906318      -0.14434748
12
Frame=4 idx=004353 GeodesicLength=0.40050211749731096 rxn_smarts="[O:1]=[C:2]([C@@:3]1([H:8])[C:4]([H:9])([H:10])[C:5]([H:11])([H:12])[O:6]1)[H:7]>>[O:1]=[C:2]([C:4]1([H:9])[C:3]([H:8])([H:10])[O:6][C:5]1([H:11])[H:12])[H:7]"
O        2.32658052      -0.59513753      -0.25995026
C        1.28711095      -0.27813947       0.36134636
C        0.34932366       0.92529956      -0.22645924
C       -0.11553515      -0.65939580      -0.37314549
C       -1.32559401      -0.15632513       0.40280781
O       -0.81888341       1.18555285       0.50510379
H        1.22748861      -0.24991196       1.46712341
H        0.91665952       1.72597830      -0.69069331
H       -0.03330827      -1.46447976      -1.09200296
H       -0.08539067       0.36148892      -1.33443766
H       -1.45435222      -0.62642657       1.38017941
H       -2.27409954      -0.16850340      -0.13987186
12
Frame=5 idx=004353 GeodesicLength=0.5005952360648498 rxn_smarts="[O:1]=[C:2]([C@@:3]1([H:8])[C:4]([H:9])([H:10])[C:5]([H:11])([H:12])[O:6]1)[H:7]>>[O:1]=[C:2]([C:4]1([H:9])[C:3]([H:8])([H:10])[O:6][C:5]1([H:11])[H:12])[H:7]"
O        2.33395395      -0.61792709      -0.24490559
C        1.29991802      -0.28217266       0.36676612
C        0.33908874       0.92367082      -0.23477153
C       -0.12113995      -0.64660577      -0.38695516
C       -1.32890035      -0.15664149       0.40188954
O       -0.82253866       1.18489457       0.51070732
H        1.24652339      -0.23481464       1.47269313
H        0.91632077       1.72816490      -0.67930907
H       -0.03219272      -1.46643421      -1.08687422
H       -0.09826149       0.36993439      -1.36037581
H       -1.45233386      -0.63396464       1.37651849
H       -2.28043785      -0.16810418      -0.13538321
12
Frame=6 idx=004353 GeodesicLength=0.600679433692853 rxn_smarts="[O:1]=[C:2]([C@@:3]1([H:8])[C:4]([H:9])([H:10])[C:5]([H:11])([H:12])[O:6]1)[H:7]>>[O:1]=[C:2]([C:4]1([H:9])[C:3]([H:8])([H:10])[O:6][C:5]1([H:11])[H:12])[H:7]"
O        2.34080858      -0.64186891      -0.22915605
C        1.31274157      -0.28630502       0.37249960
C        0.32880663       0.92225320      -0.24312883
C       -0.12678283      -0.63370216      -0.40110733
C       -1.33205272      -0.15715154       0.40084447
O       -0.82611221       1.18402908       0.51639455
H        1.26620737      -0.21858218       1.47816172
H        0.91586786       1.72999943      -0.66795074
H       -0.03108298      -1.46773555      -1.08188048
H       -0.11169381       0.37881108      -1.38636603
H       -1.45004527      -0.64186153       1.37256766
H       -2.28666219      -0.16788591      -0.13087852
12
Frame=7 idx=004353 GeodesicLength=0.7007557986914977 rxn_smarts="[O:1]=[C:2]([C@@:3]1([H:8])[C:4]([H:9])([H:10])[C:5]([H:11])([H:12])[O:6]1)[H:7]>>[O:1]=[C:2]([C:4]1([H:9])[C:3]([H:8])([H:10])[O:6][C:5]1([H:11])[H:12])[H:7]"
O        2.34708574      -0.66701723      -0.21263610
C        1.32559041      -0.29053891       0.37856472
C        0.31846652       0.92106048      -0.25152586
C       -0.13247160      -0.62067869      -0.41559629
C       -1.33504739      -0.15786332       0.39966782
O       -0.82961107       1.18294731       0.52216763
H        1.28659959      -0.20117473       1.48347121
H        0.91530356       1.73148455      -0.65662067
H       -0.02996279      -1.46836063      -1.07704896
H       -0.12570475       0.38812661      -1.41240439
H       -1.44747994      -0.65011981       1.36831999
H       -2.29276829      -0.16786563      -0.12635908
12
Frame=8 idx=004353 GeodesicLength=0.8008298758583838 rxn_smarts="[O:1]=[C:2]([C@@:3]1([H:8])[C:4]([H:9])([H:10])[C:5]([H:11])([H:12])[O:6]1)[H:7]>>[O:1]=[C:2]([C:4]1([H:9])[C:3]([H:8])([H:10])[O:6][C:5]1([H:11])[H:12])[H:7]"
O        2.35270302      -0.69343329      -0.19524137
C        1.33847332      -0.29487320       0.38498290
C        0.30805596       0.92010677      -0.25995653
C       -0.13821318      -0.60752676      -0.43041794
C       -1.33787942      -0.15878418       0.39835621
O       -0.83303982       1.18163744       0.52803165
H        1.30777305      -0.18255541       1.48853255
H        0.91462808       1.73262663      -0.64532959
H       -0.02880961      -1.46828309      -1.07241491
H       -0.14031729       0.39789206      -1.43848497
H       -1.44462371      -0.65874541       1.36376592
H       -2.29875041      -0.16806157      -0.12182392
12
Frame=9 idx=004353 GeodesicLength=0.9009094341560676 rxn_smarts="[O:1]=[C:2]([C@@:3]1([H:8])[C:4]([H:9])([H:10])[C:5]([H:11])([H:12])[O:6]1)[H:7]>>[O:1]=[C:2]([C:4]1([H:9])[C:3]([H:8])([H:10])[O:6][C:5]1([H:11])[H:12])[H:7]"
O        2.35752543      -0.72113461      -0.17683507
C        1.35140662      -0.29931439       0.39178151
C        0.29755975       0.91940234      -0.26840427
C       -0.14401526      -0.59423593      -0.44555999
C       -1.34054992      -0.15992063       0.39690813
O       -0.83639589       1.18008546       0.53400201
H        1.32981115      -0.16272366       1.49320739
H        0.91387639       1.73345714      -0.63413129
H       -0.02756511      -1.46749371      -1.06802249
H       -0.15556630       0.40811151      -1.46457291
H       -1.44148130      -0.66774630       1.35890011
H       -2.30460555      -0.16848721      -0.11727314
12
Frame=10 idx=004353 GeodesicLength=1.0009969024013605 rxn_smarts="[O:1]=[C:2]([C@@:3]1([H:8])[C:4]([H:9])([H:10])[C:5]([H:11])([H:12])[O:6]1)[H:7]>>[O:1]=[C:2]([C:4]1([H:9])[C:3]([H:8])([H:10])[O:6][C:5]1([H:11])[H:12])[H:7]"
O        2.36150502      -0.75021760      -0.15732560
C        1.36439760      -0.30384521       0.39897022
C        0.28696634       0.91896750      -0.27688179
C       -0.14988448      -0.58079479      -0.46102511
C       -1.34305062      -0.16128068       0.39531832
O       -0.83968745       1.17828341       0.54007812
H        1.35279094      -0.14162466       1.49743308
H        0.91301380       1.73395863      -0.62298350
H       -0.02622690      -1.46594928      -1.06389058
H       -0.17146933       0.41879617      -1.49069381
H       -1.43802825      -0.67712966       1.35370614
H       -2.31032667      -0.16916385      -0.11270548
12
Frame=11 idx=004353 GeodesicLength=1.1010821175812908 rxn_smarts="[O:1]=[C:2]([C@@:3]1([H:8])[C:4]([H:9])([H:10])[C:5]([H:11])([H:12])[O:6]1)[H:7]>>[O:1]=[C:2]([C:4]1([H:9])[C:3]([H:8])([H:10])[O:6][C:5]1([H:11])[H:12])[H:7]"
O        2.36455480      -0.78072960      -0.13660832
C        1.37746292      -0.30845914       0.40656650
C        0.27626161       0.91881610      -0.28538725
C       -0.15582814      -0.56719125      -0.47680469
C       -1.34537715      -0.16287130       0.39358239
O       -0.84291413       1.17621830       0.54626758
H        1.37678071      -0.11924000       1.50111616
H        0.91204032       1.73413677      -0.61189315
H       -0.02476194      -1.46362212      -1.06004713
H       -0.18805622       0.42995074      -1.51684085
H       -1.43425477      -0.68690229       1.34817135
H       -2.31590799      -0.17010620      -0.10812259
12
Frame=12 idx=004353 GeodesicLength=1.2011629611881212 rxn_smarts="[O:1]=[C:2]([C@@:3]1([H:8])[C:4]([H:9])([H:10])[C:5]([H:11])([H:12])[O:6]1)[H:7]>>[O:1]=[C:2]([C:4]1([H:9])[C:3]([H:8])([H:10])[O:6][C:5]1([H:11])[H:12])[H:7]"
O        2.36655169      -0.81273245      -0.11453113
C        1.39062124      -0.31314049       0.41458670
C        0.26543015       0.91896744      -0.29392106
C       -0.16185081      -0.55340874      -0.49289272
C       -1.34752361      -0.16470051       0.39169629
O       -0.84607481       1.17387734       0.55258322
H        1.40187367      -0.09555664       1.50412472
H        0.91094865       1.73400114      -0.60086864
H       -0.02312615      -1.46047999      -1.05652509
H       -0.20536161       0.44158375      -1.54300795
H       -1.43014694      -0.69707765       1.34228007
H       -2.32134147      -0.17133320      -0.10352441
12
Frame=13 idx=004353 GeodesicLength=1.3012266971783535 rxn_smarts="[O:1]=[C:2]([C@@:3]1([H:8])[C:4]([H:9])([H:10])[C:5]([H:11])([H:12])[O:6]1)[H:7]>>[O:1]=[C:2]([C:4]1([H:9])[C:3]([H:8])([H:10])[O:6][C:5]1([H:11])[H:12])[H:7]"
O        2.36739396      -0.84625797      -0.09096654
C        1.40389691      -0.31787921       0.42304034
C        0.25445473       0.91943228      -0.30248187
C       -0.16796238      -0.53943220      -0.50928410
C       -1.34948228      -0.16677323       0.38965468
O       -0.84916281       1.17124427       0.55903531
H        1.42813163      -0.07057922       1.50636103
H        0.90973755       1.73356099      -0.58992358
H       -0.02127851      -1.45649480      -1.05335350
H       -0.22342398       0.45369903      -1.56918953
H       -1.42568535      -0.70766251       1.33601756
H       -2.32661948      -0.17285743      -0.09890981
12
Frame=14 idx=004353 GeodesicLength=1.4012831889152757 rxn_smarts="[O:1]=[C:2]([C@@:3]1([H:8])[C:4]([H:9])([H:10])[C:5]([H:11])([H:12])[O:6]1)[H:7]>>[O:1]=[C:2]([C:4]1([H:9])[C:3]([H:8])([H:10])[O:6][C:5]1([H:11])[H:12])[H:7]"
O        2.36691155      -0.88137259      -0.06568812
C        1.41731706      -0.32265166       0.43192958
C        0.24331606       0.92023554      -0.31107288
C       -0.17416813      -0.52523763      -0.52597992
C       -1.35124387      -0.16910114       0.38745353
O       -0.85217230       1.16830063       0.56564334
H        1.45567556      -0.04430888       1.50764961
H        0.90839376       1.73283442      -0.57906935
H       -0.01916246      -1.45162904      -1.05057339
H       -0.24228901       0.46631090      -1.59538029
H       -1.42084549      -0.71868029       1.32936226
H       -2.33173272      -0.17470025      -0.09427438
12
Frame=15 idx=004353 GeodesicLength=1.5013229013239953 rxn_smarts="[O:1]=[C:2]([C@@:3]1([H:8])[C:4]([H:9])([H:10])[C:5]([H:11])([H:12])[O:6]1)[H:7]>>[O:1]=[C:2]([C:4]1([H:9])[C:3]([H:8])([H:10])[O:6][C:5]1([H:11])[H:12])[H:7]"
O        2.36494932      -0.91810679      -0.03848983
C        1.43091378      -0.32743740       0.44124928
C        0.23199321       0.92139455      -0.31969680
C       -0.18047707      -0.51080289      -0.54298015
C       -1.35279711      -0.17169102       0.38508691
O       -0.85509137       1.16502432       0.57242235
H        1.48459936      -0.01677220       1.50783685
H        0.90690676       1.73183701      -0.56831386
H       -0.01672502      -1.44584745      -1.04821565
H       -0.26200536       0.47942621      -1.62157579
H       -1.41559649      -0.73014729       1.32229210
H       -2.33667002      -0.17687705      -0.08961540
12
Frame=16 idx=004353 GeodesicLength=1.6013544245886207 rxn_smarts="[O:1]=[C:2]([C@@:3]1([H:8])[C:4]([H:9])([H:10])[C:5]([H:11])([H:12])[O:6]1)[H:7]>>[O:1]=[C:2]([C:4]1([H:9])[C:3]([H:8])([H:10])[O:6][C:5]1([H:11])[H:12])[H:7]"
O        2.36128839      -0.95651600      -0.00907634
C        1.44472568      -0.33220544       0.45098397
C        0.22046446       0.92293681      -0.32835960
C       -0.18689405      -0.49610298      -0.56029625
C       -1.35412961      -0.17455908       0.38255065
O       -0.85790973       1.16139513       0.57939838
H        1.51504364       0.01200649       1.50670626
H        0.90526240       1.73060166      -0.55766659
H       -0.01389779      -1.43910626      -1.04632902
H       -0.28262590       0.49306310      -1.64777581
H       -1.40990634      -0.74210265       1.31478796
H       -2.34142117      -0.17941079      -0.08492361
