11
Frame=0 idx=010257 GeodesicLength=0.0 rxn_smarts="[C:1](#[C:2][c:3]1[c:4]([H:9])[n:5]([H:10])[n:6][c:7]1[H:11])[H:8]>>[C@:1]12([H:8])[C:2][C@:3]3([C@@:4]1([H:9])[N:5]2[H:10])[N:6]=[C:7]3[H:11]"
C        0.85212036      -0.94265752      -0.19105184
C        1.50183445       0.39778245      -0.21381877
C        0.41883160       0.92653234       0.57283598
C       -0.10959984      -0.41694221       0.91426571
N       -0.63571570      -0.86482190      -0.30898231
N       -1.34411724       1.06957383      -0.89563791
C       -0.42226017       1.70774394      -0.35365141
H        1.27270325      -1.92299689      -0.38402477
H       -0.34513950      -0.87068806       1.86849656
H       -1.07481604      -1.78628220      -0.31507788
H       -0.11384115       2.70275624      -0.69335333
11
Frame=1 idx=010257 GeodesicLength=0.1528641463062766 rxn_smarts="[C:1](#[C:2][c:3]1[c:4]([H:9])[n:5]([H:10])[n:6][c:7]1[H:11])[H:8]>>[C@:1]12([H:8])[C:2][C@:3]3([C@@:4]1([H:9])[N:5]2[H:10])[N:6]=[C:7]3[H:11]"
C        0.87724066      -0.94819766      -0.19890505
C        1.50632017       0.38855382      -0.19020403
C        0.40356425       0.92463367       0.56683880
C       -0.12176009      -0.41468017       0.91328097
N       -0.64943984      -0.86312296      -0.30869254
N       -1.34585057       1.06249137      -0.87154943
C       -0.42200753       1.72003287      -0.35284951
H        1.30915400      -1.92130556      -0.40003035
H       -0.34639855      -0.87479059       1.86674633
H       -1.10300281      -1.77695225      -0.30767897
H       -0.10781970       2.70333747      -0.71695623
11
Frame=2 idx=010257 GeodesicLength=0.3054961075852316 rxn_smarts="[C:1](#[C:2][c:3]1[c:4]([H:9])[n:5]([H:10])[n:6][c:7]1[H:11])[H:8]>>[C@:1]12([H:8])[C:2][C@:3]3([C@@:4]1([H:9])[N:5]2[H:10])[N:6]=[C:7]3[H:11]"
C        0.90314954      -0.95400893      -0.20673679
C        1.51044211       0.37881334      -0.16663979
C        0.38874090       0.92235234       0.56010609
C       -0.13414399      -0.41236319       0.91228717
N       -0.66400197      -0.86131201      -0.30820268
N       -1.34713466       1.05605998      -0.84837105
C       -0.42190747       1.73195488      -0.35204692
H        1.34728404      -1.91923497      -0.41593991
H       -0.34754414      -0.87875313       1.86495362
H       -1.13245686      -1.76693368      -0.29981164
H       -0.10242750       2.70342537      -0.73959811
11
Frame=3 idx=010257 GeodesicLength=0.4579730829606863 rxn_smarts="[C:1](#[C:2][c:3]1[c:4]([H:9])[n:5]([H:10])[n:6][c:7]1[H:11])[H:8]>>[C@:1]12([H:8])[C:2][C@:3]3([C@@:4]1([H:9])[N:5]2[H:10])[N:6]=[C:7]3[H:11]"
C        0.92993015      -0.96013979      -0.21454524
C        1.51418249       0.36850109      -0.14319785
C        0.37439263       0.91965406       0.55259136
C       -0.14676288      -0.40999302       0.91125912
N       -0.67948984      -0.85938614      -0.30750248
N       -1.34801481       1.05024075      -0.82614377
C       -0.42192729       1.74350554      -0.35125284
H        1.38725157      -1.91676550      -0.43167693
H       -0.34858531      -0.88257450       1.86307399
H       -1.16328776      -1.75617418      -0.29142354
H       -0.09768894       2.70313169      -0.76118181
11
Frame=4 idx=010257 GeodesicLength=0.6103889767995825 rxn_smarts="[C:1](#[C:2][c:3]1[c:4]([H:9])[n:5]([H:10])[n:6][c:7]1[H:11])[H:8]>>[C@:1]12([H:8])[C:2][C@:3]3([C@@:4]1([H:9])[N:5]2[H:10])[N:6]=[C:7]3[H:11]"
C        0.95768921      -0.96664371      -0.22231327
C        1.51752277       0.35755639      -0.11993490
C        0.36054105       0.91649607       0.54424508
C       -0.15962901      -0.40757966       0.91016968
N       -0.69599961      -0.85734433      -0.30658232
N       -1.34855996       1.04500553      -0.80486626
C       -0.42203729       1.75466495      -0.35048507
H        1.42924362      -1.91386210      -0.44718546
H       -0.34954239      -0.88626428       1.86105852
H       -1.19562096      -1.74460105      -0.28245495
H       -0.09360742       2.70257220      -0.78165105
11
Frame=5 idx=010257 GeodesicLength=0.7627092535646982 rxn_smarts="[C:1](#[C:2][c:3]1[c:4]([H:9])[n:5]([H:10])[n:6][c:7]1[H:11])[H:8]>>[C@:1]12([H:8])[C:2][C@:3]3([C@@:4]1([H:9])[N:5]2[H:10])[N:6]=[C:7]3[H:11]"
C        0.98650984      -0.97357158      -0.23004644
C        1.52044975       0.34591254      -0.09692505
C        0.34721436       0.91284543       0.53500940
C       -0.17275072      -0.40511776       0.90899338
N       -0.71360692      -0.85519255      -0.30543131
N       -1.34880183       1.04030848      -0.78458882
C       -0.42218520       1.76542888      -0.34977656
H        1.47339457      -1.91050578      -0.46237978
H       -0.35041292      -0.88982284       1.85887216
H       -1.22956772      -1.73214334      -0.27284755
H       -0.09024322       2.70185852      -0.80087943
11
Frame=6 idx=010257 GeodesicLength=0.9151057980067135 rxn_smarts="[C:1](#[C:2][c:3]1[c:4]([H:9])[n:5]([H:10])[n:6][c:7]1[H:11])[H:8]>>[C@:1]12([H:8])[C:2][C@:3]3([C@@:4]1([H:9])[N:5]2[H:10])[N:6]=[C:7]3[H:11]"
C        1.01654921      -0.98098253      -0.23769115
C        1.52293396       0.33350377      -0.07424753
C        0.33442150       0.90863147       0.52482056
C       -0.18614197      -0.40264061       0.90769018
N       -0.73246298      -0.85291633      -0.30403335
N       -1.34884653       1.03614792      -0.76524619
C       -0.42235504       1.77577180      -0.34912985
H        1.51996823      -1.90662851      -0.47720142
H       -0.35123248      -0.89328929       1.85644880
H       -1.26528398      -1.71871295      -0.26253026
H       -0.08754992       2.70111527      -0.81887978
11
Frame=7 idx=010257 GeodesicLength=1.0675822235317127 rxn_smarts="[C:1](#[C:2][c:3]1[c:4]([H:9])[n:5]([H:10])[n:6][c:7]1[H:11])[H:8]>>[C@:1]12([H:8])[C:2][C@:3]3([C@@:4]1([H:9])[N:5]2[H:10])[N:6]=[C:7]3[H:11]"
C        1.04792893      -0.98893908      -0.24523443
C        1.52495840       0.32024899      -0.05198617
C        0.32217979       0.90380317       0.51359694
C       -0.19982060      -0.40014483       0.90622877
N       -0.75268142      -0.85051098      -0.30237103
N       -1.34874672       1.03250128      -0.74685005
C       -0.42249404       1.78567559      -0.34859889
H        1.56915739      -1.90219232      -0.49156127
H       -0.35199866      -0.89668427       1.85374517
H       -1.30290667      -1.70421575      -0.25143068
H       -0.08557638       2.70045819      -0.83553834
11
Frame=8 idx=010257 GeodesicLength=1.2202408791285402 rxn_smarts="[C:1](#[C:2][c:3]1[c:4]([H:9])[n:5]([H:10])[n:6][c:7]1[H:11])[H:8]>>[C@:1]12([H:8])[C:2][C@:3]3([C@@:4]1([H:9])[N:5]2[H:10])[N:6]=[C:7]3[H:11]"
C        1.08081650      -0.99752025      -0.25264238
C        1.52649204       0.30607212      -0.03026354
C        0.31049426       0.89827572       0.50123941
C       -0.21379471      -0.39767065       0.90455032
N       -0.77444067      -0.84794804      -0.30042865
N       -1.34860383       1.02938273      -0.72932328
C       -0.42257744       1.79511763      -0.34820330
H        1.62128956      -1.89712406      -0.50533137
H       -0.35273878      -0.90006616       1.85067709
H       -1.34263077      -1.68851688      -0.23945006
H       -0.08430615       2.69999785      -0.85082425
11
Frame=9 idx=010257 GeodesicLength=1.3743053317130656 rxn_smarts="[C:1](#[C:2][c:3]1[c:4]([H:9])[n:5]([H:10])[n:6][c:7]1[H:11])[H:8]>>[C@:1]12([H:8])[C:2][C@:3]3([C@@:4]1([H:9])[N:5]2[H:10])[N:6]=[C:7]3[H:11]"
C        1.11559535      -1.00690178      -0.25993683
C        1.52739436       0.29068216      -0.00989020
C        0.29932460       0.89164717       0.48732715
C       -0.22800735      -0.39545081       0.90230210
N       -0.79841304      -0.84494564      -0.29817621
N       -1.34866627       1.02695764      -0.71257929
C       -0.42259881       1.80409789      -0.34785478
H        1.67753509      -1.89116019      -0.51743206
H       -0.35334176      -0.90366943       1.84689411
H       -1.38511153      -1.67113807      -0.22630664
H       -0.08371064       2.69988107      -0.86434736
11
Frame=10 idx=010257 GeodesicLength=1.5286045645187072 rxn_smarts="[C:1](#[C:2][c:3]1[c:4]([H:9])[n:5]([H:10])[n:6][c:7]1[H:11])[H:8]>>[C@:1]12([H:8])[C:2][C@:3]3([C@@:4]1([H:9])[N:5]2[H:10])[N:6]=[C:7]3[H:11]"
C        1.15227126      -1.01704337      -0.26705032
C        1.52773896       0.27416000       0.00960131
C        0.28867677       0.88406311       0.47198944
C       -0.24252613      -0.39338070       0.89965630
N       -0.82433610      -0.84170052      -0.29559627
N       -1.34888847       1.02508471      -0.69658326
C       -0.42251554       1.81255013      -0.34763011
H        1.73739085      -1.88428361      -0.52852301
H       -0.35391482      -0.90743824       1.84251603
H       -1.43013203      -1.65217920      -0.21198949
H       -0.08376476       2.70016770      -0.87639062
11
Frame=11 idx=010257 GeodesicLength=1.6831199014145695 rxn_smarts="[C:1](#[C:2][c:3]1[c:4]([H:9])[n:5]([H:10])[n:6][c:7]1[H:11])[H:8]>>[C@:1]12([H:8])[C:2][C@:3]3([C@@:4]1([H:9])[N:5]2[H:10])[N:6]=[C:7]3[H:11]"
C        1.19106744      -1.02802046      -0.27391722
C        1.52749781       0.25639160       0.02804838
C        0.27853710       0.87539473       0.45507159
C       -0.25735526      -0.39151075       0.89653300
N       -0.85243057      -0.83815289      -0.29262679
N       -1.34934464       1.02375192      -0.68132819
C       -0.42227655       1.82044047      -0.34752616
H        1.80111146      -1.87632820      -0.53847170
H       -0.35446551      -0.91143361       1.83743722
H       -1.47786524      -1.63146248      -0.19635078
H       -0.08447604       2.70092966      -0.88686934
11
Frame=12 idx=010257 GeodesicLength=1.8377859648580999 rxn_smarts="[C:1](#[C:2][c:3]1[c:4]([H:9])[n:5]([H:10])[n:6][c:7]1[H:11])[H:8]>>[C@:1]12([H:8])[C:2][C@:3]3([C@@:4]1([H:9])[N:5]2[H:10])[N:6]=[C:7]3[H:11]"
C        1.23223015      -1.03991536      -0.28047631
C        1.52663554       0.23725810       0.04530242
C        0.26886102       0.86547257       0.43638029
C       -0.27250428      -0.38991937       0.89283233
N       -0.88293175      -0.83425609      -0.28922890
N       -1.35012748       1.02297252      -0.66674204
C       -0.42186081       1.82769767      -0.34755075
H        1.86902680      -1.86705069      -0.54713032
H       -0.35500316      -0.91576594       1.83153241
H       -1.52853956      -1.60872871      -0.17917368
H       -0.08578649       2.70223530      -0.89574546
11
Frame=13 idx=010257 GeodesicLength=1.9926752024697074 rxn_smarts="[C:1](#[C:2][c:3]1[c:4]([H:9])[n:5]([H:10])[n:6][c:7]1[H:11])[H:8]>>[C@:1]12([H:8])[C:2][C@:3]3([C@@:4]1([H:9])[N:5]2[H:10])[N:6]=[C:7]3[H:11]"
C        1.27608809      -1.05278519      -0.28660732
C        1.52510816       0.21656191       0.06103728
C        0.25963078       0.85409508       0.41563787
C       -0.28797479      -0.38866913       0.88841695
N       -0.91615053      -0.82988361      -0.28530555
N       -1.35133221       1.02275130      -0.65284682
C       -0.42117705       1.83425679      -0.34774637
H        1.94135570      -1.85624295      -0.55421580
H       -0.35551900      -0.92049560       1.82463013
H       -1.58227812      -1.58376788      -0.16024929
H       -0.08775102       2.70417930      -0.90275106
11
Frame=14 idx=010257 GeodesicLength=2.147538744549415 rxn_smarts="[C:1](#[C:2][c:3]1[c:4]([H:9])[n:5]([H:10])[n:6][c:7]1[H:11])[H:8]>>[C@:1]12([H:8])[C:2][C@:3]3([C@@:4]1([H:9])[N:5]2[H:10])[N:6]=[C:7]3[H:11]"
C        1.32291185      -1.06672221      -0.29219923
C        1.52286370       0.19419088       0.07526177
C        0.25074176       0.84104031       0.39264251
C       -0.30381425      -0.38788733       0.88319976
N       -0.95237075      -0.82499153      -0.28078079
N       -1.35305303       1.02311390      -0.63949405
C       -0.42023215       1.84004229      -0.34798991
H        2.01851098      -1.84339194      -0.55981991
H       -0.35610043      -0.92582111       1.81660759
H       -1.63935240      -1.55625106      -0.13926965
H       -0.09010528       2.70667781      -0.90815809
11
Frame=15 idx=010257 GeodesicLength=2.302289802394865 rxn_smarts="[C:1](#[C:2][c:3]1[c:4]([H:9])[n:5]([H:10])[n:6][c:7]1[H:11])[H:8]>>[C@:1]12([H:8])[C:2][C@:3]3([C@@:4]1([H:9])[N:5]2[H:10])[N:6]=[C:7]3[H:11]"
C        1.37306003      -1.08179213      -0.29706730
C        1.51983363       0.16990498       0.08773414
C        0.24212096       0.82601303       0.36703134
C       -0.32006017      -0.38768959       0.87701545
N       -0.99198414      -0.81943499      -0.27552795
N       -1.35538872       1.02408771      -0.62664153
C       -0.41893034       1.84495393      -0.34825014
H        2.10082306      -1.82799551      -0.56380820
H       -0.35680493      -0.93186822       1.80727675
H       -1.69993492      -1.52587420      -0.11589461
H       -0.09273445       2.70969497      -0.91186797
11
Frame=16 idx=010257 GeodesicLength=2.4568655553925174 rxn_smarts="[C:1](#[C:2][c:3]1[c:4]([H:9])[n:5]([H:10])[n:6][c:7]1[H:11])[H:8]>>[C@:1]12([H:8])[C:2][C@:3]3([C@@:4]1([H:9])[N:5]2[H:10])[N:6]=[C:7]3[H:11]"
C        1.42690202      -1.09807010      -0.30108459
C        1.51590808       0.14336221       0.09812875
C        0.23366848       0.80861979       0.33833331
C       -0.33677396      -0.38824794       0.86963987
N       -1.03549167      -0.81304082      -0.26940484
N       -1.35846168       1.02572718      -0.61420383
C       -0.41714273       1.84885531      -0.34844854
H        2.18887308      -1.80931311      -0.56590766
H       -0.35770450      -0.93884893       1.79637748
H       -1.76433965      -1.49218080      -0.08962748
H       -0.09543746       2.71313722      -0.91380246
