13
Frame=0 idx=006091 GeodesicLength=0.0 rxn_smarts="[C:1]([C@@:2]1([H:10])[N:3]([H:11])[C@:4]1([C:5](=[O:6])[H:13])[H:12])([H:7])([H:8])[H:9]>>[C:1]([C:5](=[O:6])[H:13])([H:7])([H:8])[H:9].[C:2]1([H:10])=[C:4]([H:12])[N:3]1[H:11]"
C       -0.42956237       0.09717809       1.36871506
C       -0.26420723      -0.99496512      -0.62152245
N       -0.67972054      -0.10378751      -1.52350997
C        0.72584812      -0.08112948      -0.99310671
C        0.68121356       0.85475561       0.24415032
O        1.77416855       1.07460715       0.81047442
H       -0.33454488       0.91130419       2.08697836
H        0.00884242      -0.78756882       1.83425830
H       -1.49890799      -0.03754032       1.17870757
H       -0.57473066      -1.95714791      -0.25396769
H       -0.97582865      -0.37842311      -2.44979734
H        1.60593984      -0.25338586      -1.59608258
H       -0.03851015       1.65610305      -0.08529735
13
Frame=1 idx=006091 GeodesicLength=0.10202834075762844 rxn_smarts="[C:1]([C@@:2]1([H:10])[N:3]([H:11])[C@:4]1([C:5](=[O:6])[H:13])[H:12])([H:7])([H:8])[H:9]>>[C:1]([C:5](=[O:6])[H:13])([H:7])([H:8])[H:9].[C:2]1([H:10])=[C:4]([H:12])[N:3]1[H:11]"
C       -0.43561165       0.09284811       1.37003407
C       -0.27044599      -1.00017171      -0.61822939
N       -0.68684436      -0.09744008      -1.51976861
C        0.72100065      -0.09380933      -0.99972153
C        0.69047337       0.87073793       0.24782179
O        1.79023547       1.08275008       0.79657454
H       -0.35818951       0.91329763       2.08364985
H        0.01248672      -0.78098593       1.84659675
H       -1.50507141      -0.05186413       1.18896289
H       -0.57025896      -1.97391810      -0.27348762
H       -0.97084406      -0.37629152      -2.44891139
H        1.60484030      -0.26426785      -1.59690953
H       -0.02177056       1.67911489      -0.07661181
13
Frame=2 idx=006091 GeodesicLength=0.20402991982657898 rxn_smarts="[C:1]([C@@:2]1([H:10])[N:3]([H:11])[C@:4]1([C:5](=[O:6])[H:13])[H:12])([H:7])([H:8])[H:9]>>[C:1]([C:5](=[O:6])[H:13])([H:7])([H:8])[H:9].[C:2]1([H:10])=[C:4]([H:12])[N:3]1[H:11]"
C       -0.44186295       0.08849146       1.37129180
C       -0.27648847      -1.00574158      -0.61483395
N       -0.69371394      -0.09121043      -1.51577976
C        0.71614708      -0.10677021      -1.00627537
C        0.70002527       0.88688769       0.25179625
O        1.80676079       1.09086223       0.78202242
H       -0.38258214       0.91538162       2.07965242
H        0.01596001      -0.77382261       1.85925253
H       -1.51121386      -0.06682497       1.19927131
H       -0.56581001      -1.99054609      -0.29382651
H       -0.96646384      -0.37403471      -2.44742853
H        1.60380318      -0.27500624      -1.59760985
H       -0.00456112       1.70233384      -0.06753277
13
Frame=3 idx=006091 GeodesicLength=0.3060118066627738 rxn_smarts="[C:1]([C@@:2]1([H:10])[N:3]([H:11])[C@:4]1([C:5](=[O:6])[H:13])[H:12])([H:7])([H:8])[H:9]>>[C:1]([C:5](=[O:6])[H:13])([H:7])([H:8])[H:9].[C:2]1([H:10])=[C:4]([H:12])[N:3]1[H:11]"
C       -0.44831399       0.08409248       1.37249408
C       -0.28233217      -1.01169217      -0.61133593
N       -0.70031732      -0.08510031      -1.51152924
C        0.71128812      -0.12003382      -1.01277068
C        0.70987485       0.90321970       0.25609540
O        1.82373192       1.09897594       0.76675871
H       -0.40772462       0.91752915       2.07494765
H        0.01926637      -0.76605393       1.87222870
H       -1.51731306      -0.08244623       1.20965036
H       -0.56145192      -2.00698869      -0.31498380
H       -0.96265156      -0.37166325      -2.44536988
H        1.60283363      -0.28560632      -1.59817469
H        0.01310974       1.72576744      -0.05801070
13
Frame=4 idx=006091 GeodesicLength=0.4079788232586906 rxn_smarts="[C:1]([C@@:2]1([H:10])[N:3]([H:11])[C@:4]1([C:5](=[O:6])[H:13])[H:12])([H:7])([H:8])[H:9]>>[C:1]([C:5](=[O:6])[H:13])([H:7])([H:8])[H:9].[C:2]1([H:10])=[C:4]([H:12])[N:3]1[H:11]"
C       -0.45496266       0.07963468       1.37364587
C       -0.28797618      -1.01804014      -0.60773682
N       -0.70664218      -0.07910980      -1.50700315
C        0.70642714      -0.13362083      -1.01920977
C        0.72003046       0.91974885       0.26074461
O        1.84113258       1.10712614       0.75071922
H       -0.43362023       0.91970749       2.06948934
H        0.02240653      -0.75765491       1.88552730
H       -1.52334301      -0.09874781       1.22011695
H       -0.55725276      -2.02320342      -0.33695215
H       -0.95937173      -0.36918675      -2.44275466
H        1.60193833      -0.29607530      -1.59859536
H        0.03123370       1.74942181      -0.04799140
13
Frame=5 idx=006091 GeodesicLength=0.5099346351667708 rxn_smarts="[C:1]([C@@:2]1([H:10])[N:3]([H:11])[C@:4]1([C:5](=[O:6])[H:13])[H:12])([H:7])([H:8])[H:9]>>[C:1]([C:5](=[O:6])[H:13])([H:7])([H:8])[H:9].[C:2]1([H:10])=[C:4]([H:12])[N:3]1[H:11]"
C       -0.46180607       0.07509841       1.37475061
C       -0.29341790      -1.02480361      -0.60403924
N       -0.71267429      -0.07324052      -1.50218942
C        0.70156880      -0.14755380      -1.02559669
C        0.73050216       0.93649032       0.26576905
O        1.85894031       1.11535077       0.73384219
H       -0.46026527       0.92188464       2.06323336
H        0.02537739      -0.74860128       1.89914851
H       -1.52927955      -0.11574655       1.23068495
H       -0.55328073      -2.03914778      -0.35971911
H       -0.95659175      -0.36661092      -2.43959940
H        1.60112539      -0.30642093      -1.59886345
H        0.04980153       1.77330125      -0.03742136
13
Frame=6 idx=006091 GeodesicLength=0.6118876794136849 rxn_smarts="[C:1]([C@@:2]1([H:10])[N:3]([H:11])[C@:4]1([C:5](=[O:6])[H:13])[H:12])([H:7])([H:8])[H:9]>>[C:1]([C:5](=[O:6])[H:13])([H:7])([H:8])[H:9].[C:2]1([H:10])=[C:4]([H:12])[N:3]1[H:11]"
C       -0.46883817       0.07046183       1.37581015
C       -0.29865527      -1.03200169      -0.60024847
N       -0.71839405      -0.06749325      -1.49707676
C        0.69672109      -0.16185834      -1.03193673
C        0.74130193       0.95346049       0.27119765
O        1.87712623       1.12369668       0.71605142
H       -0.48765981       0.92401827       2.05612475
H        0.02817186      -0.73886590       1.91309028
H       -1.53509013      -0.13345722       1.24136796
H       -0.54961340      -2.05477864      -0.38326480
H       -0.95427752      -0.36393469      -2.43591397
H        1.60040689      -0.31665767      -1.59896594
H        0.06880035       1.79741012      -0.02623553
13
Frame=7 idx=006091 GeodesicLength=0.7138391689188464 rxn_smarts="[C:1]([C@@:2]1([H:10])[N:3]([H:11])[C@:4]1([C:5](=[O:6])[H:13])[H:12])([H:7])([H:8])[H:9]>>[C:1]([C:5](=[O:6])[H:13])([H:7])([H:8])[H:9].[C:2]1([H:10])=[C:4]([H:12])[N:3]1[H:11]"
C       -0.47605104       0.06570144       1.37682562
C       -0.30368930      -1.03965310      -0.59637196
N       -0.72378006      -0.06186903      -1.49165595
C        0.69188842      -0.17656106      -1.03823560
C        0.75244144       0.97067840       0.27705737
O        1.89565479       1.13221037       0.69727745
H       -0.51579031       0.92606577       2.04811030
H        0.03078151      -0.72842697       1.92734615
H       -1.54074524      -0.15188823       1.25217972
H       -0.54632384      -2.07005113      -0.40756055
H       -0.95239390      -0.36115941      -2.43171890
H        1.59979307      -0.32680192      -1.59888664
H        0.08821445       1.82175486      -0.01436700
13
Frame=8 idx=006091 GeodesicLength=0.8157985176254143 rxn_smarts="[C:1]([C@@:2]1([H:10])[N:3]([H:11])[C@:4]1([C:5](=[O:6])[H:13])[H:12])([H:7])([H:8])[H:9]>>[C:1]([C:5](=[O:6])[H:13])([H:7])([H:8])[H:9].[C:2]1([H:10])=[C:4]([H:12])[N:3]1[H:11]"
C       -0.48343406       0.06079113       1.37779640
C       -0.30852196      -1.04777500      -0.59241961
N       -0.72880543      -0.05636577      -1.48592011
C        0.68708095      -0.19169056      -1.04450409
C        0.76393441       0.98816448       0.28338061
O        1.91448157       1.14095008       0.67743525
H       -0.54464022       0.92796964       2.03912504
H        0.03319019      -0.71726060       1.94190857
H       -1.54620728      -0.17104127       1.26313087
H       -0.54349740      -2.08492261      -0.43256817
H       -0.95090452      -0.35828556      -2.42702736
H        1.59929952      -0.33687568      -1.59860497
H        0.10802422       1.84634172      -0.00173242
13
Frame=9 idx=006091 GeodesicLength=0.9178201591849611 rxn_smarts="[C:1]([C@@:2]1([H:10])[N:3]([H:11])[C@:4]1([C:5](=[O:6])[H:13])[H:12])([H:7])([H:8])[H:9]>>[C:1]([C:5](=[O:6])[H:13])([H:7])([H:8])[H:9].[C:2]1([H:10])=[C:4]([H:12])[N:3]1[H:11]"
C       -0.49097593       0.05569789       1.37871551
C       -0.31318029      -1.05639299      -0.58841153
N       -0.73343410      -0.05098274      -1.47986694
C        0.68232621      -0.20730623      -1.05073672
C        0.77579886       1.00595043       0.29022309
O        1.93350784       1.15001483       0.65638338
H       -0.57414832       0.92966858       2.02910047
H        0.03538183      -0.70535210       1.95674445
H       -1.55144844      -0.19091268       1.27423807
H       -0.54122577      -2.09934646      -0.45823547
H       -0.94974506      -0.35527059      -2.42185023
H        1.59894939      -0.34693289      -1.59807738
H        0.12819379       1.87116495       0.01177329
13
Frame=10 idx=006091 GeodesicLength=1.0198660233261005 rxn_smarts="[C:1]([C@@:2]1([H:10])[N:3]([H:11])[C@:4]1([C:5](=[O:6])[H:13])[H:12])([H:7])([H:8])[H:9]>>[C:1]([C:5](=[O:6])[H:13])([H:7])([H:8])[H:9].[C:2]1([H:10])=[C:4]([H:12])[N:3]1[H:11]"
C       -0.49865309       0.05039344       1.37958742
C       -0.31764637      -1.06551513      -0.58435385
N       -0.73763953      -0.04571370      -1.47349107
C        0.67761681      -0.22341451      -1.05695975
C        0.78805905       1.02404742       0.29760121
O        1.95269782       1.15944626       0.63408321
H       -0.60432618       0.93110252       2.01797509
H        0.03733641      -0.69268319       1.97185915
H       -1.55641832      -0.21148560       1.28550699
H       -0.53959737      -2.11328442      -0.48452297
H       -0.94890311      -0.35214860      -2.41620697
H        1.59875520      -0.35697901      -1.59729554
H        0.14871869       1.89623453       0.02621708
13
Frame=11 idx=006091 GeodesicLength=1.1219200021211886 rxn_smarts="[C:1]([C@@:2]1([H:10])[N:3]([H:11])[C@:4]1([C:5](=[O:6])[H:13])[H:12])([H:7])([H:8])[H:9]>>[C:1]([C:5](=[O:6])[H:13])([H:7])([H:8])[H:9].[C:2]1([H:10])=[C:4]([H:12])[N:3]1[H:11]"
C       -0.50644809       0.04484658       1.38040715
C       -0.32192363      -1.07515713      -0.58026302
N       -0.74139125      -0.04055704      -1.46679347
C        0.67295939      -0.24004671      -1.06318419
C        0.80073647       1.04247777       0.30554317
O        1.97197909       1.16931263       0.61045991
H       -0.63513058       0.93221671       2.00568669
H        0.03903716      -0.67924639       1.98723244
H       -1.56108545      -0.23274148       1.29694110
H       -0.53869901      -2.12669952      -0.51137229
H       -0.94834180      -0.34891521      -2.41011452
H        1.59873256      -0.36704314      -1.59622993
H        0.16957514       1.92155294       0.04168696
13
Frame=12 idx=006091 GeodesicLength=1.223983424748275 rxn_smarts="[C:1]([C@@:2]1([H:10])[N:3]([H:11])[C@:4]1([C:5](=[O:6])[H:13])[H:12])([H:7])([H:8])[H:9]>>[C:1]([C:5](=[O:6])[H:13])([H:7])([H:8])[H:9].[C:2]1([H:10])=[C:4]([H:12])[N:3]1[H:11]"
C       -0.51433298       0.03902232       1.38117255
C       -0.32602218      -1.08533239      -0.57615723
N       -0.74465095      -0.03550546      -1.45977458
C        0.66836444      -0.25723931      -1.06942607
C        0.81385791       1.06126683       0.31408515
O        1.99126296       1.17969838       0.58541317
H       -0.66652296       0.93293680       1.99215226
H        0.04046193      -0.66503176       2.00284359
H       -1.56540904      -0.25465414       1.30854626
H       -0.53863162      -2.13955688      -0.53871673
H       -0.94801983      -0.34556277      -2.40359033
H        1.59890314      -0.37716666      -1.59484199
H        0.19073918       1.94712505       0.05829397
13
Frame=13 idx=006091 GeodesicLength=1.3260553410936455 rxn_smarts="[C:1]([C@@:2]1([H:10])[N:3]([H:11])[C@:4]1([C:5](=[O:6])[H:13])[H:12])([H:7])([H:8])[H:9]>>[C:1]([C:5](=[O:6])[H:13])([H:7])([H:8])[H:9].[C:2]1([H:10])=[C:4]([H:12])[N:3]1[H:11]"
C       -0.52227840       0.03288522       1.38187881
C       -0.32995230      -1.09605423      -0.57205620
N       -0.74737696      -0.03055308      -1.45243956
C        0.66384072      -0.27503244      -1.07570412
C        0.82745496       1.08044050       0.32326487
O        2.01044217       1.19069053       0.55884969
H       -0.69844714       0.93319758       1.97730022
H        0.04158760      -0.65004254       2.01866595
H       -1.56935613      -0.27718483       1.32032074
H       -0.53948924      -2.15182528      -0.56648415
H       -0.94789874      -0.34208114      -2.39664963
H        1.59928708      -0.38739058      -1.59309079
H        0.21218639       1.97295031       0.07614416
13
Frame=14 idx=006091 GeodesicLength=1.4281336726515201 rxn_smarts="[C:1]([C@@:2]1([H:10])[N:3]([H:11])[C@:4]1([C:5](=[O:6])[H:13])[H:12])([H:7])([H:8])[H:9]>>[C:1]([C:5](=[O:6])[H:13])([H:7])([H:8])[H:9].[C:2]1([H:10])=[C:4]([H:12])[N:3]1[H:11]"
C       -0.53024965       0.02639999       1.38251965
C       -0.33373395      -1.10733295      -0.56798374
N       -0.74952154      -0.02569172      -1.44479680
C        0.65939682      -0.29346953      -1.08203934
C        0.84156080       1.10002792       0.33312024
O        2.02939178       1.20239674       0.53065696
H       -0.73082845       0.93291447       1.96104772
H        0.04238435      -0.63428148       2.03467009
H       -1.57288938      -0.30028532       1.33226471
H       -0.54137860      -2.16347929      -0.59459548
H       -0.94793181      -0.33845989      -2.38931567
H        1.59991097      -0.39777235      -1.59092009
H        0.23388866       1.99903341       0.09537175
13
Frame=15 idx=006091 GeodesicLength=1.5302044163669573 rxn_smarts="[C:1]([C@@:2]1([H:10])[N:3]([H:11])[C@:4]1([C:5](=[O:6])[H:13])[H:12])([H:7])([H:8])[H:9]>>[C:1]([C:5](=[O:6])[H:13])([H:7])([H:8])[H:9].[C:2]1([H:10])=[C:4]([H:12])[N:3]1[H:11]"
C       -0.53820923       0.01953071       1.38308738
C       -0.33738679      -1.11917698      -0.56396536
N       -0.75103760      -0.02091332      -1.43685849
C        0.65503990      -0.31259581      -1.08845308
C        0.85621622       1.12005420       0.34368516
O        2.04796593       1.21492975       0.50072419
H       -0.76357582       0.93200579       1.94332042
H        0.04281506      -0.61775808       2.05082168
H       -1.57598056      -0.32389141       1.34437166
H       -0.54439458      -2.17450053      -0.62296708
H       -0.94807431      -0.33468807      -2.38161083
H        1.60079759      -0.40836868      -1.58827097
H        0.25582420       2.02537242       0.11611533
13
Frame=16 idx=006091 GeodesicLength=1.632270577932388 rxn_smarts="[C:1]([C@@:2]1([H:10])[N:3]([H:11])[C@:4]1([C:5](=[O:6])[H:13])[H:12])([H:7])([H:8])[H:9]>>[C:1]([C:5](=[O:6])[H:13])([H:7])([H:8])[H:9].[C:2]1([H:10])=[C:4]([H:12])[N:3]1[H:11]"
C       -0.54611287       0.01224001       1.38357550
C       -0.34094070      -1.13159346      -0.56002903
N       -0.75186934      -0.01620611      -1.42864098
C        0.65077793      -0.33246294      -1.09497381
C        0.87147002       1.14054741       0.35499933
O        2.06599035       1.22841857       0.46892193
H       -0.79659135       0.93038275       1.92403810
H        0.04284342      -0.60047840       2.06708583
H       -1.57859972      -0.34793903       1.35663996
H       -0.54864620      -2.18487005      -0.65151773
H       -0.94827403      -0.33075341      -2.37355829
H        1.60197683      -0.41925012      -1.58507004
H        0.27797566       2.05196479       0.13852922
