12
Frame=0 idx=011600 GeodesicLength=0.0 rxn_smarts="[N:1]([C@:2]12[C:3]([H:10])([H:11])[C@@:4]1([H:12])[O:5][C:6]2=[O:7])([H:8])[H:9]>>[N:1]([C+:2]=[C:6]([O:5][C:4](=[C:3]([H:10])[H:11])[H:12])[O-:7])([H:8])[H:9]"
N        0.75914463       1.36298407       0.78884896
C        0.51560440       0.58739204      -0.24567837
C       -1.45193298      -0.08658026      -0.60912306
C       -0.82675088      -1.11252429      -0.00220540
O        0.24437480      -1.68887365      -0.65975285
C        1.18870739      -0.69055672      -0.44294370
O        2.36623531      -0.88894803      -0.49204628
H        0.57078901       2.34913045       0.73659925
H        1.19615502       1.03804667       1.63990763
H       -2.19645614       0.48272842      -0.06620879
H       -1.38986400       0.05847753      -1.67655820
H       -0.97600659      -1.41127619       1.02916077
12
Frame=1 idx=011600 GeodesicLength=0.05558561433603018 rxn_smarts="[N:1]([C@:2]12[C:3]([H:10])([H:11])[C@@:4]1([H:12])[O:5][C:6]2=[O:7])([H:8])[H:9]>>[N:1]([C+:2]=[C:6]([O:5][C:4](=[C:3]([H:10])[H:11])[H:12])[O-:7])([H:8])[H:9]"
N        0.76286327       1.35692463       0.81193149
C        0.50465472       0.58679629      -0.22550840
C       -1.46441907      -0.09547380      -0.62759655
C       -0.82698375      -1.10248307       0.00384352
O        0.24673798      -1.68232470      -0.64980202
C        1.19038401      -0.68326036      -0.44448188
O        2.36767444      -0.87292846      -0.51780971
H        0.59907193       2.34744561       0.75857933
H        1.22532376       1.02621868       1.64732589
H       -2.22482555       0.46790541      -0.10092297
H       -1.40407477       0.02257723      -1.69869236
H       -0.97640697      -1.37139747       1.04313363
12
Frame=2 idx=011600 GeodesicLength=0.11042362716703463 rxn_smarts="[N:1]([C@:2]12[C:3]([H:10])([H:11])[C@@:4]1([H:12])[O:5][C:6]2=[O:7])([H:8])[H:9]>>[N:1]([C+:2]=[C:6]([O:5][C:4](=[C:3]([H:10])[H:11])[H:12])[O-:7])([H:8])[H:9]"
N        0.76794765       1.35112074       0.83443401
C        0.49450453       0.58621869      -0.20540647
C       -1.47604571      -0.10399630      -0.64565759
C       -0.82724101      -1.09190417       0.00981678
O        0.24909558      -1.67550684      -0.63966139
C        1.19216020      -0.67590382      -0.44579885
O        2.36859948      -0.85683245      -0.54398751
H        0.62569275       2.34499974       0.78046778
H        1.25301169       1.01420292       1.65455556
H       -2.25136479       0.45338055      -0.13473731
H       -1.41847568      -0.01440940      -1.71991063
H       -0.97788470      -1.33136965       1.05588562
12
Frame=3 idx=011600 GeodesicLength=0.1645941314868233 rxn_smarts="[N:1]([C@:2]12[C:3]([H:10])([H:11])[C@@:4]1([H:12])[O:5][C:6]2=[O:7])([H:8])[H:9]>>[N:1]([C+:2]=[C:6]([O:5][C:4](=[C:3]([H:10])[H:11])[H:12])[O-:7])([H:8])[H:9]"
N        0.77416472       1.34553296       0.85641083
C        0.48508327       0.58568463      -0.18537462
C       -1.48689641      -0.11218365      -0.66335904
C       -0.82751828      -1.08084604       0.01562022
O        0.25146373      -1.66837930      -0.62948594
C        1.19402537      -0.66844784      -0.44693037
O        2.36898773      -0.84064666      -0.57031061
H        0.65110662       2.34202727       0.80215770
H        1.27932533       1.00201315       1.66169707
H       -2.27618541       0.43913896      -0.16763893
H       -1.43320882      -0.05253842      -1.74014708
H       -0.98034785      -1.29135507       1.06736076
12
Frame=4 idx=011600 GeodesicLength=0.21814358161790753 rxn_smarts="[N:1]([C@:2]12[C:3]([H:10])([H:11])[C@@:4]1([H:12])[O:5][C:6]2=[O:7])([H:8])[H:9]>>[N:1]([C+:2]=[C:6]([O:5][C:4](=[C:3]([H:10])[H:11])[H:12])[O-:7])([H:8])[H:9]"
N        0.78132161       1.34013182       0.87789822
C        0.47634993       0.58521210      -0.16543662
C       -1.49703992      -0.12005105      -0.68075437
C       -0.82780807      -1.06935397       0.02116735
O        0.25384368      -1.66091509      -0.61943305
C        1.19597629      -0.66087263      -0.44792581
O        2.36884904      -0.82441159      -0.59648057
H        0.67554007       2.33867720       0.82360008
H        1.30443480       0.98968858       1.66878104
H       -2.29936522       0.42521086      -0.19961027
H       -1.44840149      -0.09182561      -1.75932878
H       -0.98370072      -1.25149062       1.07752277
12
Frame=5 idx=011600 GeodesicLength=0.2710941477837364 rxn_smarts="[N:1]([C@:2]12[C:3]([H:10])([H:11])[C@@:4]1([H:12])[O:5][C:6]2=[O:7])([H:8])[H:9]>>[N:1]([C+:2]=[C:6]([O:5][C:4](=[C:3]([H:10])[H:11])[H:12])[O-:7])([H:8])[H:9]"
N        0.78926810       1.33489273       0.89891548
C        0.46829249       0.58480733      -0.14563269
C       -1.50653129      -0.12760144      -0.69789644
C       -0.82810192      -1.05746354       0.02638526
O        0.25622511      -1.65310638      -0.60964873
C        1.19801988      -0.65318479      -0.44883003
O        2.36822800      -0.80820599      -0.62223055
H        0.69903172       2.33504572       0.84479430
H        1.32852943       0.97728746       1.67579496
H       -2.32095187       0.41166812      -0.23063357
H       -1.46415580      -0.13225132      -1.77737633
H       -0.98785386      -1.21188789       1.08635835
12
Frame=6 idx=011600 GeodesicLength=0.323448854253582 rxn_smarts="[N:1]([C@:2]12[C:3]([H:10])([H:11])[C@@:4]1([H:12])[O:5][C:6]2=[O:7])([H:8])[H:9]>>[N:1]([C+:2]=[C:6]([O:5][C:4](=[C:3]([H:10])[H:11])[H:12])[O-:7])([H:8])[H:9]"
N        0.79781206       1.32979713       0.91946306
C        0.46087730       0.58447825      -0.12602872
C       -1.51545700      -0.13483894      -0.71480721
C       -0.82837480      -1.04522654       0.03116343
O        0.25860074      -1.64491119      -0.60038488
C        1.20015824      -0.64536078      -0.44975060
O        2.36723525      -0.79216385      -0.64702643
H        0.72169740       2.33121554       0.86565272
H        1.35174544       0.96487497       1.68267203
H       -2.34100754       0.39855860      -0.26060509
H       -1.48063941      -0.17371318      -1.79416715
H       -0.99264768      -1.17271002       1.09381884
12
Frame=7 idx=011600 GeodesicLength=0.37519564254040727 rxn_smarts="[N:1]([C@:2]12[C:3]([H:10])([H:11])[C@@:4]1([H:12])[O:5][C:6]2=[O:7])([H:8])[H:9]>>[N:1]([C+:2]=[C:6]([O:5][C:4](=[C:3]([H:10])[H:11])[H:12])[O-:7])([H:8])[H:9]"
N        0.80684927       1.32481602       0.93948328
C        0.45412091       0.58421674      -0.10672084
C       -1.52386940      -0.14175593      -0.73150045
C       -0.82858731      -1.03265003       0.03544437
O        0.26097065      -1.63630780      -0.59180104
C        1.20242288      -0.63741447      -0.45075693
O        2.36602176      -0.77642315      -0.67057513
H        0.74344793       2.32721165       0.88615934
H        1.37407391       0.95244920       1.68937620
H       -2.35955227       0.38599822      -0.28945094
H       -1.49796021      -0.21612491      -1.80956297
H       -0.99793812      -1.13401554       1.09990512
12
Frame=8 idx=011600 GeodesicLength=0.4264438984432147 rxn_smarts="[N:1]([C@:2]12[C:3]([H:10])([H:11])[C@@:4]1([H:12])[O:5][C:6]2=[O:7])([H:8])[H:9]>>[N:1]([C+:2]=[C:6]([O:5][C:4](=[C:3]([H:10])[H:11])[H:12])[O-:7])([H:8])[H:9]"
N        0.81624157       1.31989961       0.95911865
C        0.44794996       0.58404471      -0.08766206
C       -1.53182040      -0.14839447      -0.74809813
C       -0.82876079      -1.01975034       0.03920499
O        0.26333831      -1.62730240      -0.58389099
C        1.20478541      -0.62930107      -0.45186955
O        2.36464772      -0.76092454      -0.69286307
H        0.76446752       2.32306126       0.90640144
H        1.39579359       0.94004026       1.69587766
H       -2.37673335       0.37398462      -0.31736586
H       -1.51619117      -0.25956795      -1.82352242
H       -1.00371838      -1.09578969       1.10466934
12
Frame=9 idx=011600 GeodesicLength=0.4772606529200354 rxn_smarts="[N:1]([C@:2]12[C:3]([H:10])([H:11])[C@@:4]1([H:12])[O:5][C:6]2=[O:7])([H:8])[H:9]>>[N:1]([C+:2]=[C:6]([O:5][C:4](=[C:3]([H:10])[H:11])[H:12])[O-:7])([H:8])[H:9]"
N        0.82593148       1.31497341       0.97853108
C        0.44231958       0.58396856      -0.06875857
C       -1.53928577      -0.15480976      -0.76475038
C       -0.82894243      -1.00649483       0.04249100
O        0.26569975      -1.61794643      -0.57643757
C        1.20721937      -0.62101781      -0.45299538
O        2.36306144      -0.74547066      -0.71435530
H        0.78479465       2.31873635       0.92660525
H        1.41717606       0.92763196       1.70214542
H       -2.39260604       0.36257178      -0.34467238
H       -1.53523475      -0.30425809      -1.83599003
H       -1.01013335      -1.05788447       1.10818687
12
Frame=10 idx=011600 GeodesicLength=0.5277240513195479 rxn_smarts="[N:1]([C@:2]12[C:3]([H:10])([H:11])[C@@:4]1([H:12])[O:5][C:6]2=[O:7])([H:8])[H:9]>>[N:1]([C+:2]=[C:6]([O:5][C:4](=[C:3]([H:10])[H:11])[H:12])[O-:7])([H:8])[H:9]"
N        0.83582943       1.31002816       0.99771787
C        0.43718719       0.58404486      -0.05009222
C       -1.54632728      -0.16105421      -0.78150378
C       -0.82908538      -0.99288124       0.04526128
O        0.26809617      -1.60818726      -0.56955930
C        1.20972982      -0.61246744      -0.45429004
O        2.36139665      -0.73006568      -0.73481230
H        0.80481225       2.31426776       0.94669317
H        1.43794192       0.91508053       1.70829606
H       -2.40726810       0.35173160      -0.37138994
H       -1.55528396      -0.35022787      -1.84680031
H       -1.01702869      -1.02026921       1.11047952
12
Frame=11 idx=011600 GeodesicLength=0.5778098212555131 rxn_smarts="[N:1]([C@:2]12[C:3]([H:10])([H:11])[C@@:4]1([H:12])[O:5][C:6]2=[O:7])([H:8])[H:9]>>[N:1]([C+:2]=[C:6]([O:5][C:4](=[C:3]([H:10])[H:11])[H:12])[O-:7])([H:8])[H:9]"
N        0.84586553       1.30503890       1.01665478
C        0.43255413       0.58423851      -0.03171130
C       -1.55297703      -0.16717002      -0.79839044
C       -0.82917621      -0.97893196       0.04749341
O        0.27052204      -1.59805174      -0.56330973
C        1.21234002      -0.60370093      -0.45573478
O        2.35974790      -0.71477489      -0.75420302
H        0.82432385       2.30964545       0.96667426
H        1.45814900       0.90242996       1.71428078
H       -2.42069060       0.34159831      -0.39753166
H       -1.57630759      -0.39733307      -1.85578536
H       -1.02435105      -0.98298853       1.11156307
12
Frame=12 idx=011600 GeodesicLength=0.6275709330817806 rxn_smarts="[N:1]([C@:2]12[C:3]([H:10])([H:11])[C@@:4]1([H:12])[O:5][C:6]2=[O:7])([H:8])[H:9]>>[N:1]([C+:2]=[C:6]([O:5][C:4](=[C:3]([H:10])[H:11])[H:12])[O-:7])([H:8])[H:9]"
N        0.85597361       1.29996855       1.03537263
C        0.42838273       0.58456558      -0.01364179
C       -1.55926991      -0.17323129      -0.81547774
C       -0.82920193      -0.96464829       0.04916559
O        0.27299432      -1.58752814      -0.55771551
C        1.21504119      -0.59467544      -0.45739260
O        2.35819590      -0.69959867      -0.77245215
H        0.84339320       2.30485250       0.98659921
H        1.47782478       0.88964548       1.72007522
H       -2.43292188       0.33219560      -0.42320577
H       -1.59837049      -0.44555714      -1.86278004
H       -1.03204151      -0.94598875       1.11145295
12
Frame=13 idx=011600 GeodesicLength=0.6769765882564578 rxn_smarts="[N:1]([C@:2]12[C:3]([H:10])([H:11])[C@@:4]1([H:12])[O:5][C:6]2=[O:7])([H:8])[H:9]>>[N:1]([C+:2]=[C:6]([O:5][C:4](=[C:3]([H:10])[H:11])[H:12])[O-:7])([H:8])[H:9]"
N        0.86607268       1.29481203       1.05381093
C        0.42466905       0.58499187       0.00402585
C       -1.56527939      -0.17929579      -0.83274989
C       -0.82913762      -0.95007985       0.05022761
O        0.27550012      -1.57663154      -0.55294089
C        1.21785346      -0.58542862      -0.45931696
O        2.35692080      -0.68470551      -0.78926521
H        0.86180435       2.29989947       1.00643483
H        1.49702176       0.87680579       1.72557439
H       -2.44397107       0.32360683      -0.44833428
H       -1.62147420      -0.49460728      -1.86761723
H       -1.03997995      -0.90936740       1.11015084
12
Frame=14 idx=011600 GeodesicLength=0.726083682888343 rxn_smarts="[N:1]([C@:2]12[C:3]([H:10])([H:11])[C@@:4]1([H:12])[O:5][C:6]2=[O:7])([H:8])[H:9]>>[N:1]([C+:2]=[C:6]([O:5][C:4](=[C:3]([H:10])[H:11])[H:12])[O-:7])([H:8])[H:9]"
N        0.87612300       1.28953214       1.07200971
C        0.42137511       0.58552383       0.02128841
C       -1.57102617      -0.18546831      -0.85027045
C       -0.82898022      -0.93522606       0.05069608
O        0.27805920      -1.56537652      -0.54892586
C        1.22077146      -0.57594003      -0.46151146
O        2.35594862      -0.67003162      -0.80479753
H        0.87961983       2.29476482       1.02624510
H        1.51572952       0.86386097       1.73080193
H       -2.45387113       0.31585697      -0.47308334
H       -1.64559141      -0.54445940      -1.87015095
H       -1.04815782      -0.87303679       1.10769838
12
Frame=15 idx=011600 GeodesicLength=0.774951831755008 rxn_smarts="[N:1]([C@:2]12[C:3]([H:10])([H:11])[C@@:4]1([H:12])[O:5][C:6]2=[O:7])([H:8])[H:9]>>[N:1]([C+:2]=[C:6]([O:5][C:4](=[C:3]([H:10])[H:11])[H:12])[O-:7])([H:8])[H:9]"
N        0.88610288       1.28409224       1.09001353
C        0.41846468       0.58617645       0.03814794
C       -1.57651756      -0.19187121      -0.86810533
C       -0.82872898      -0.92007692       0.05060057
O        0.28069652      -1.55378330      -0.54556973
C        1.22379130      -0.56618646      -0.46396727
O        2.35526263      -0.65546009      -0.81930518
H        0.89694864       2.28942287       1.04610546
H        1.53389120       0.85072955       1.73582343
H       -2.46263476       0.30897223      -0.49765859
H       -1.67068010      -0.59513339      -1.87021922
H       -1.05659644      -0.83688198       1.10413441
12
Frame=16 idx=011600 GeodesicLength=0.8236384204124804 rxn_smarts="[N:1]([C@:2]12[C:3]([H:10])([H:11])[C@@:4]1([H:12])[O:5][C:6]2=[O:7])([H:8])[H:9]>>[N:1]([C+:2]=[C:6]([O:5][C:4](=[C:3]([H:10])[H:11])[H:12])[O-:7])([H:8])[H:9]"
N        0.89599688       1.27845311       1.10787477
C        0.41589714       0.58697283       0.05461586
C       -1.58174849      -0.19864155      -0.88632266
C       -0.82838794      -0.90461339       0.04998102
O        0.28343916      -1.54187282      -0.54273505
C        1.22690247      -0.55613878      -0.46666835
O        2.35479895      -0.64083992      -0.83311234
H        0.91392631       2.28384117       1.06609523
H        1.55143571       0.83730381       1.74071930
H       -2.47026148       0.30297031      -0.52229958
H       -1.69666333      -0.64666469      -1.86764118
H       -1.06533537      -0.80077009       1.09949297
