11
Frame=0 idx=004048 GeodesicLength=0.0 rxn_smarts="[O:1]([c:2]1[c:3]([H:8])[n:4]([H:9])[c:5]([H:10])[c:6]1[H:11])[H:7]>>[O:1]([C@@:2]12[C@@:3]3([H:8])[N:4]([H:9])[C@:5]1([H:10])[C@@:6]23[H:11])[H:7]"
O        2.09386177       0.31332904      -0.73175758
C        0.80121206       0.29528795      -0.37719287
C       -0.12317015      -0.91894879      -0.36070625
N       -1.43298495      -0.57877314      -0.26573539
C       -1.26911946       0.64079004       0.38995621
C        0.18630604       0.40469785       0.82528787
H        2.63667989       0.60703376       0.00940260
H        0.26318362      -1.93223502      -0.31397172
H       -2.16050103      -0.83092854      -0.91179433
H       -1.56553042       1.56300102      -0.11235582
H        0.57006266       0.43674586       1.84886726
11
Frame=1 idx=004048 GeodesicLength=0.055008574382006487 rxn_smarts="[O:1]([c:2]1[c:3]([H:8])[n:4]([H:9])[c:5]([H:10])[c:6]1[H:11])[H:7]>>[O:1]([C@@:2]12[C@@:3]3([H:8])[N:4]([H:9])[C@:5]1([H:10])[C@@:6]23[H:11])[H:7]"
O        2.08275671       0.31611757      -0.73638625
C        0.79162169       0.28481377      -0.37220502
C       -0.11989244      -0.93171899      -0.34886684
N       -1.43211042      -0.58299242      -0.26248863
C       -1.25199941       0.64340679       0.37744505
C        0.18477204       0.39371154       0.83881349
H        2.62811418       0.61252323       0.00130963
H        0.26160540      -1.94696556      -0.32655001
H       -2.14857924      -0.81891894      -0.92700494
H       -1.56633045       1.56974560      -0.10273704
H        0.57004193       0.46027740       1.85867055
11
Frame=2 idx=004048 GeodesicLength=0.10998933479134568 rxn_smarts="[O:1]([c:2]1[c:3]([H:8])[n:4]([H:9])[c:5]([H:10])[c:6]1[H:11])[H:7]>>[O:1]([C@@:2]12[C@@:3]3([H:8])[N:4]([H:9])[C@:5]1([H:10])[C@@:6]23[H:11])[H:7]"
O        2.07206167       0.31831423      -0.74057673
C        0.78250457       0.27415466      -0.36722563
C       -0.11658172      -0.94430953      -0.33714843
N       -1.43112397      -0.58685535      -0.25964217
C       -1.23465355       0.64591811       0.36463636
C        0.18307034       0.38319524       0.85195270
H        2.61974047       0.61726086      -0.00615108
H        0.25965506      -1.96109272      -0.33998932
H       -2.13629334      -0.80773623      -0.94144033
H       -1.56782299       1.57616872      -0.09148510
H        0.56944345       0.48498201       1.86706971
11
Frame=3 idx=004048 GeodesicLength=0.16492921976313188 rxn_smarts="[O:1]([c:2]1[c:3]([H:8])[n:4]([H:9])[c:5]([H:10])[c:6]1[H:11])[H:7]>>[O:1]([C@@:2]12[C@@:3]3([H:8])[N:4]([H:9])[C@:5]1([H:10])[C@@:6]23[H:11])[H:7]"
O        2.06181934       0.31992151      -0.74435325
C        0.77387625       0.26334177      -0.36228985
C       -0.11322665      -0.95669764      -0.32550897
N       -1.43000964      -0.59035442      -0.25714777
C       -1.21707841       0.64840170       0.35145725
C        0.18119414       0.37326696       0.86467164
H        2.61160780       0.62125226      -0.01300331
H        0.25734077      -1.97454311      -0.35411730
H       -2.12368472      -0.79734931      -0.95515133
H       -1.57008069       1.58217330      -0.07856352
H        0.56824181       0.51058697       1.87400641
11
Frame=4 idx=004048 GeodesicLength=0.2198126307729622 rxn_smarts="[O:1]([c:2]1[c:3]([H:8])[n:4]([H:9])[c:5]([H:10])[c:6]1[H:11])[H:7]>>[O:1]([C@@:2]12[C@@:3]3([H:8])[N:4]([H:9])[C@:5]1([H:10])[C@@:6]23[H:11])[H:7]"
O        2.05207430       0.32093241      -0.74774929
C        0.76575047       0.25240690      -0.35744446
C       -0.10981655      -0.96885731      -0.31392301
N       -1.42875689      -0.59347082      -0.25498444
C       -1.19927564       0.65093942       0.33782208
C        0.17913687       0.36405137       0.87692548
H        2.60376768       0.62450823      -0.01927888
H        0.25467367      -1.98725770      -0.36870889
H       -2.11079147      -0.78771771      -0.96821540
H       -1.57319929       1.58765167      -0.06390274
H        0.56643685       0.53681354       1.87945954
11
Frame=5 idx=004048 GeodesicLength=0.27462838900577036 rxn_smarts="[O:1]([c:2]1[c:3]([H:8])[n:4]([H:9])[c:5]([H:10])[c:6]1[H:11])[H:7]>>[O:1]([C@@:2]12[C@@:3]3([H:8])[N:4]([H:9])[C@:5]1([H:10])[C@@:6]23[H:11])[H:7]"
O        2.04289029       0.32135865      -0.75078819
C        0.75815264       0.24140861      -0.35274824
C       -0.10635132      -0.98072785      -0.30233936
N       -1.42735246      -0.59617162      -0.25309360
C       -1.18122609       0.65364122       0.32360008
C        0.17688302       0.35572955       0.88862092
H        2.59627827       0.62701941      -0.02500532
H        0.25164579      -1.99914389      -0.38358364
H       -2.09764351      -0.77885345      -0.98061251
H       -1.57725219       1.59246552      -0.04748124
H        0.56397556       0.56327386       1.88343110
11
Frame=6 idx=004048 GeodesicLength=0.3294080440798945 rxn_smarts="[O:1]([c:2]1[c:3]([H:8])[n:4]([H:9])[c:5]([H:10])[c:6]1[H:11])[H:7]>>[O:1]([C@@:2]12[C@@:3]3([H:8])[N:4]([H:9])[C@:5]1([H:10])[C@@:6]23[H:11])[H:7]"
O        2.03428089       0.32110083      -0.75350856
C        0.75107917       0.23032316      -0.34824880
C       -0.10283364      -0.99230808      -0.29077558
N       -1.42578275      -0.59840776      -0.25156655
C       -1.16292041       0.65655099       0.30870004
C        0.17442667       0.34834084       0.89971826
H        2.58912474       0.62891869      -0.03026866
H        0.24823400      -2.01022425      -0.39836147
H       -2.08421425      -0.77059693      -0.99260082
H       -1.58234308       1.59644135      -0.02903640
H        0.56094866       0.58986116       1.88594854
11
Frame=7 idx=004048 GeodesicLength=0.3841064266492328 rxn_smarts="[O:1]([c:2]1[c:3]([H:8])[n:4]([H:9])[c:5]([H:10])[c:6]1[H:11])[H:7]>>[O:1]([C@@:2]12[C@@:3]3([H:8])[N:4]([H:9])[C@:5]1([H:10])[C@@:6]23[H:11])[H:7]"
O        2.02633639       0.32020711      -0.75594350
C        0.74456210       0.21924787      -0.34402634
C       -0.09926319      -1.00350757      -0.27920269
N       -1.42404924      -0.60013103      -0.25032576
C       -1.14435034       0.65983096       0.29295026
C        0.17174393       0.34211789       0.91009611
H        2.58241257       0.63007684      -0.03504963
H        0.24446769      -2.02041779      -0.41296138
H       -2.07058788      -0.76302984      -1.00406944
H       -1.58856228       1.59938944      -0.00857555
H        0.55729025       0.61621612       1.88710790
11
Frame=8 idx=004048 GeodesicLength=0.4387412848177304 rxn_smarts="[O:1]([c:2]1[c:3]([H:8])[n:4]([H:9])[c:5]([H:10])[c:6]1[H:11])[H:7]>>[O:1]([C@@:2]12[C@@:3]3([H:8])[N:4]([H:9])[C@:5]1([H:10])[C@@:6]23[H:11])[H:7]"
O        2.01912203       0.31854782      -0.75809870
C        0.73862081       0.20814025      -0.34012469
C       -0.09568192      -1.01432555      -0.26771255
N       -1.42216326      -0.60127124      -0.24953579
C       -1.12548820       0.66351000       0.27622902
C        0.16880704       0.33702049       0.91968435
H        2.57613051       0.63070540      -0.03943473
H        0.24026787      -2.02980943      -0.42692344
H       -2.05674080      -0.75595354      -1.01532156
H       -1.59595751       1.60102985       0.01435922
H        0.55308343       0.64240596       1.88687888
11
Frame=9 idx=004048 GeodesicLength=0.49328964790842766 rxn_smarts="[O:1]([c:2]1[c:3]([H:8])[n:4]([H:9])[c:5]([H:10])[c:6]1[H:11])[H:7]>>[O:1]([C@@:2]12[C@@:3]3([H:8])[N:4]([H:9])[C@:5]1([H:10])[C@@:6]23[H:11])[H:7]"
O        2.01271584       0.31609415      -0.75998934
C        0.73328016       0.19706130      -0.33659839
C       -0.09209984      -1.02467906      -0.25620959
N       -1.42012727      -0.60174285      -0.24912537
C       -1.10631241       0.66777337       0.25835468
C        0.16559806       0.33329219       0.92837906
H        2.57037081       0.63067531      -0.04340413
H        0.23562809      -2.03834978      -0.44031017
H       -2.04271311      -0.74939128      -1.02630187
H       -1.60465105       1.60099645       0.03981180
H        0.54831071       0.66827020       1.88539333
11
Frame=10 idx=004048 GeodesicLength=0.5478395899383496 rxn_smarts="[O:1]([c:2]1[c:3]([H:8])[n:4]([H:9])[c:5]([H:10])[c:6]1[H:11])[H:7]>>[O:1]([C@@:2]12[C@@:3]3([H:8])[N:4]([H:9])[C@:5]1([H:10])[C@@:6]23[H:11])[H:7]"
O        2.00713888       0.31265493      -0.76160023
C        0.72853199       0.18594190      -0.33348243
C       -0.08860051      -1.03455673      -0.24486544
N       -1.41794948      -0.60142562      -0.24934119
C       -1.08677313       0.67264648       0.23921890
C        0.16207365       0.33079994       0.93612687
H        2.56500801       0.63033416      -0.04706520
H        0.23043935      -2.04619458      -0.45254589
H       -2.02844681      -0.74305883      -1.03740090
H       -1.61446630       1.59881628       0.06838908
H        0.54304437       0.69404206       1.88256643
11
Frame=11 idx=004048 GeodesicLength=0.6023045475163512 rxn_smarts="[O:1]([c:2]1[c:3]([H:8])[n:4]([H:9])[c:5]([H:10])[c:6]1[H:11])[H:7]>>[O:1]([C@@:2]12[C@@:3]3([H:8])[N:4]([H:9])[C@:5]1([H:10])[C@@:6]23[H:11])[H:7]"
O        2.00242318       0.30834529      -0.76295489
C        0.72436196       0.17491165      -0.33078237
C       -0.08519546      -1.04386064      -0.23351652
N       -1.41566434      -0.60024742      -0.25001370
C       -1.06692161       0.67833133       0.21877497
C        0.15821652       0.32982878       0.94288789
H        2.56020482       0.62936516      -0.05032093
H        0.22469389      -2.05323368      -0.46401857
H       -2.01406546      -0.73703146      -1.04842279
H       -1.62535318       1.59393917       0.09976495
H        0.53729969       0.71965182       1.87860197
11
Frame=12 idx=004048 GeodesicLength=0.6568195448786112 rxn_smarts="[O:1]([c:2]1[c:3]([H:8])[n:4]([H:9])[c:5]([H:10])[c:6]1[H:11])[H:7]>>[O:1]([C@@:2]12[C@@:3]3([H:8])[N:4]([H:9])[C@:5]1([H:10])[C@@:6]23[H:11])[H:7]"
O        1.99849904       0.30318121      -0.76402454
C        0.72067491       0.16396029      -0.32845214
C       -0.08207883      -1.05253157      -0.22239244
N       -1.41334379      -0.59809315      -0.25132526
C       -1.04680278       0.68466081       0.19727884
C        0.15389310       0.32995139       0.94866502
H        2.55562494       0.62854962      -0.05344259
H        0.21823481      -2.05961038      -0.47390592
H       -1.99948703      -0.73084894      -1.05962261
H       -1.63628230       1.58584507       0.13387783
H        0.53106795       0.74493565       1.87334382
11
Frame=13 idx=004048 GeodesicLength=0.7114152659406843 rxn_smarts="[O:1]([c:2]1[c:3]([H:8])[n:4]([H:9])[c:5]([H:10])[c:6]1[H:11])[H:7]>>[O:1]([C@@:2]12[C@@:3]3([H:8])[N:4]([H:9])[C@:5]1([H:10])[C@@:6]23[H:11])[H:7]"
O        1.99476580       0.29784533      -0.76499280
C        0.71710794       0.15337905      -0.32635331
C       -0.07919598      -1.06046860      -0.21141282
N       -1.41101746      -0.59512651      -0.25287978
C       -1.02674121       0.69147695       0.17555977
C        0.14921393       0.33120609       0.95383947
H        2.55115890       0.62737443      -0.05627932
H        0.21129448      -2.06508078      -0.48297684
H       -1.98500574      -0.72468972      -1.07059954
H       -1.64627573       1.57450502       0.16859060
H        0.52469508       0.76957873       1.86750459
11
Frame=14 idx=004048 GeodesicLength=0.7659432601246399 rxn_smarts="[O:1]([c:2]1[c:3]([H:8])[n:4]([H:9])[c:5]([H:10])[c:6]1[H:11])[H:7]>>[O:1]([C@@:2]12[C@@:3]3([H:8])[N:4]([H:9])[C@:5]1([H:10])[C@@:6]23[H:11])[H:7]"
O        1.99096981       0.29286584      -0.76591640
C        0.71343377       0.14326722      -0.32426015
C       -0.07664461      -1.06782102      -0.20068698
N       -1.40890239      -0.59163116      -0.25445092
C       -1.00710062       0.69831091       0.15465959
C        0.14416984       0.33293872       0.95880927
H        2.54657960       0.62655906      -0.05906664
H        0.20394336      -2.06983392      -0.49132083
H       -1.97083464      -0.71839828      -1.08116505
H       -1.65394427       1.56063355       0.20199885
H        0.51833016       0.79310908       1.86139926
11
Frame=15 idx=004048 GeodesicLength=0.8205360809738649 rxn_smarts="[O:1]([c:2]1[c:3]([H:8])[n:4]([H:9])[c:5]([H:10])[c:6]1[H:11])[H:7]>>[O:1]([C@@:2]12[C@@:3]3([H:8])[N:4]([H:9])[C@:5]1([H:10])[C@@:6]23[H:11])[H:7]"
O        1.98665527       0.28873882      -0.76696964
C        0.70939512       0.13371401      -0.32202007
C       -0.07434459      -1.07467845      -0.19019888
N       -1.40699807      -0.58792408      -0.25570224
C       -0.98812090       0.70472071       0.13546074
C        0.13884754       0.33473165       0.96398292
H        2.54161956       0.62619021      -0.06192268
H        0.19639755      -2.07381427      -0.49935234
H       -1.95702293      -0.71202584      -1.09101642
H       -1.65855209       1.54528327       0.23218743
H        0.51212355       0.81506397       1.85555119
11
Frame=16 idx=004048 GeodesicLength=0.8751749010302518 rxn_smarts="[O:1]([c:2]1[c:3]([H:8])[n:4]([H:9])[c:5]([H:10])[c:6]1[H:11])[H:7]>>[O:1]([C@@:2]12[C@@:3]3([H:8])[N:4]([H:9])[C@:5]1([H:10])[C@@:6]23[H:11])[H:7]"
O        1.98169156       0.28563549      -0.76820024
C        0.70492401       0.12470900      -0.31958184
C       -0.07223435      -1.08116567      -0.18003803
N       -1.40532148      -0.58424543      -0.25654297
C       -0.96987637       0.71043220       0.11832287
C        0.13334105       0.33627139       0.96952926
H        2.53619103       0.62643631      -0.06492571
H        0.18881769      -2.07715782      -0.50711865
H       -1.94361800      -0.70562392      -1.10008674
H       -1.66009813       1.52949238       0.25845608
H        0.50618299       0.83521606       1.85018596
