15
Frame=0 idx=008041 GeodesicLength=0.0 rxn_smarts="[C:1]([C@@:2]1([H:11])[C:3]([H:12])([H:13])[N:4]([H:14])[C@:5]1([C:6]#[N:7])[H:15])([H:8])([H:9])[H:10]>>[C:1]([C@@:2]1([H:11])[C:3]([H:12])([H:13])[N:4]([H:14])[C@:5]1([N+:7]#[C-:6])[H:15])([H:8])([H:9])[H:10]"
C        1.64470291      -0.43962896      -0.46669406
C        0.63168380       0.35928931       0.31557962
C       -0.38097061       1.31090854      -0.38847439
N       -1.36502776       0.77858249       0.55806826
C       -0.61745127      -0.23035819       0.93381406
C       -1.12372767      -1.75454236      -0.80437395
N       -1.61895687      -2.31344800       0.09572019
H        1.16931046      -0.94722485      -1.30238657
H        2.43140263       0.22449000      -0.82991526
H        2.10681096      -1.19440521       0.17101518
H        1.12621647       0.90839795       1.12466767
H       -0.60327480       0.98241868      -1.40589041
H       -0.21711072       2.38523844      -0.32498121
H       -2.36663328       0.87353621       0.60793188
H       -0.81697426      -0.94325400       1.71591904
15
Frame=1 idx=008041 GeodesicLength=0.08939126767641667 rxn_smarts="[C:1]([C@@:2]1([H:11])[C:3]([H:12])([H:13])[N:4]([H:14])[C@:5]1([C:6]#[N:7])[H:15])([H:8])([H:9])[H:10]>>[C:1]([C@@:2]1([H:11])[C:3]([H:12])([H:13])[N:4]([H:14])[C@:5]1([N+:7]#[C-:6])[H:15])([H:8])([H:9])[H:10]"
C        1.65395738      -0.42836959      -0.47425578
C        0.62929175       0.35016291       0.31345787
C       -0.38025223       1.30753052      -0.38563255
N       -1.36623055       0.77531135       0.55964622
C       -0.62443489      -0.25764558       0.91050804
C       -1.07963810      -1.80572075      -0.76990967
N       -1.70523826      -2.26121875       0.10381975
H        1.18373287      -0.93564984      -1.31347653
H        2.43322771       0.24711962      -0.83217210
H        2.12333706      -1.18392888       0.15735451
H        1.11680671       0.89026786       1.13264266
H       -0.59935055       0.98769171      -1.40676905
H       -0.21253989       2.38108335      -0.31691859
H       -2.36828478       0.87023305       0.59408433
H       -0.80438423      -0.93686697       1.72762088
15
Frame=2 idx=008041 GeodesicLength=0.17751268089040012 rxn_smarts="[C:1]([C@@:2]1([H:11])[C:3]([H:12])([H:13])[N:4]([H:14])[C@:5]1([C:6]#[N:7])[H:15])([H:8])([H:9])[H:10]>>[C:1]([C@@:2]1([H:11])[C:3]([H:12])([H:13])[N:4]([H:14])[C@:5]1([N+:7]#[C-:6])[H:15])([H:8])([H:9])[H:10]"
C        1.66138057      -0.41832171      -0.48131941
C        0.62649526       0.34129915       0.31169525
C       -0.38013520       1.30384711      -0.38286845
N       -1.36746030       0.77305038       0.56266252
C       -0.63156794      -0.28289429       0.88959555
C       -1.03562146      -1.85937955      -0.72746175
N       -1.77955208      -2.20522540       0.09968294
H        1.19563104      -0.92477021      -1.32408335
H        2.43392778       0.26738231      -0.83434492
H        2.13727130      -1.17488483       0.14438345
H        1.10812567       0.87311025       1.13969569
H       -0.59717487       0.99135338      -1.40710226
H       -0.20806307       2.37665716      -0.31049520
H       -2.36964134       0.86932183       0.58309342
H       -0.79361536      -0.93054557       1.73686652
15
Frame=3 idx=008041 GeodesicLength=0.26501000149623344 rxn_smarts="[C:1]([C@@:2]1([H:11])[C:3]([H:12])([H:13])[N:4]([H:14])[C@:5]1([C:6]#[N:7])[H:15])([H:8])([H:9])[H:10]>>[C:1]([C@@:2]1([H:11])[C:3]([H:12])([H:13])[N:4]([H:14])[C@:5]1([N+:7]#[C-:6])[H:15])([H:8])([H:9])[H:10]"
C        1.66603983      -0.41012446      -0.48828535
C        0.62312033       0.33276303       0.31006500
C       -0.38029496       1.30101366      -0.37943209
N       -1.36897989       0.77202930       0.56611145
C       -0.63888099      -0.30570696       0.87048279
C       -0.99379050      -1.91336440      -0.67829400
N       -1.83686199      -2.14867721       0.08705429
H        1.20354582      -0.91475531      -1.33420270
H        2.43284137       0.28415679      -0.83640395
H        2.14750374      -1.16824125       0.13136025
H        1.10006032       0.85597770       1.14587160
H       -0.59559283       0.99594331      -1.40642749
H       -0.20357486       2.37286147      -0.30323018
H       -2.37109815       0.86874696       0.57073656
H       -0.78403721      -0.92262263       1.74459383
15
Frame=4 idx=008041 GeodesicLength=0.3520734085490996 rxn_smarts="[C:1]([C@@:2]1([H:11])[C:3]([H:12])([H:13])[N:4]([H:14])[C@:5]1([C:6]#[N:7])[H:15])([H:8])([H:9])[H:10]>>[C:1]([C@@:2]1([H:11])[C:3]([H:12])([H:13])[N:4]([H:14])[C@:5]1([N+:7]#[C-:6])[H:15])([H:8])([H:9])[H:10]"
C        1.66863567      -0.40335879      -0.49512634
C        0.61943418       0.32464173       0.30882078
C       -0.38071665       1.29859765      -0.37557040
N       -1.37067031       0.77218367       0.57068477
C       -0.64640739      -0.32645154       0.85369224
C       -0.95307530      -1.96701097      -0.62203839
N       -1.88101693      -2.09222040       0.06368069
H        1.20816088      -0.90635993      -1.34350313
H        2.43013447       0.29827154      -0.83977035
H        2.15545760      -1.16291404       0.11869958
H        1.09299201       0.83963595       1.15137248
H       -0.59496754       1.00064361      -1.40512767
H       -0.19880514       2.36946315      -0.29625081
H       -2.37260941       0.86887723       0.55892923
H       -0.77654613      -0.91399886       1.75150732
15
Frame=5 idx=008041 GeodesicLength=0.43897951865565893 rxn_smarts="[C:1]([C@@:2]1([H:11])[C:3]([H:12])([H:13])[N:4]([H:14])[C@:5]1([C:6]#[N:7])[H:15])([H:8])([H:9])[H:10]>>[C:1]([C@@:2]1([H:11])[C:3]([H:12])([H:13])[N:4]([H:14])[C@:5]1([N+:7]#[C-:6])[H:15])([H:8])([H:9])[H:10]"
C        1.66897156      -0.39819629      -0.50203960
C        0.61545145       0.31699874       0.30791259
C       -0.38125569       1.29698201      -0.37097006
N       -1.37270678       0.77340294       0.57593701
C       -0.65409950      -0.34514277       0.83903035
C       -0.91454047      -2.01891663      -0.55948244
N       -1.91101826      -2.03743390       0.03122578
H        1.20912355      -0.89976677      -1.35201042
H        2.42564016       0.30948527      -0.84463962
H        2.16098960      -1.15909678       0.10610983
H        1.08690176       0.82381702       1.15631818
H       -0.59469541       1.00648141      -1.40309116
H       -0.19374980       2.36677491      -0.28853043
H       -2.37434563       0.86862044       0.54597094
H       -0.77066654      -0.90400962       1.75825906
15
Frame=6 idx=008041 GeodesicLength=0.5260686144008129 rxn_smarts="[C:1]([C@@:2]1([H:11])[C:3]([H:12])([H:13])[N:4]([H:14])[C@:5]1([C:6]#[N:7])[H:15])([H:8])([H:9])[H:10]>>[C:1]([C@@:2]1([H:11])[C:3]([H:12])([H:13])[N:4]([H:14])[C@:5]1([N+:7]#[C-:6])[H:15])([H:8])([H:9])[H:10]"
C        1.66711747      -0.39466924      -0.50911595
C        0.61125144       0.30988137       0.30729010
C       -0.38184763       1.29628623      -0.36551528
N       -1.37521901       0.77541037       0.58153087
C       -0.66182299      -0.36198953       0.82633704
C       -0.87926839      -2.06811789      -0.49173259
N       -1.92701719      -1.98500876      -0.00890193
H        1.20648057      -0.89520173      -1.35968327
H        2.41937331       0.31785159      -0.85114168
H        2.16439168      -1.15661470       0.09359489
H        1.08176962       0.80846156       1.16079508
H       -0.59438581       1.01397858      -1.40035959
H       -0.18856978       2.36489731      -0.27947958
H       -2.37634370       0.86725443       0.53112045
H       -0.76590961      -0.89241960       1.76526144
15
Frame=7 idx=008041 GeodesicLength=0.61265987818274 rxn_smarts="[C:1]([C@@:2]1([H:11])[C:3]([H:12])([H:13])[N:4]([H:14])[C@:5]1([C:6]#[N:7])[H:15])([H:8])([H:9])[H:10]>>[C:1]([C@@:2]1([H:11])[C:3]([H:12])([H:13])[N:4]([H:14])[C@:5]1([N+:7]#[C-:6])[H:15])([H:8])([H:9])[H:10]"
C        1.66331488      -0.39279508      -0.51631741
C        0.60691768       0.30338555       0.30686780
C       -0.38239072       1.29674703      -0.35917341
N       -1.37851471       0.77784596       0.58683040
C       -0.66948151      -0.37721986       0.81540707
C       -0.84935556      -2.11216305      -0.42184395
N       -1.92935064      -1.93733439      -0.05245493
H        1.20067410      -0.89244055      -1.36670123
H        2.41183568       0.32334332      -0.85890526
H        2.16565881      -1.15571358       0.08123909
H        1.07750630       0.79357816       1.16485423
H       -0.59331537       1.02407437      -1.39717724
H       -0.18336949       2.36409467      -0.26853805
H       -2.37879502       0.86365527       0.51312954
H       -0.76133443      -0.87905781       1.77278336
15
Frame=8 idx=008041 GeodesicLength=0.7025291730955529 rxn_smarts="[C:1]([C@@:2]1([H:11])[C:3]([H:12])([H:13])[N:4]([H:14])[C@:5]1([C:6]#[N:7])[H:15])([H:8])([H:9])[H:10]>>[C:1]([C@@:2]1([H:11])[C:3]([H:12])([H:13])[N:4]([H:14])[C@:5]1([N+:7]#[C-:6])[H:15])([H:8])([H:9])[H:10]"
C        1.65732180      -0.39242231      -0.52381432
C        0.60249037       0.29737210       0.30695818
C       -0.38321916       1.29742111      -0.35191422
N       -1.38204776       0.78088671       0.59312374
C       -0.67682462      -0.39090760       0.80685574
C       -0.82156891      -2.15507424      -0.34400475
N       -1.91841019      -1.88840544      -0.10902384
H        1.19134515      -0.89228436      -1.37272926
H        2.40176736       0.32644907      -0.86928590
H        2.16566555      -1.15530703       0.06877236
H        1.07434920       0.77950415       1.16854832
H       -0.59299678       1.03431266      -1.39293009
H       -0.17844075       2.36341377      -0.25669445
H       -2.38093979       0.85930668       0.49506185
H       -0.75849146      -0.86426529       1.78107665
15
Frame=9 idx=008041 GeodesicLength=0.7948206976707782 rxn_smarts="[C:1]([C@@:2]1([H:11])[C:3]([H:12])([H:13])[N:4]([H:14])[C@:5]1([C:6]#[N:7])[H:15])([H:8])([H:9])[H:10]>>[C:1]([C@@:2]1([H:11])[C:3]([H:12])([H:13])[N:4]([H:14])[C@:5]1([N+:7]#[C-:6])[H:15])([H:8])([H:9])[H:10]"
C        1.64891839      -0.39366494      -0.53158643
C        0.59796683       0.29200918       0.30743178
C       -0.38400337       1.29908753      -0.34358616
N       -1.38640732       0.78414278       0.59911006
C       -0.68388654      -0.40308943       0.80067886
C       -0.79892126      -2.19308738      -0.26153633
N       -1.89201886      -1.84281605      -0.17230922
H        1.17844876      -0.89354155      -1.37827665
H        2.38977442       0.32669758      -0.88153212
H        2.16302547      -1.15684100       0.05574696
H        1.07228715       0.76594937       1.17171324
H       -0.59211984       1.04686051      -1.38776363
H       -0.17347777       2.36362340      -0.24290054
H       -2.38318710       0.85218273       0.47411696
H       -0.75639896      -0.84751273       1.79069322
15
Frame=10 idx=008041 GeodesicLength=0.8889360224421464 rxn_smarts="[C:1]([C@@:2]1([H:11])[C:3]([H:12])([H:13])[N:4]([H:14])[C@:5]1([C:6]#[N:7])[H:15])([H:8])([H:9])[H:10]>>[C:1]([C@@:2]1([H:11])[C:3]([H:12])([H:13])[N:4]([H:14])[C@:5]1([N+:7]#[C-:6])[H:15])([H:8])([H:9])[H:10]"
C        1.63898629      -0.39639331      -0.53925722
C        0.59356086       0.28733617       0.30825643
C       -0.38497032       1.30115254      -0.33453533
N       -1.39165536       0.78707844       0.60466147
C       -0.69028213      -0.41418159       0.79655141
C       -0.78483136      -2.22390897      -0.18043265
N       -1.85235560      -1.80073822      -0.23667373
H        1.16357976      -0.89637771      -1.38343355
H        2.37660790       0.32450204      -0.89481194
H        2.15903056      -1.15944031       0.04310909
H        1.07103598       0.75347458       1.17459672
H       -0.59053239       1.06100079      -1.38227593
H       -0.16934251       2.36419564      -0.22753886
H       -2.38534998       0.84173549       0.45044122
H       -0.75348172      -0.82943558       1.80134286
15
Frame=11 idx=008041 GeodesicLength=0.9845612699238708 rxn_smarts="[C:1]([C@@:2]1([H:11])[C:3]([H:12])([H:13])[N:4]([H:14])[C@:5]1([C:6]#[N:7])[H:15])([H:8])([H:9])[H:10]>>[C:1]([C@@:2]1([H:11])[C:3]([H:12])([H:13])[N:4]([H:14])[C@:5]1([N+:7]#[C-:6])[H:15])([H:8])([H:9])[H:10]"
C        1.62789571      -0.40020526      -0.54678622
C        0.58932821       0.28330026       0.30931261
C       -0.38597557       1.30366305      -0.32490780
N       -1.39792276       0.78942158       0.60914026
C       -0.69601793      -0.42447631       0.79410321
C       -0.77937567      -2.24771300      -0.10253411
N       -1.80185591      -1.76327670      -0.29834106
H        1.14745391      -0.89973205      -1.38866495
H        2.36286622       0.32044752      -0.90835966
H        2.15360609      -1.16330724       0.03053665
H        1.07048999       0.74194999       1.17715423
H       -0.58785516       1.07697465      -1.37655766
H       -0.16589099       2.36521361      -0.21052642
H       -2.38731034       0.82793342       0.42371386
H       -0.74943580      -0.81019351       1.81271707
15
Frame=12 idx=008041 GeodesicLength=1.0817941325914735 rxn_smarts="[C:1]([C@@:2]1([H:11])[C:3]([H:12])([H:13])[N:4]([H:14])[C@:5]1([C:6]#[N:7])[H:15])([H:8])([H:9])[H:10]>>[C:1]([C@@:2]1([H:11])[C:3]([H:12])([H:13])[N:4]([H:14])[C@:5]1([N+:7]#[C-:6])[H:15])([H:8])([H:9])[H:10]"
C        1.61615663      -0.40477906      -0.55402333
C        0.58533949       0.27981350       0.31055958
C       -0.38710750       1.30632903      -0.31497930
N       -1.40506516       0.79106119       0.61254619
C       -0.70097229      -0.43427343       0.79302478
C       -0.78256719      -2.26510052      -0.02956322
N       -1.74330519      -1.72987817      -0.35518767
H        1.13101175      -0.90321394      -1.39416241
H        2.34889519       0.31514626      -0.92170151
H        2.14737965      -1.16803250       0.01823687
H        1.07047141       0.73147582       1.17946240
H       -0.58424436       1.09418231      -1.37079910
H       -0.16336936       2.36643956      -0.19237472
H       -2.38869176       0.81116737       0.39451966
H       -0.74393131      -0.79033742       1.82444176
15
Frame=13 idx=008041 GeodesicLength=1.180063099524401 rxn_smarts="[C:1]([C@@:2]1([H:11])[C:3]([H:12])([H:13])[N:4]([H:14])[C@:5]1([C:6]#[N:7])[H:15])([H:8])([H:9])[H:10]>>[C:1]([C@@:2]1([H:11])[C:3]([H:12])([H:13])[N:4]([H:14])[C@:5]1([N+:7]#[C-:6])[H:15])([H:8])([H:9])[H:10]"
C        1.60365751      -0.40957381      -0.56145606
C        0.58144481       0.27672864       0.31174395
C       -0.38780937       1.30956954      -0.30453740
N       -1.41336940       0.79161208       0.61361654
C       -0.70548193      -0.44356269       0.79275747
C       -0.79209899      -2.27672686       0.03936505
N       -1.67912330      -1.70273634      -0.40343421
H        1.11408485      -0.90505877      -1.40090291
H        2.33517503       0.30902435      -0.93431080
H        2.13916090      -1.17423012       0.00490308
H        1.07072822       0.72112296       1.18150209
H       -0.57845204       1.11397078      -1.36485694
H       -0.16098087       2.36794192      -0.17168745
H       -2.38924813       0.79102743       0.36116211
H       -0.73768729      -0.76910914       1.83613548
15
Frame=14 idx=008041 GeodesicLength=1.2790208464550328 rxn_smarts="[C:1]([C@@:2]1([H:11])[C:3]([H:12])([H:13])[N:4]([H:14])[C@:5]1([C:6]#[N:7])[H:15])([H:8])([H:9])[H:10]>>[C:1]([C@@:2]1([H:11])[C:3]([H:12])([H:13])[N:4]([H:14])[C@:5]1([N+:7]#[C-:6])[H:15])([H:8])([H:9])[H:10]"
C        1.59124794      -0.41447506      -0.56861440
C        0.57785922       0.27402045       0.31294685
C       -0.38858934       1.31275978      -0.29416871
N       -1.42232887       0.79139056       0.61336859
C       -0.70923958      -0.45273390       0.79320442
C       -0.80829846      -2.28360796       0.10234157
N       -1.61229139      -1.67969338      -0.44395668
H        1.09792403      -0.90601786      -1.40837610
H        2.32202910       0.30268291      -0.94595890
H        2.13062160      -1.18094749      -0.00830677
H        1.07128361       0.71166079       1.18332561
H       -0.57176196       1.13451097      -1.35903383
H       -0.15946427       2.36944086      -0.15040451
H       -2.38870648       0.76895194       0.32621391
H       -0.73028516      -0.74794263       1.84741896
15
Frame=15 idx=008041 GeodesicLength=1.3789110027151437 rxn_smarts="[C:1]([C@@:2]1([H:11])[C:3]([H:12])([H:13])[N:4]([H:14])[C@:5]1([C:6]#[N:7])[H:15])([H:8])([H:9])[H:10]>>[C:1]([C@@:2]1([H:11])[C:3]([H:12])([H:13])[N:4]([H:14])[C@:5]1([N+:7]#[C-:6])[H:15])([H:8])([H:9])[H:10]"
C        1.57910003      -0.41924418      -0.57549404
C        0.57456268       0.27160257       0.31410170
C       -0.38942390       1.31563710      -0.28401432
N       -1.43169866       0.79034267       0.61197895
C       -0.71225360      -0.46187622       0.79419035
C       -0.83043432      -2.28630571       0.15955893
N       -1.54427938      -1.66002773      -0.47684171
H        1.08283311      -0.90590013      -1.41649572
H        2.30952299       0.29644696      -0.95662288
H        2.12195995      -1.18777843      -0.02136130
H        1.07197374       0.70302244       1.18482514
H       -0.56426838       1.15532363      -1.35327928
H       -0.15877085       2.37060180      -0.12896380
H       -2.38677281       0.74532034       0.29039179
H       -0.72205060      -0.72716513       1.85802618
15
Frame=16 idx=008041 GeodesicLength=1.479193084928297 rxn_smarts="[C:1]([C@@:2]1([H:11])[C:3]([H:12])([H:13])[N:4]([H:14])[C@:5]1([C:6]#[N:7])[H:15])([H:8])([H:9])[H:10]>>[C:1]([C@@:2]1([H:11])[C:3]([H:12])([H:13])[N:4]([H:14])[C@:5]1([N+:7]#[C-:6])[H:15])([H:8])([H:9])[H:10]"
C        1.56717275      -0.42375793      -0.58234359
C        0.57154384       0.26943874       0.31515767
C       -0.39017214       1.31850190      -0.27395442
N       -1.44155990       0.78851440       0.60908927
C       -0.71462499      -0.47096588       0.79554534
C       -0.85706479      -2.28566936       0.21208906
N       -1.47620266      -1.64441488      -0.50181329
H        1.06851636      -0.90438217      -1.42552725
H        2.29774248       0.29044918      -0.96635362
H        2.11295657      -1.19493470      -0.03472259
H        1.07286954       0.69490950       1.18609512
H       -0.55571880       1.17698309      -1.34750824
H       -0.15866487       2.37166667      -0.10680397
H       -2.38339494       0.72021095       0.25311972
H       -0.71339844      -0.70654952       1.86793078
