11
Frame=0 idx=008693 GeodesicLength=0.0 rxn_smarts="[O:1]=[C:2]([c:3]1[c:4]([H:9])[n:5][c:6]([H:10])[n:7]1[H:11])[H:8]>>[O:1]=[C:2]=[C:3]1[C:4]([H:9])=[N:5][C:6]([H:8])([H:10])[N:7]1[H:11]"
O       -2.53177797      -0.50204206       0.54877514
C       -1.43593423      -0.32625506       0.22714735
C       -0.49902061      -0.12866279      -0.95903600
C       -0.03839353       1.22629854      -0.64404918
N        0.95771301       1.21078727       0.19064598
C        1.12073153      -0.13961215       0.48008270
N        0.63043532      -0.87460541      -0.59266254
H       -0.18465850      -0.27976745       1.13796675
H       -0.52970683       2.14297653      -0.94497949
H        1.99389239      -0.45870585       1.03880849
H        0.51671946      -1.87041159      -0.48269925
11
Frame=1 idx=008693 GeodesicLength=0.0842131414753254 rxn_smarts="[O:1]=[C:2]([c:3]1[c:4]([H:9])[n:5][c:6]([H:10])[n:7]1[H:11])[H:8]>>[O:1]=[C:2]=[C:3]1[C:4]([H:9])=[N:5][C:6]([H:8])([H:10])[N:7]1[H:11]"
O       -2.54988793      -0.53605225       0.51578893
C       -1.45093387      -0.32045130       0.22499910
C       -0.50441011      -0.12260575      -0.94278503
C       -0.02986315       1.22935979      -0.64588089
N        0.97630373       1.21162674       0.17850733
C        1.12786978      -0.13749745       0.48182085
N        0.62357778      -0.87643632      -0.58485915
H       -0.19286714      -0.27021271       1.16369283
H       -0.52402861       2.14818008      -0.93548568
H        2.02019427      -0.45534258       1.01053087
H        0.50404524      -1.87056824      -0.46632917
11
Frame=2 idx=008693 GeodesicLength=0.1683203949361127 rxn_smarts="[O:1]=[C:2]([c:3]1[c:4]([H:9])[n:5][c:6]([H:10])[n:7]1[H:11])[H:8]>>[O:1]=[C:2]=[C:3]1[C:4]([H:9])=[N:5][C:6]([H:8])([H:10])[N:7]1[H:11]"
O       -2.56617458      -0.57068158       0.48234718
C       -1.46643857      -0.31460157       0.22257724
C       -0.50977480      -0.11633059      -0.92617765
C       -0.02135512       1.23237210      -0.64780826
N        0.99494726       1.21223301       0.16592711
C        1.13522464      -0.13529985       0.48347766
N        0.61657676      -0.87816871      -0.57679364
H       -0.20141066      -0.26001568       1.18980185
H       -0.51827846       2.15342096      -0.92552976
H        2.04549624      -0.45245196       0.98158448
H        0.49118728      -1.87047613      -0.44940621
11
Frame=3 idx=008693 GeodesicLength=0.25231083762516976 rxn_smarts="[O:1]=[C:2]([c:3]1[c:4]([H:9])[n:5][c:6]([H:10])[n:7]1[H:11])[H:8]>>[O:1]=[C:2]=[C:3]1[C:4]([H:9])=[N:5][C:6]([H:8])([H:10])[N:7]1[H:11]"
O       -2.58062864      -0.60549484       0.44858967
C       -1.48242953      -0.30890959       0.21976811
C       -0.51508712      -0.10988604      -0.90923519
C       -0.01292672       1.23529659      -0.64983035
N        1.01357064       1.21259537       0.15291016
C        1.14282128      -0.13302282       0.48500496
N        0.60949735      -0.87979713      -0.56851168
H       -0.21030022      -0.24925077       1.21626894
H       -0.51255506       2.15863338      -0.91504852
H        2.06974788      -0.45002959       0.95209451
H        0.47829015      -1.87013456      -0.43201063
11
Frame=4 idx=008693 GeodesicLength=0.33619020112788994 rxn_smarts="[O:1]=[C:2]([c:3]1[c:4]([H:9])[n:5][c:6]([H:10])[n:7]1[H:11])[H:8]>>[O:1]=[C:2]=[C:3]1[C:4]([H:9])=[N:5][C:6]([H:8])([H:10])[N:7]1[H:11]"
O       -2.59331236      -0.64013478       0.41459597
C       -1.49888412      -0.30354612       0.21648322
C       -0.52032813      -0.10331427      -0.89195770
C       -0.00463220       1.23810292      -0.65193467
N        1.03211848       1.21271042       0.13945371
C        1.15068922      -0.13066401       0.48636390
N        0.60239279      -0.88131905      -0.56004386
H       -0.21955184      -0.23797798       1.24309155
H       -0.50692542       2.16375382      -0.90398778
H        2.09295862      -0.44806431       0.92213114
H        0.46547495      -1.86954664      -0.41419549
11
Frame=5 idx=008693 GeodesicLength=0.4199626376418486 rxn_smarts="[O:1]=[C:2]([c:3]1[c:4]([H:9])[n:5][c:6]([H:10])[n:7]1[H:11])[H:8]>>[O:1]=[C:2]=[C:3]1[C:4]([H:9])=[N:5][C:6]([H:8])([H:10])[N:7]1[H:11]"
O       -2.60435186      -0.67438886       0.38045027
C       -1.51576892      -0.29862829       0.21265333
C       -0.52548482      -0.09663710      -0.87434158
C        0.00349556       1.24077373      -0.65411552
N        1.05056957       1.21257469       0.12553011
C        1.15886315      -0.12822541       0.48749986
N        0.59530299      -0.88273464      -0.55142253
H       -0.22915303      -0.22623153       1.27027188
H       -0.50142277       2.16875739      -0.89230952
H        2.11511847      -0.44654189       0.89179507
H        0.45283165      -1.86871808      -0.39601137
11
Frame=6 idx=008693 GeodesicLength=0.5036424447963146 rxn_smarts="[O:1]=[C:2]([c:3]1[c:4]([H:9])[n:5][c:6]([H:10])[n:7]1[H:11])[H:8]>>[O:1]=[C:2]=[C:3]1[C:4]([H:9])=[N:5][C:6]([H:8])([H:10])[N:7]1[H:11]"
O       -2.61385347      -0.70808153       0.34612102
C       -1.53306654      -0.29424789       0.20823669
C       -0.53055855      -0.08987708      -0.85634748
C        0.01141749       1.24329527      -0.65635090
N        1.06890200       1.21218841       0.11111086
C        1.16737561      -0.12570076       0.48838039
N        0.58824739      -0.88404467      -0.54264943
H       -0.23912615      -0.21403256       1.29784235
H       -0.49606053       2.17359867      -0.87996667
H        2.13630299      -0.44544778       0.86107785
H        0.44041976      -1.86765009      -0.37745468
11
Frame=7 idx=008693 GeodesicLength=0.5872425946471863 rxn_smarts="[O:1]=[C:2]([c:3]1[c:4]([H:9])[n:5][c:6]([H:10])[n:7]1[H:11])[H:8]>>[O:1]=[C:2]=[C:3]1[C:4]([H:9])=[N:5][C:6]([H:8])([H:10])[N:7]1[H:11]"
O       -2.62194099      -0.74115022       0.31158994
C       -1.55075687      -0.29045488       0.20319933
C       -0.53555415      -0.08303804      -0.83793366
C        0.01911066       1.24566414      -0.65862650
N        1.08711117       1.21155250       0.09616166
C        1.17626143      -0.12308824       0.48895895
N        0.58123528      -0.88524982      -0.53372680
H       -0.24947564      -0.20138129       1.32583782
H       -0.49082532       2.17826241      -0.86693228
H        2.15655979      -0.44477591       0.82999235
H        0.42827464      -1.86634065      -0.35852081
11
Frame=8 idx=008693 GeodesicLength=0.6707916226154427 rxn_smarts="[O:1]=[C:2]([c:3]1[c:4]([H:9])[n:5][c:6]([H:10])[n:7]1[H:11])[H:8]>>[O:1]=[C:2]=[C:3]1[C:4]([H:9])=[N:5][C:6]([H:8])([H:10])[N:7]1[H:11]"
O       -2.62876054      -0.77362527       0.27682236
C       -1.56881534      -0.28726225       0.19752013
C       -0.54048123      -0.07611343      -0.81904194
C        0.02656476       1.24788551      -0.66093164
N        1.10521463       1.21065839       0.08063119
C        1.18556780      -0.12039684       0.48917690
N        0.57426601      -0.88634758      -0.52465704
H       -0.26018819      -0.18825805       1.35429766
H       -0.48569702       2.18276796      -0.85318785
H        2.17591832      -0.44452378       0.79856683
H        0.41641080      -1.86478466      -0.33919660
11
Frame=9 idx=008693 GeodesicLength=0.7544377148866417 rxn_smarts="[O:1]=[C:2]([c:3]1[c:4]([H:9])[n:5][c:6]([H:10])[n:7]1[H:11])[H:8]>>[O:1]=[C:2]=[C:3]1[C:4]([H:9])=[N:5][C:6]([H:8])([H:10])[N:7]1[H:11]"
O       -2.63442438      -0.80587115       0.24184557
C       -1.58724898      -0.28456254       0.19112409
C       -0.54535896      -0.06903508      -0.79957843
C        0.03381248       1.24999866      -0.66323378
N        1.12322503       1.20949795       0.06449788
C        1.19533415      -0.11764482       0.48892595
N        0.56729695      -0.88732529      -0.51543698
H       -0.27133488      -0.17454775       1.38325826
H       -0.48051530       2.18716708      -0.83875606
H        2.19444971      -0.44473292       0.76679498
H        0.40476417      -1.86294414      -0.31944148
11
Frame=10 idx=008693 GeodesicLength=0.8380337919559057 rxn_smarts="[O:1]=[C:2]([c:3]1[c:4]([H:9])[n:5][c:6]([H:10])[n:7]1[H:11])[H:8]>>[O:1]=[C:2]=[C:3]1[C:4]([H:9])=[N:5][C:6]([H:8])([H:10])[N:7]1[H:11]"
O       -2.63891265      -0.83753697       0.20645406
C       -1.60605234      -0.28249971       0.18402477
C       -0.55020005      -0.06184920      -0.77946354
C        0.04077729       1.25196448      -0.66551544
N        1.14110852       1.20807059       0.04769498
C        1.20556768      -0.11481081       0.48824045
N        0.56034322      -0.88819333      -0.50602162
H       -0.28291206      -0.16033014       1.41279902
H       -0.47535120       2.19138033      -0.82356502
H        2.21223000      -0.44536090       0.73455341
H        0.39340161      -1.86083432      -0.29920107
11
Frame=11 idx=008693 GeodesicLength=0.9215831155374077 rxn_smarts="[O:1]=[C:2]([c:3]1[c:4]([H:9])[n:5][c:6]([H:10])[n:7]1[H:11])[H:8]>>[O:1]=[C:2]=[C:3]1[C:4]([H:9])=[N:5][C:6]([H:8])([H:10])[N:7]1[H:11]"
O       -2.64229493      -0.86870161       0.17054821
C       -1.62521800      -0.28106187       0.17620909
C       -0.55501958      -0.05453287      -0.75859738
C        0.04744438       1.25378911      -0.66775709
N        1.15886795       1.20636494       0.03017682
C        1.21630376      -0.11190467       0.48706816
N        0.55338253      -0.88894765      -0.49639019
H       -0.29492873      -0.14557371       1.44298568
H       -0.47015552       2.19541890      -0.80760924
H        2.22930738      -0.44640989       0.70179930
H        0.38231076      -1.85844068      -0.27843338
11
Frame=12 idx=008693 GeodesicLength=1.0050832499921976 rxn_smarts="[O:1]=[C:2]([c:3]1[c:4]([H:9])[n:5][c:6]([H:10])[n:7]1[H:11])[H:8]>>[O:1]=[C:2]=[C:3]1[C:4]([H:9])=[N:5][C:6]([H:8])([H:10])[N:7]1[H:11]"
O       -2.64459413      -0.89936960       0.13398062
C       -1.64474694      -0.28026373       0.16764572
C       -0.55983489      -0.04707272      -0.73685141
C        0.05378600       1.25546922      -0.66992664
N        1.17648277       1.20437207       0.01189142
C        1.22757410      -0.10892392       0.48537247
N        0.54639509      -0.88958548      -0.48649925
H       -0.30741746      -0.13026228       1.47390041
H       -0.46488689       2.19927138      -0.79087001
H        2.24575014      -0.44788600       0.66841596
H        0.37149220      -1.85574893      -0.25705928
11
Frame=13 idx=008693 GeodesicLength=1.0885338207996056 rxn_smarts="[O:1]=[C:2]([c:3]1[c:4]([H:9])[n:5][c:6]([H:10])[n:7]1[H:11])[H:8]>>[O:1]=[C:2]=[C:3]1[C:4]([H:9])=[N:5][C:6]([H:8])([H:10])[N:7]1[H:11]"
O       -2.64583592      -0.92962777       0.09663804
C       -1.66463102      -0.28008958       0.15830182
C       -0.56466416      -0.03943590      -0.71408716
C        0.05978255       1.25700801      -0.67200240
N        1.19394137       1.20207243      -0.00721408
C        1.23941158      -0.10588086       0.48309556
N        0.53935582      -0.89009770      -0.47631928
H       -0.32039982      -0.11436867       1.50562578
H       -0.45948355       2.20295553      -0.77335076
H        2.26158880      -0.44979793       0.63433596
H        0.36093435      -1.85273757      -0.23502347
11
Frame=14 idx=008693 GeodesicLength=1.17193877899034 rxn_smarts="[O:1]=[C:2]([c:3]1[c:4]([H:9])[n:5][c:6]([H:10])[n:7]1[H:11])[H:8]>>[O:1]=[C:2]=[C:3]1[C:4]([H:9])=[N:5][C:6]([H:8])([H:10])[N:7]1[H:11]"
O       -2.64600885      -0.95944254       0.05830751
C       -1.68486465      -0.28056554       0.14814121
C       -0.56952831      -0.03160736      -0.69011420
C        0.06539180       1.25839129      -0.67394408
N        1.21120322       1.19945799      -0.02719108
C        1.25185894      -0.10277573       0.48018841
N        0.53224105      -0.89048090      -0.46578446
H       -0.33391521      -0.09788210       1.53827772
H       -0.45390662       2.20644826      -0.75504803
H        2.27687927      -0.45215818       0.59938319
H        0.35064936      -1.84938518      -0.21221621
11
Frame=15 idx=008693 GeodesicLength=1.2552955040727236 rxn_smarts="[O:1]=[C:2]([c:3]1[c:4]([H:9])[n:5][c:6]([H:10])[n:7]1[H:11])[H:8]>>[O:1]=[C:2]=[C:3]1[C:4]([H:9])=[N:5][C:6]([H:8])([H:10])[N:7]1[H:11]"
O       -2.64510594      -0.98884707       0.01881772
C       -1.70542826      -0.28168669       0.13711876
C       -0.57444488      -0.02355287      -0.66472528
C        0.07057929       1.25960835      -0.67571309
N        1.22823325       1.19651331      -0.04808642
C        1.26496088      -0.09962460       0.47658355
N        0.52502240      -0.89072520      -0.45484560
H       -0.34799278      -0.08079656       1.57197623
H       -0.44810744       2.20975855      -0.73600119
H        2.29164236      -0.45498159       0.56343399
H        0.34064112      -1.84566562      -0.18855867
11
Frame=16 idx=008693 GeodesicLength=1.338602238999866 rxn_smarts="[O:1]=[C:2]([c:3]1[c:4]([H:9])[n:5][c:6]([H:10])[n:7]1[H:11])[H:8]>>[O:1]=[C:2]=[C:3]1[C:4]([H:9])=[N:5][C:6]([H:8])([H:10])[N:7]1[H:11]"
O       -2.64308396      -1.01781249      -0.02208148
C       -1.72629534      -0.28346617       0.12519139
C       -0.57943637      -0.01524041      -0.63765103
C        0.07529070       1.26063614      -0.67726464
N        1.24497447       1.19322696      -0.06995321
C        1.27876740      -0.09643759       0.47221255
N        0.51766800      -0.89082124      -0.44342991
H       -0.36266855      -0.06312110       1.60687576
H       -0.44203934       2.21287280      -0.71626023
H        2.30589640      -0.45828595       0.52629576
H        0.33092660      -1.84155096      -0.16393497
