13
Frame=0 idx=003312 GeodesicLength=0.0 rxn_smarts="[C:1]([C:2]#[C:3][C@@:4]1([H:10])[C:5]([H:11])([H:12])[N:6]1[H:13])([H:7])([H:8])[H:9]>>[C:1]([C:2](=[C:3]=[C:4]1[C:5]([H:11])([H:12])[N:6]1[H:13])[H:10])([H:7])([H:8])[H:9]"
C       -2.24698898       0.14482751      -0.32887650
C       -0.91089349       0.25895806       0.32420457
C       -0.25002656       0.00930114       1.44561765
C        0.71417230      -0.08658916       0.35299018
C        2.05839147       0.32994363      -0.04631821
N        1.59206301      -1.08071256      -0.09319256
H       -2.48430194       1.00675697      -0.95322812
H       -2.98053866       0.06924868       0.47457633
H       -2.31086735      -0.75877417      -0.93777127
H       -0.08245328       0.37457539      -0.64848495
H        2.71866861       0.63721100       0.75779753
H        2.26846672       0.75956750      -1.01826446
H        1.91430812      -1.66431402       0.67094987
13
Frame=1 idx=003312 GeodesicLength=0.12189498881316173 rxn_smarts="[C:1]([C:2]#[C:3][C@@:4]1([H:10])[C:5]([H:11])([H:12])[N:6]1[H:13])([H:7])([H:8])[H:9]>>[C:1]([C:2](=[C:3]=[C:4]1[C:5]([H:11])([H:12])[N:6]1[H:13])[H:10])([H:7])([H:8])[H:9]"
C       -2.27738383       0.14209611      -0.32049363
C       -0.92647265       0.26552025       0.29665022
C       -0.24453767       0.01966626       1.40086431
C        0.73009524      -0.08461253       0.32659093
C        2.08716771       0.32570416      -0.03293762
N        1.61914691      -1.08279386      -0.09386370
H       -2.53432905       1.00304796      -0.93850872
H       -2.99262395       0.06449270       0.49926470
H       -2.35419813      -0.76218469      -0.92685937
H       -0.07763607       0.38594124      -0.68315882
H        2.72531231       0.63141514       0.78951642
H        2.32605721       0.75593226      -0.99790141
H        1.91940196      -1.66422501       0.68083668
13
Frame=2 idx=003312 GeodesicLength=0.24369376668514242 rxn_smarts="[C:1]([C:2]#[C:3][C@@:4]1([H:10])[C:5]([H:11])([H:12])[N:6]1[H:13])([H:7])([H:8])[H:9]>>[C:1]([C:2](=[C:3]=[C:4]1[C:5]([H:11])([H:12])[N:6]1[H:13])[H:10])([H:7])([H:8])[H:9]"
C       -2.30814638       0.13946733      -0.31153298
C       -0.94242847       0.27154423       0.26721398
C       -0.23905524       0.02959354       1.35342601
C        0.74690611      -0.08270644       0.29858801
C        2.11608252       0.32156781      -0.01882821
N        1.64722311      -1.08487834      -0.09421537
H       -2.58481901       0.99931842      -0.92264656
H       -3.00358645       0.06057256       0.52510501
H       -2.39901666      -0.76567579      -0.91464827
H       -0.07246811       0.39676092      -0.71981491
H        2.73037080       0.62606784       0.82212917
H        2.38472659       0.75223804      -0.97569828
H        1.92421120      -1.66387012       0.69092240
13
Frame=3 idx=003312 GeodesicLength=0.3654018878638218 rxn_smarts="[C:1]([C:2]#[C:3][C@@:4]1([H:10])[C:5]([H:11])([H:12])[N:6]1[H:13])([H:7])([H:8])[H:9]>>[C:1]([C:2](=[C:3]=[C:4]1[C:5]([H:11])([H:12])[N:6]1[H:13])[H:10])([H:7])([H:8])[H:9]"
C       -2.33922252       0.13698936      -0.30193293
C       -0.95877204       0.27683228       0.23569914
C       -0.23357295       0.03893431       1.30304360
C        0.76469401      -0.08092560       0.26886888
C        2.14503555       0.31759732      -0.00391289
N        1.67635806      -1.08694898      -0.09416644
H       -2.63566482       0.99570337      -0.90545936
H       -3.01320979       0.05759049       0.55216373
H       -2.44545040      -0.76915994      -0.90102755
H       -0.06692244       0.40675843      -0.75868745
H        2.73357616       0.62127530       0.85563937
H        2.44442015       0.74854840      -0.95145900
H        1.92873103      -1.66319474       0.70123091
13
Frame=4 idx=003312 GeodesicLength=0.4870274831494351 rxn_smarts="[C:1]([C:2]#[C:3][C@@:4]1([H:10])[C:5]([H:11])([H:12])[N:6]1[H:13])([H:7])([H:8])[H:9]>>[C:1]([C:2](=[C:3]=[C:4]1[C:5]([H:11])([H:12])[N:6]1[H:13])[H:10])([H:7])([H:8])[H:9]"
C       -2.37054288       0.13470585      -0.29161478
C       -0.97551432       0.28113613       0.20187955
C       -0.22808940       0.04742507       1.24941201
C        0.78355326      -0.07935611       0.23729207
C        2.17390828       0.31389158       0.01191833
N        1.70664529      -1.08895143      -0.09371139
H       -2.68665880       0.99225028      -0.88691469
H       -3.02125295       0.05590698       0.58052504
H       -2.49372735      -0.77264369      -0.88565630
H       -0.06097102       0.41562076      -0.80004513
H        2.73460636       0.61712381       0.89013060
H        2.50507880       0.74506402      -0.92487625
H        1.93296472      -1.66217325       0.71166092
13
Frame=5 idx=003312 GeodesicLength=0.6086150272537744 rxn_smarts="[C:1]([C:2]#[C:3][C@@:4]1([H:10])[C:5]([H:11])([H:12])[N:6]1[H:13])([H:7])([H:8])[H:9]>>[C:1]([C:2](=[C:3]=[C:4]1[C:5]([H:11])([H:12])[N:6]1[H:13])[H:10])([H:7])([H:8])[H:9]"
C       -2.40199682       0.13277134      -0.28052062
C       -0.99267653       0.28399783       0.16556070
C       -0.22258608       0.05475924       1.19224515
C        0.80362179      -0.07815137       0.20379123
C        2.20248475       0.31053682       0.02869952
N        1.73816489      -1.09092879      -0.09258517
H       -2.73753277       0.98942982      -0.86650543
H       -3.02741426       0.05541175       0.61018154
H       -2.54393254      -0.77570032      -0.86871423
H       -0.05456787       0.42277422      -0.84418900
H        2.73302700       0.61399601       0.92540089
H        2.56635878       0.74178522      -0.89580856
H        1.93704966      -1.66068176       0.72244398
13
Frame=6 idx=003312 GeodesicLength=0.7301457975856299 rxn_smarts="[C:1]([C:2]#[C:3][C@@:4]1([H:10])[C:5]([H:11])([H:12])[N:6]1[H:13])([H:7])([H:8])[H:9]>>[C:1]([C:2](=[C:3]=[C:4]1[C:5]([H:11])([H:12])[N:6]1[H:13])[H:10])([H:7])([H:8])[H:9]"
C       -2.43346008       0.13116787      -0.26853776
C       -1.01027362       0.28527178       0.12645410
C       -0.21707785       0.06070677       1.13116304
C        0.82496619      -0.07733067       0.16819984
C        2.23064116       0.30766687       0.04661074
N        1.77096209      -1.09273897      -0.09091390
H       -2.78807188       0.98712894      -0.84435491
H       -3.03134600       0.05659686       0.64125471
H       -2.59628977      -0.77851121      -0.84955793
H       -0.04769649       0.42797106      -0.89143233
H        2.72851550       0.61175222       0.96167319
H        2.62832545       0.73907957      -0.86381619
H        1.94080528      -1.65876111       0.73325739
13
Frame=7 idx=003312 GeodesicLength=0.8516504288640854 rxn_smarts="[C:1]([C:2]#[C:3][C@@:4]1([H:10])[C:5]([H:11])([H:12])[N:6]1[H:13])([H:7])([H:8])[H:9]>>[C:1]([C:2](=[C:3]=[C:4]1[C:5]([H:11])([H:12])[N:6]1[H:13])[H:10])([H:7])([H:8])[H:9]"
C       -2.46472664       0.12997607      -0.25557655
C       -1.02833047       0.28456604       0.08428160
C       -0.21155499       0.06500712       1.06579200
C        0.84770965      -0.07696974       0.13041760
C        2.25813061       0.30541571       0.06573665
N        1.80504736      -1.09434350      -0.08857353
H       -2.83796475       0.98566719      -0.82008026
H       -3.03260239       0.05949952       0.67376894
H       -2.65089118      -0.78083805      -0.82803375
H       -0.04032598       0.43068881      -0.94215582
H        2.72059431       0.61055901       0.99890054
H        2.69074669       0.73713090      -0.82856756
H        1.94416778      -1.65635909       0.74409015
13
Frame=8 idx=003312 GeodesicLength=0.9730627252125007 rxn_smarts="[C:1]([C:2]#[C:3][C@@:4]1([H:10])[C:5]([H:11])([H:12])[N:6]1[H:13])([H:7])([H:8])[H:9]>>[C:1]([C:2](=[C:3]=[C:4]1[C:5]([H:11])([H:12])[N:6]1[H:13])[H:10])([H:7])([H:8])[H:9]"
C       -2.49553447       0.12926851      -0.24152382
C       -1.04689696       0.28140793       0.03877449
C       -0.20601057       0.06728762       0.99575647
C        0.87198126      -0.07712698       0.09034890
C        2.28463651       0.30392787       0.08620872
N        1.84040878      -1.09564652      -0.08559178
H       -2.88674071       0.98519409      -0.79364308
H       -3.03060155       0.06452848       0.70767421
H       -2.70770678      -0.78256626      -0.80351864
H       -0.03244789       0.43044162      -0.99665103
H        2.70863538       0.61045210       1.03706623
H        2.75326888       0.73635584      -0.78955277
H        1.94700812      -1.65352430       0.75465209
13
Frame=9 idx=003312 GeodesicLength=1.0940056193123597 rxn_smarts="[C:1]([C:2]#[C:3][C@@:4]1([H:10])[C:5]([H:11])([H:12])[N:6]1[H:13])([H:7])([H:8])[H:9]>>[C:1]([C:2](=[C:3]=[C:4]1[C:5]([H:11])([H:12])[N:6]1[H:13])[H:10])([H:7])([H:8])[H:9]"
C       -2.52566650       0.13007030      -0.22638613
C       -1.06597279       0.27393073      -0.00994653
C       -0.20056974       0.06453500       0.92069085
C        0.89786016      -0.07892551       0.04819603
C        2.30916843       0.30375927       0.10800334
N        1.87816766      -1.09639559      -0.08157322
H       -2.93258334       0.98737372      -0.76483001
H       -3.02493329       0.07273465       0.74273616
H       -2.76764870      -0.78192713      -0.77604199
H       -0.02403023       0.42415684      -1.05512161
H        2.69111049       0.61279645       1.07577089
H        2.81380619       0.73777864      -0.74663334
H        1.95129166      -1.64988735       0.76513556
13
Frame=10 idx=003312 GeodesicLength=1.2146869778320275 rxn_smarts="[C:1]([C:2]#[C:3][C@@:4]1([H:10])[C:5]([H:11])([H:12])[N:6]1[H:13])([H:7])([H:8])[H:9]>>[C:1]([C:2](=[C:3]=[C:4]1[C:5]([H:11])([H:12])[N:6]1[H:13])[H:10])([H:7])([H:8])[H:9]"
C       -2.55457242       0.13194008      -0.20992887
C       -1.08564308       0.26226968      -0.06233877
C       -0.19514551       0.05747462       0.84010747
C        0.92545878      -0.08182253       0.00372484
C        2.33152433       0.30500968       0.13146893
N        1.91765192      -1.09636129      -0.07689140
H       -2.97532842       0.99159560      -0.73392327
H       -3.01462573       0.08447937       0.77901883
H       -2.83023269      -0.77961360      -0.74425014
H       -0.01514198       0.41227816      -1.11810598
H        2.66764587       0.61653615       1.11529911
H        2.87265147       0.74205575      -0.69888301
H        1.95575746      -1.64584167       0.77470226
13
Frame=11 idx=003312 GeodesicLength=1.335089762165533 rxn_smarts="[C:1]([C:2]#[C:3][C@@:4]1([H:10])[C:5]([H:11])([H:12])[N:6]1[H:13])([H:7])([H:8])[H:9]>>[C:1]([C:2](=[C:3]=[C:4]1[C:5]([H:11])([H:12])[N:6]1[H:13])[H:10])([H:7])([H:8])[H:9]"
C       -2.58154853       0.13496719      -0.19205339
C       -1.10599593       0.24645989      -0.11836428
C       -0.18968098       0.04598100       0.75366862
C        0.95471404      -0.08573640      -0.04295688
C        2.35108620       0.30780542       0.15657524
N        1.95844295      -1.09539902      -0.07133098
H       -3.01423390       0.99836942      -0.70010951
H       -2.99882638       0.09890833       0.81628449
H       -2.89463030      -0.77500136      -0.70834417
H       -0.00584119       0.39399197      -1.18592075
H        2.63750303       0.62164144       1.15531371
H        2.92903323       0.74935529      -0.64614054
H        1.95997776      -1.64134316       0.78337844
13
Frame=12 idx=003312 GeodesicLength=1.455020712283591 rxn_smarts="[C:1]([C:2]#[C:3][C@@:4]1([H:10])[C:5]([H:11])([H:12])[N:6]1[H:13])([H:7])([H:8])[H:9]>>[C:1]([C:2](=[C:3]=[C:4]1[C:5]([H:11])([H:12])[N:6]1[H:13])[H:10])([H:7])([H:8])[H:9]"
C       -2.60581918       0.13957082      -0.17260915
C       -1.12710788       0.22551826      -0.17794557
C       -0.18416628       0.02829851       0.66088855
C        0.98560228      -0.09089071      -0.09182438
C        2.36674738       0.31257972       0.18359652
N        2.00074101      -1.09300268      -0.06525921
H       -3.04769242       1.00802923      -0.66397641
H       -2.97635177       0.11737197       0.85420817
H       -2.96052383      -0.76732940      -0.66682534
H        0.00376873       0.36749945      -1.25883283
H        2.59909431       0.62781527       1.19585659
H        2.98126014       0.76116503      -0.58741908
H        1.96444751      -1.63662549       0.79014215
13
Frame=13 idx=003312 GeodesicLength=1.5743693090348836 rxn_smarts="[C:1]([C:2]#[C:3][C@@:4]1([H:10])[C:5]([H:11])([H:12])[N:6]1[H:13])([H:7])([H:8])[H:9]>>[C:1]([C:2](=[C:3]=[C:4]1[C:5]([H:11])([H:12])[N:6]1[H:13])[H:10])([H:7])([H:8])[H:9]"
C       -2.62640613       0.14554401      -0.15155177
C       -1.14900160       0.20143891      -0.24029285
C       -0.17836259       0.00645690       0.56184635
C        1.01781103      -0.09632334      -0.14248803
C        2.37803772       0.31884835       0.21217110
N        2.04289455      -1.08923903      -0.05828075
H       -3.07590573       1.02016831      -0.62482928
H       -2.94644426       0.13726596       0.89227848
H       -3.02470614      -0.75677827      -0.62036826
H        0.01385631       0.33360653      -1.33646092
H        2.55236361       0.63437254       1.23591830
H        3.02861232       0.77636902      -0.52313088
H        1.96725092      -1.63172989       0.79518850
13
Frame=14 idx=003312 GeodesicLength=1.6930226224531628 rxn_smarts="[C:1]([C:2]#[C:3][C@@:4]1([H:10])[C:5]([H:11])([H:12])[N:6]1[H:13])([H:7])([H:8])[H:9]>>[C:1]([C:2](=[C:3]=[C:4]1[C:5]([H:11])([H:12])[N:6]1[H:13])[H:10])([H:7])([H:8])[H:9]"
C       -2.64204092       0.15376744      -0.12869556
C       -1.17161744       0.17162466      -0.30543102
C       -0.17234250      -0.02395756       0.45570167
C        1.05112591      -0.10308265      -0.19499988
C        2.38269648       0.32763032       0.24284582
N        2.08607755      -1.08304338      -0.05096109
H       -3.09530242       1.03652224      -0.58303115
H       -2.90680728       0.16103244       0.93037191
H       -3.08829303      -0.74106730      -0.56743771
H        0.02420073       0.28801941      -1.41965560
H        2.49409219       0.64113390       1.27591158
H        3.06761269       0.79833948      -0.45171401
H        1.97059806      -1.62691900       0.79709503
13
Frame=15 idx=003312 GeodesicLength=1.811223299850314 rxn_smarts="[C:1]([C:2]#[C:3][C@@:4]1([H:10])[C:5]([H:11])([H:12])[N:6]1[H:13])([H:7])([H:8])[H:9]>>[C:1]([C:2](=[C:3]=[C:4]1[C:5]([H:11])([H:12])[N:6]1[H:13])[H:10])([H:7])([H:8])[H:9]"
C       -2.65137614       0.16291469      -0.10412743
C       -1.19462294       0.14169453      -0.37197761
C       -0.16561262      -0.05637577       0.34309138
C        1.08489789      -0.10922705      -0.24874112
C        2.38079272       0.33759895       0.27437419
N        2.12649416      -1.07524415      -0.04162425
H       -3.10741246       1.05572678      -0.53567700
H       -2.85697066       0.18165759       0.96780040
H       -3.14566682      -0.72133136      -0.51153503
H        0.03505665       0.23361505      -1.50796528
H        2.42573833       0.64780511       1.31347224
H        3.09895410       0.82264869      -0.37531114
H        1.96972779      -1.62148304       0.79822066
13
Frame=16 idx=003312 GeodesicLength=1.9296412015426567 rxn_smarts="[C:1]([C:2]#[C:3][C@@:4]1([H:10])[C:5]([H:11])([H:12])[N:6]1[H:13])([H:7])([H:8])[H:9]>>[C:1]([C:2](=[C:3]=[C:4]1[C:5]([H:11])([H:12])[N:6]1[H:13])[H:10])([H:7])([H:8])[H:9]"
C       -2.65269302       0.17436135      -0.07741790
C       -1.21812231       0.10423636      -0.44047295
C       -0.15839546      -0.09795886       0.22253397
C        1.11862060      -0.11599972      -0.30377513
C        2.36901758       0.35010895       0.30812110
N        2.16626442      -1.06393953      -0.03229284
H       -3.10611593       1.07906015      -0.48642955
H       -2.79389655       0.20635053       1.00452137
H       -3.19935059      -0.69533988      -0.44689995
H        0.04679835       0.16794393      -1.60197462
H        2.34243365       0.65249275       1.35013142
H        3.11692367       0.85522606      -0.29065757
H        1.96851559      -1.61654208       0.79461265
