16
Frame=0 idx=005430 GeodesicLength=0.0 rxn_smarts="[C:1]([C:2]([C:3]([O:4][H:13])([H:11])[H:12])([C:5]([O:6][H:16])([H:14])[H:15])[H:10])([H:7])([H:8])[H:9]>>[C:1]([C:2](=[C:3]([H:11])[H:12])[C:5]([O:6][H:16])([H:14])[H:15])([H:7])([H:8])[H:9].[O:4]([H:10])[H:13]"
C       -1.72197214      -0.57439593       0.07331514
C       -0.26398908      -0.17905951       0.14236104
C        0.72372576      -0.96398219      -0.47080448
O        1.16244318       0.55484473      -1.69227670
C        0.16071828       0.65560739       1.34092411
O        1.49044260       1.10977505       1.24082552
H       -1.95319802      -1.08762952      -0.86181779
H       -1.99546717      -1.24198507       0.89553824
H       -2.36725436       0.30383241       0.13730177
H        0.07648899       0.53373515      -0.90972798
H        0.44686002      -1.72198025      -1.19331621
H        1.74118833      -0.98938245      -0.10739295
H        1.29295997       0.62517037      -2.64585816
H       -0.54061898       1.49416877       1.45041208
H        0.10570770       0.07125496       2.26530499
H        1.64196486       1.41002602       0.33521141
16
Frame=1 idx=005430 GeodesicLength=0.05565584411459053 rxn_smarts="[C:1]([C:2]([C:3]([O:4][H:13])([H:11])[H:12])([C:5]([O:6][H:16])([H:14])[H:15])[H:10])([H:7])([H:8])[H:9]>>[C:1]([C:2](=[C:3]([H:11])[H:12])[C:5]([O:6][H:16])([H:14])[H:15])([H:7])([H:8])[H:9].[O:4]([H:10])[H:13]"
C       -1.72388878      -0.57935311       0.08160809
C       -0.26875948      -0.17282853       0.13412386
C        0.71645624      -0.96040461      -0.48264009
O        1.17694000       0.56970540      -1.68592467
C        0.16004935       0.65645825       1.33491521
O        1.48512152       1.12246146       1.23696494
H       -1.96156366      -1.09864296      -0.84848396
H       -1.98374023      -1.24484994       0.90993424
H       -2.37418897       0.29498440       0.14892147
H        0.06866880       0.55557111      -0.92524119
H        0.43272426      -1.71777142      -1.20369959
H        1.72730785      -1.00699985      -0.10241150
H        1.33667129       0.61462891      -2.63606485
H       -0.54581484       1.48983507       1.45329608
H        0.11058205       0.06467930       2.25524880
H        1.64343460       1.41252652       0.32945314
16
Frame=2 idx=005430 GeodesicLength=0.11137050884309124 rxn_smarts="[C:1]([C:2]([C:3]([O:4][H:13])([H:11])[H:12])([C:5]([O:6][H:16])([H:14])[H:15])[H:10])([H:7])([H:8])[H:9]>>[C:1]([C:2](=[C:3]([H:11])[H:12])[C:5]([O:6][H:16])([H:14])[H:15])([H:7])([H:8])[H:9].[O:4]([H:10])[H:13]"
C       -1.72560508      -0.58428210       0.08976167
C       -0.27352838      -0.16666745       0.12586128
C        0.70933838      -0.95694823      -0.49437301
O        1.19096624       0.58407095      -1.67969976
C        0.15938923       0.65737780       1.32878543
O        1.47971785       1.13524715       1.23305943
H       -1.96950444      -1.10963745      -0.83525306
H       -1.97185292      -1.24758562       0.92403684
H       -2.38089998       0.28617527       0.16031106
H        0.06107684       0.57765224      -0.94084762
H        0.41870257      -1.71377986      -1.21381762
H        1.71301447      -1.02471880      -0.09771955
H        1.37944252       0.60449605      -2.62495362
H       -0.55099134       1.48549224       1.45600113
H        0.11553341       0.05831926       2.24511474
H        1.64520063       1.41478855       0.32373264
16
Frame=3 idx=005430 GeodesicLength=0.16670692493686712 rxn_smarts="[C:1]([C:2]([C:3]([O:4][H:13])([H:11])[H:12])([C:5]([O:6][H:16])([H:14])[H:15])[H:10])([H:7])([H:8])[H:9]>>[C:1]([C:2](=[C:3]([H:11])[H:12])[C:5]([O:6][H:16])([H:14])[H:15])([H:7])([H:8])[H:9].[O:4]([H:10])[H:13]"
C       -1.72702278      -0.58924376       0.09776297
C       -0.27830856      -0.16057162       0.11753341
C        0.70216333      -0.95352124      -0.50603632
O        1.20431276       0.59804867      -1.67337786
C        0.15881479       0.65835685       1.32238066
O        1.47419000       1.14819692       1.22894956
H       -1.97700611      -1.12065584      -0.82204443
H       -1.95967364      -1.25023842       0.93769761
H       -2.38716552       0.27727346       0.17154930
H        0.05364410       0.59999039      -0.95640886
H        0.40451455      -1.70987619      -1.22366483
H        1.69800288      -1.04237247      -0.09337856
H        1.42165520       0.59448380      -2.61203870
H       -0.55594378       1.48105185       1.45843598
H        0.12068386       0.05217530       2.23458732
H        1.64713892       1.41690230       0.31805273
16
Frame=4 idx=005430 GeodesicLength=0.22211917843672524 rxn_smarts="[C:1]([C:2]([C:3]([O:4][H:13])([H:11])[H:12])([C:5]([O:6][H:16])([H:14])[H:15])[H:10])([H:7])([H:8])[H:9]>>[C:1]([C:2](=[C:3]([H:11])[H:12])[C:5]([O:6][H:16])([H:14])[H:15])([H:7])([H:8])[H:9].[O:4]([H:10])[H:13]"
C       -1.72824972      -0.59418231       0.10563106
C       -0.28309005      -0.15455503       0.10918510
C        0.69512793      -0.95022064      -0.51761720
O        1.21720499       0.61159250      -1.66718738
C        0.15825700       0.65940214       1.31587359
O        1.46856282       1.16128147       1.22478937
H       -1.98411594      -1.13165425      -0.80894630
H       -1.94733649      -1.25276991       0.95107282
H       -2.39322114       0.26840754       0.18259655
H        0.04642801       0.62260613      -0.97204928
H        0.39042285      -1.70615986      -1.23331160
H        1.68258026      -1.06010740      -0.08932784
H        1.46301251       0.58473297      -2.59788297
H       -0.56088236       1.47658664       1.46073957
H        0.12596181       0.04623356       2.22399266
H        1.64933753       1.41880644       0.31244186
16
Frame=5 idx=005430 GeodesicLength=0.27750483972592127 rxn_smarts="[C:1]([C:2]([C:3]([O:4][H:13])([H:11])[H:12])([C:5]([O:6][H:16])([H:14])[H:15])[H:10])([H:7])([H:8])[H:9]>>[C:1]([C:2](=[C:3]([H:11])[H:12])[C:5]([O:6][H:16])([H:14])[H:15])([H:7])([H:8])[H:9].[O:4]([H:10])[H:13]"
C       -1.72925768      -0.59910884       0.11335903
C       -0.28786927      -0.14862108       0.10081265
C        0.68818691      -0.94703065      -0.52910373
O        1.22964176       0.62472853      -1.66106046
C        0.15772966       0.66050940       1.30922237
O        1.46281354       1.17452242       1.22053664
H       -1.99081978      -1.14264416      -0.79593408
H       -1.93482076      -1.25518442       0.96412426
H       -2.39900194       0.25955009       0.19345060
H        0.03944506       0.64550938      -0.98772391
H        0.37637108      -1.70259613      -1.24273852
H        1.66667614      -1.07788963      -0.08555852
H        1.50349033       0.57520418      -2.58242841
H       -0.56576076       1.47206702       1.46288224
H        0.13138537       0.04049092       2.21324694
H        1.65179035       1.42049298       0.30691289
16
Frame=6 idx=005430 GeodesicLength=0.3328574969888478 rxn_smarts="[C:1]([C:2]([C:3]([O:4][H:13])([H:11])[H:12])([C:5]([O:6][H:16])([H:14])[H:15])[H:10])([H:7])([H:8])[H:9]>>[C:1]([C:2](=[C:3]([H:11])[H:12])[C:5]([O:6][H:16])([H:14])[H:15])([H:7])([H:8])[H:9].[O:4]([H:10])[H:13]"
C       -1.73004639      -0.60402471       0.12094678
C       -0.29264326      -0.14277654       0.09242111
C        0.68133817      -0.94395461      -0.54049149
O        1.24164448       0.63747164      -1.65498867
C        0.15723365       0.66167767       1.30242825
O        1.45693002       1.18793229       1.21618520
H       -1.99712033      -1.15362957      -0.78300587
H       -1.92213287      -1.25747793       0.97685386
H       -2.40450383       0.25069952       0.20410748
H        0.03270633       0.66871076      -1.00342151
H        0.36235863      -1.69917263      -1.25195506
H        1.65029014      -1.09571138      -0.08206159
H        1.54305759       0.56587631      -2.56571933
H       -0.57057834       1.46748399       1.46486923
H        0.13696410       0.03494731       2.20234746
H        1.65450189       1.42194787       0.30148413
16
Frame=7 idx=005430 GeodesicLength=0.38818664268983416 rxn_smarts="[C:1]([C:2]([C:3]([O:4][H:13])([H:11])[H:12])([C:5]([O:6][H:16])([H:14])[H:15])[H:10])([H:7])([H:8])[H:9]>>[C:1]([C:2](=[C:3]([H:11])[H:12])[C:5]([O:6][H:16])([H:14])[H:15])([H:7])([H:8])[H:9].[O:4]([H:10])[H:13]"
C       -1.73061920      -0.60892955       0.12839513
C       -0.29740865      -0.13702829       0.08401677
C        0.67458675      -0.94099883      -0.55177540
O        1.25324108       0.64983618      -1.64896981
C        0.15676705       0.66290591       1.29549760
O        1.45089990       1.20152279       1.21173164
H       -2.00302105      -1.16461153      -0.77016256
H       -1.90928437      -1.25964675       0.98926868
H       -2.40973060       0.24185895       0.21456257
H        0.02622566       0.69222343      -1.01913522
H        0.34839435      -1.69588080      -1.26097140
H        1.63343233      -1.11356903      -0.07882719
H        1.58167470       0.55673019      -2.54781759
H       -0.57534186       1.46283075       1.46671040
H        0.14270493       0.02960071       2.19130117
H        1.65747897       1.42315586       0.29617520
16
Frame=8 idx=005430 GeodesicLength=0.44353918444412405 rxn_smarts="[C:1]([C:2]([C:3]([O:4][H:13])([H:11])[H:12])([C:5]([O:6][H:16])([H:14])[H:15])[H:10])([H:7])([H:8])[H:9]>>[C:1]([C:2](=[C:3]([H:11])[H:12])[C:5]([O:6][H:16])([H:14])[H:15])([H:7])([H:8])[H:9].[O:4]([H:10])[H:13]"
C       -1.73098479      -0.61381962       0.13570881
C       -0.30216331      -0.13138199       0.07560623
C        0.66794861      -0.93817886      -0.56295690
O        1.26446497       0.66183534      -1.64302093
C        0.15632118       0.66419620       1.28845069
O        1.44470609       1.21530694       1.20718308
H       -2.00852631      -1.17559148      -0.75740966
H       -1.89628890      -1.26168704       1.00139217
H       -2.41470194       0.23304342       0.22481480
H        0.02001477       0.71606759      -1.03487251
H        0.33450239      -1.69272388      -1.26981155
H        1.61612747      -1.13147543      -0.07584470
H        1.61931361       0.54775078      -2.52882077
H       -0.58007507       1.45811121       1.46843284
H        0.14861270       0.02444627       2.18013951
H        1.66072854       1.42410055       0.29100891
16
Frame=9 idx=005430 GeodesicLength=0.4988002040728434 rxn_smarts="[C:1]([C:2]([C:3]([O:4][H:13])([H:11])[H:12])([C:5]([O:6][H:16])([H:14])[H:15])[H:10])([H:7])([H:8])[H:9]>>[C:1]([C:2](=[C:3]([H:11])[H:12])[C:5]([O:6][H:16])([H:14])[H:15])([H:7])([H:8])[H:9].[O:4]([H:10])[H:13]"
C       -1.73113780      -0.61870841       0.14287622
C       -0.30689981      -0.12585128       0.06719301
C        0.66139979      -0.93548094      -0.57400442
O        1.27533963       0.67345939      -1.63706991
C        0.15591502       0.66554505       1.28125049
O        1.43835574       1.22929014       1.20250444
H       -2.01364592      -1.18657816      -0.74473445
H       -1.88315585      -1.26359401       1.01318659
H       -2.41938506       0.22421381       0.23484113
H        0.01410236       0.74022111      -1.05059334
H        0.32064701      -1.68966652      -1.27844163
H        1.59834809      -1.14938107      -0.07309892
H        1.65587279       0.53897269      -2.50869584
H       -0.58473097       1.45329483       1.46997991
H        0.15469649       0.01951105       2.16880012
H        1.66427850       1.42475230       0.28600662
16
Frame=10 idx=005430 GeodesicLength=0.5541314165672171 rxn_smarts="[C:1]([C:2]([C:3]([O:4][H:13])([H:11])[H:12])([C:5]([O:6][H:16])([H:14])[H:15])[H:10])([H:7])([H:8])[H:9]>>[C:1]([C:2](=[C:3]([H:11])[H:12])[C:5]([O:6][H:16])([H:14])[H:15])([H:7])([H:8])[H:9].[O:4]([H:10])[H:13]"
C       -1.73108123      -0.62355845       0.14988006
C       -0.31159381      -0.12044229       0.05880150
C        0.65503214      -0.93296285      -0.58489970
O        1.28597675       0.68470525      -1.63116408
C        0.15551159       0.66695877       1.27398576
O        1.43181118       1.24347808       1.19778261
H       -2.01833053      -1.19754963      -0.73220132
H       -1.86992562      -1.26533545       1.02469074
H       -2.42381748       0.21546715       0.24457090
H        0.00855139       0.76473129      -1.06632090
H        0.30696761      -1.68677489      -1.28688528
H        1.58021027      -1.16736827      -0.07054181
H        1.69101850       0.53038940      -2.48780916
H       -0.58939955       1.44842322       1.47144130
H        0.16092096       0.01477213       2.15742165
H        1.66814785       1.42506654       0.28124772
16
Frame=11 idx=005430 GeodesicLength=0.6092993095886509 rxn_smarts="[C:1]([C:2]([C:3]([O:4][H:13])([H:11])[H:12])([C:5]([O:6][H:16])([H:14])[H:15])[H:10])([H:7])([H:8])[H:9]>>[C:1]([C:2](=[C:3]([H:11])[H:12])[C:5]([O:6][H:16])([H:14])[H:15])([H:7])([H:8])[H:9].[O:4]([H:10])[H:13]"
C       -1.73078931      -0.62843614       0.15676505
C       -0.31627845      -0.11516447       0.05040960
C        0.64867500      -0.93054905      -0.59567140
O        1.29618873       0.69565764      -1.62520729
C        0.15516100       0.66842224       1.26650896
O        1.42506305       1.25789388       1.19281085
H       -2.02263397      -1.20854970      -0.71968008
H       -1.85653508      -1.26696970       1.03586341
H       -2.42789258       0.20666198       0.25412912
H        0.00327840       0.78958865      -1.08197995
H        0.29322670      -1.68392297      -1.29513030
H        1.56149100      -1.18528958      -0.06826123
H        1.72534376       0.52190695      -2.46566623
H       -0.59393012       1.44341771       1.47269251
H        0.16736451       0.01024158       2.14575916
H        1.67226737       1.42509096       0.27665783
16
Frame=12 idx=005430 GeodesicLength=0.664540415124538 rxn_smarts="[C:1]([C:2]([C:3]([O:4][H:13])([H:11])[H:12])([C:5]([O:6][H:16])([H:14])[H:15])[H:10])([H:7])([H:8])[H:9]>>[C:1]([C:2](=[C:3]([H:11])[H:12])[C:5]([O:6][H:16])([H:14])[H:15])([H:7])([H:8])[H:9].[O:4]([H:10])[H:13]"
C       -1.73032664      -0.63329907       0.16352701
C       -0.32094240      -0.11001955       0.04203677
C        0.64247133      -0.92831168      -0.60631902
O        1.30614686       0.70627298      -1.61930978
C        0.15481626       0.66995155       1.25895802
O        1.41810899       1.27253367       1.18772846
H       -2.02657460      -1.21955760      -0.70725678
H       -1.84305665      -1.26845968       1.04680067
H       -2.43177200       0.19789748       0.26346368
H       -0.00166616       0.81482456      -1.09766407
H        0.27961614      -1.68118714      -1.30325685
H        1.54241396      -1.20325147      -0.06620542
H        1.75854711       0.51356828      -2.44273316
H       -0.59847207       1.43834131       1.47386260
H        0.17399636       0.00591911       2.13404726
H        1.67669353       1.42477726       0.27232062
16
Frame=13 idx=005430 GeodesicLength=0.7198048421808404 rxn_smarts="[C:1]([C:2]([C:3]([O:4][H:13])([H:11])[H:12])([C:5]([O:6][H:16])([H:14])[H:15])[H:10])([H:7])([H:8])[H:9]>>[C:1]([C:2](=[C:3]([H:11])[H:12])[C:5]([O:6][H:16])([H:14])[H:15])([H:7])([H:8])[H:9].[O:4]([H:10])[H:13]"
C       -1.72967694      -0.63815849       0.17016820
C       -0.32558322      -0.10501228       0.03368189
C        0.63639052      -0.92624422      -0.61682752
O        1.31585793       0.71657024      -1.61341614
C        0.15448178       0.67154441       1.25129867
O        1.41092493       1.28741124       1.18248269
H       -2.03014215      -1.23058878      -0.69490118
H       -1.82948199      -1.26980835       1.05748925
H       -2.43541476       0.18915166       0.27257095
H       -0.00625364       0.84045410      -1.11334346
H        0.26609872      -1.67854113      -1.31124742
H        1.52292815      -1.22123050      -0.06436847
H        1.79061315       0.50536998      -2.41899166
H       -0.60299520       1.43317347       1.47492065
H        0.18082497       0.00180515       2.12222440
H        1.68142775       1.42410349       0.26825914
16
Frame=14 idx=005430 GeodesicLength=0.7751854348897467 rxn_smarts="[C:1]([C:2]([C:3]([O:4][H:13])([H:11])[H:12])([C:5]([O:6][H:16])([H:14])[H:15])[H:10])([H:7])([H:8])[H:9]>>[C:1]([C:2](=[C:3]([H:11])[H:12])[C:5]([O:6][H:16])([H:14])[H:15])([H:7])([H:8])[H:9].[O:4]([H:10])[H:13]"
C       -1.72886076      -0.64300787       0.17670515
C       -0.33020546      -0.10014342       0.02534778
C        0.63046191      -0.92437191      -0.62721325
O        1.32535694       0.72656472      -1.60756762
C        0.15413616       0.67320764       1.24356778
O        1.40348196       1.30254058       1.17708052
H       -2.03334662      -1.24164491      -0.68261789
H       -1.81582498      -1.27101712       1.06798294
H       -2.43887161       0.18045226       0.28146639
H       -0.01047691       0.86651724      -1.12905513
H        0.25271658      -1.67600010      -1.31915209
H        1.50308146      -1.23926021      -0.06274546
H        1.82157242       0.49729074      -2.39457817
H       -0.60754982       1.42793256       1.47592007
H        0.18785614      -0.00211032       2.11035185
H        1.68647259       1.42305012       0.26450712
16
Frame=15 idx=005430 GeodesicLength=0.8303358682280246 rxn_smarts="[C:1]([C:2]([C:3]([O:4][H:13])([H:11])[H:12])([C:5]([O:6][H:16])([H:14])[H:15])[H:10])([H:7])([H:8])[H:9]>>[C:1]([C:2](=[C:3]([H:11])[H:12])[C:5]([O:6][H:16])([H:14])[H:15])([H:7])([H:8])[H:9].[O:4]([H:10])[H:13]"
C       -1.72781657      -0.64788496       0.18308465
C       -0.33478591      -0.09543535       0.01703224
C        0.62457529      -0.92263972      -0.63738865
O        1.33462063       0.73622226      -1.60151408
C        0.15384966       0.67493185       1.23563400
O        1.39581567       1.31791846       1.17140451
H       -2.03617010      -1.25275822      -0.67037324
H       -1.80205229      -1.27206686       1.07811601
H       -2.44197416       0.17168503       0.29007222
H       -0.01425993       0.89293124      -1.14465050
H        0.23931747      -1.67348362      -1.32683369
H        1.48271900      -1.25719009      -0.06132866
H        1.85116347       0.48938197      -2.36924628
H       -0.61195189       1.42253949       1.47668570
H        0.19512394      -0.00576089       2.09819096
H        1.69182573       1.42160941       0.26111480
16
Frame=16 idx=005430 GeodesicLength=0.8856255475870247 rxn_smarts="[C:1]([C:2]([C:3]([O:4][H:13])([H:11])[H:12])([C:5]([O:6][H:16])([H:14])[H:15])[H:10])([H:7])([H:8])[H:9]>>[C:1]([C:2](=[C:3]([H:11])[H:12])[C:5]([O:6][H:16])([H:14])[H:15])([H:7])([H:8])[H:9].[O:4]([H:10])[H:13]"
C       -1.72661094      -0.65276068       0.18938956
C       -0.33935086      -0.09087484       0.00873724
C        0.61883589      -0.92111180      -0.64744180
O        1.34373018       0.74560406      -1.59547449
C        0.15353575       0.67671969       1.22762396
O        1.38786448       1.33351624       1.16551599
H       -2.03863327      -1.26392417      -0.65814902
H       -1.78820358      -1.27297028       1.08810962
H       -2.44490372       0.16295109       0.29848084
H       -0.01762389       0.91982081      -1.16029139
H        0.22605057      -1.67102996      -1.33447181
H        1.46199153      -1.27517561      -0.06012858
H        1.87967209       0.48158470      -2.34334717
H       -0.61638503       1.41707753       1.47737058
H        0.20257614      -0.00920963       2.08598484
H        1.69745467       1.41978283       0.25809163
