14
Frame=0 idx=004430 GeodesicLength=0.0 rxn_smarts="[C:1]([C@@:2]1([O:3][H:10])[C:4]([H:11])([H:12])[C@:5]1([O:6][H:14])[H:13])([H:7])([H:8])[H:9]>>[C:1]1([H:7])([H:9])[C:2]2([O:3][H:10])[C:4]([H:11])([H:12])[C:5]12[H:13].[O:6]([H:8])[H:14]"
C       -0.97563780       0.33432247      -0.78891405
C       -0.24695477       0.69009491       0.42363858
O       -0.15115529       1.97179176       0.97768670
C       -0.10767000      -0.47630324       1.38865472
C        0.88236637      -0.20784286       0.34383814
O        0.87171202      -1.62703197      -1.14855624
H       -2.03612641       0.10923197      -0.70997025
H       -0.00021606      -1.11790906      -1.27518731
H       -0.66526028       0.88349016      -1.67569473
H       -0.43166123       2.58438937       0.29447266
H        0.26361785      -0.26930369       2.39043779
H       -0.80404263      -1.30166110       1.32596529
H        1.95992607      -0.19213682       0.34112672
H        1.44110211      -1.38113187      -1.88749803
14
Frame=1 idx=004430 GeodesicLength=0.08347203090439011 rxn_smarts="[C:1]([C@@:2]1([O:3][H:10])[C:4]([H:11])([H:12])[C@:5]1([O:6][H:14])[H:13])([H:7])([H:8])[H:9]>>[C:1]1([H:7])([H:9])[C:2]2([O:3][H:10])[C:4]([H:11])([H:12])[C:5]12[H:13].[O:6]([H:8])[H:14]"
C       -0.95524996       0.33645508      -0.79676557
C       -0.24402988       0.69594460       0.42685998
O       -0.13159206       1.97632427       0.97669537
C       -0.10316373      -0.47421237       1.38426508
C        0.88129858      -0.20786775       0.33029936
O        0.86358140      -1.64920451      -1.13970991
H       -2.01689647       0.11360700      -0.72477128
H       -0.02148796      -1.12626906      -1.27401059
H       -0.64576752       0.89846744      -1.67586625
H       -0.49149224       2.58819514       0.33133749
H        0.27315475      -0.27199201       2.38487603
H       -0.80205775      -1.29782824       1.32136847
H        1.95847948      -0.17178723       0.33405108
H        1.43522336      -1.40983236      -1.87862926
14
Frame=2 idx=004430 GeodesicLength=0.16731131909348468 rxn_smarts="[C:1]([C@@:2]1([O:3][H:10])[C:4]([H:11])([H:12])[C@:5]1([O:6][H:14])[H:13])([H:7])([H:8])[H:9]>>[C:1]1([H:7])([H:9])[C:2]2([O:3][H:10])[C:4]([H:11])([H:12])[C:5]12[H:13].[O:6]([H:8])[H:14]"
C       -0.93457892       0.33887260      -0.80557726
C       -0.24050541       0.70204472       0.42905867
O       -0.11153434       1.98222478       0.97260718
C       -0.09829659      -0.47140847       1.37983090
C        0.88064705      -0.20803398       0.31656966
O        0.85540080      -1.67217436      -1.13047731
H       -1.99740917       0.11846073      -0.74050684
H       -0.04306312      -1.13454407      -1.27328710
H       -0.62607096       0.91344823      -1.67713007
H       -0.55363523       2.58895837       0.37508303
H        0.28278504      -0.27285580       2.37938656
H       -0.80001740      -1.29321562       1.31705496
H        1.95712926      -0.15212452       0.32696115
H        1.42914899      -1.43965260      -1.86957352
14
Frame=3 idx=004430 GeodesicLength=0.25061899862523646 rxn_smarts="[C:1]([C@@:2]1([O:3][H:10])[C:4]([H:11])([H:12])[C@:5]1([O:6][H:14])[H:13])([H:7])([H:8])[H:9]>>[C:1]1([H:7])([H:9])[C:2]2([O:3][H:10])[C:4]([H:11])([H:12])[C:5]12[H:13].[O:6]([H:8])[H:14]"
C       -0.91358139       0.34103932      -0.81421906
C       -0.23672384       0.70770343       0.43016345
O       -0.09227454       1.98785677       0.96472785
C       -0.09371116      -0.46762197       1.37461268
C        0.87993448      -0.20801658       0.30228104
O        0.84726537      -1.69405277      -1.12034270
H       -1.97746934       0.12325902      -0.75563596
H       -0.06481755      -1.14164862      -1.27186698
H       -0.60600094       0.92745711      -1.67798394
H       -0.61383296       2.58395648       0.42383130
H        0.29146118      -0.27175496       2.37239982
H       -0.79836868      -1.28702740       1.31259297
H        1.95523898      -0.13265891       0.31906566
H        1.42288038      -1.46849094      -1.85962613
14
Frame=4 idx=004430 GeodesicLength=0.33484762367476323 rxn_smarts="[C:1]([C@@:2]1([O:3][H:10])[C:4]([H:11])([H:12])[C@:5]1([O:6][H:14])[H:13])([H:7])([H:8])[H:9]>>[C:1]1([H:7])([H:9])[C:2]2([O:3][H:10])[C:4]([H:11])([H:12])[C:5]12[H:13].[O:6]([H:8])[H:14]"
C       -0.89348402       0.34322478      -0.82403893
C       -0.23323244       0.71373940       0.43072383
O       -0.07511359       1.99566689       0.95508649
C       -0.08873751      -0.46388777       1.36984481
C        0.87954969      -0.20780650       0.28842854
O        0.83962932      -1.71676043      -1.11009159
H       -1.95857531       0.12747861      -0.77233400
H       -0.08700508      -1.14895955      -1.27136068
H       -0.58738671       0.94173491      -1.68034391
H       -0.67008036       2.57727924       0.47676069
H        0.30044264      -0.26958787       2.36654586
H       -0.79629639      -1.28173151       1.30836546
H        1.95359484      -0.11270398       0.31219986
H        1.41669493      -1.49768622      -1.84978644
14
Frame=5 idx=004430 GeodesicLength=0.418220884041834 rxn_smarts="[C:1]([C@@:2]1([O:3][H:10])[C:4]([H:11])([H:12])[C@:5]1([O:6][H:14])[H:13])([H:7])([H:8])[H:9]>>[C:1]1([H:7])([H:9])[C:2]2([O:3][H:10])[C:4]([H:11])([H:12])[C:5]12[H:13].[O:6]([H:8])[H:14]"
C       -0.87363049       0.34450784      -0.83304099
C       -0.23078481       0.71880626       0.43073178
O       -0.06124237       2.00165811       0.94360796
C       -0.08461849      -0.45952040       1.36445849
C        0.87824188      -0.20695512       0.27400822
O        0.83266954      -1.73722580      -1.09919111
H       -1.93927966       0.13027447      -0.78751883
H       -0.10896114      -1.15474732      -1.27009914
H       -0.56934788       0.95415654      -1.68189378
H       -0.71714489       2.56662029       0.53065868
H        0.30744780      -0.26599508       2.35937788
H       -0.79416766      -1.27551675       1.30414048
H        1.95010443      -0.09166563       0.30423001
H        1.41071374      -1.52439742      -1.83946965
14
Frame=6 idx=004430 GeodesicLength=0.5018013545766999 rxn_smarts="[C:1]([C@@:2]1([O:3][H:10])[C:4]([H:11])([H:12])[C@:5]1([O:6][H:14])[H:13])([H:7])([H:8])[H:9]>>[C:1]1([H:7])([H:9])[C:2]2([O:3][H:10])[C:4]([H:11])([H:12])[C:5]12[H:13].[O:6]([H:8])[H:14]"
C       -0.85489038       0.34552031      -0.84237450
C       -0.22899208       0.72388575       0.43056913
O       -0.05034376       2.00861325       0.93190253
C       -0.08043705      -0.45555101       1.35925853
C        0.87700344      -0.20575247       0.26002583
O        0.82656618      -1.75759114      -1.08807180
H       -1.92119509       0.13228957      -0.80318709
H       -0.13123710      -1.16028881      -1.26924010
H       -0.55302573       0.96639922      -1.68399314
H       -0.75762919       2.55536110       0.58441059
H        0.31438492      -0.26231081       2.35281481
H       -0.79169408      -1.27047484       1.29980130
H        1.94646646      -0.06990633       0.29719527
H        1.40502346      -1.55019377      -1.82911132
14
Frame=7 idx=004430 GeodesicLength=0.5856358210856976 rxn_smarts="[C:1]([C@@:2]1([O:3][H:10])[C:4]([H:11])([H:12])[C@:5]1([O:6][H:14])[H:13])([H:7])([H:8])[H:9]>>[C:1]1([H:7])([H:9])[C:2]2([O:3][H:10])[C:4]([H:11])([H:12])[C:5]12[H:13].[O:6]([H:8])[H:14]"
C       -0.83684734       0.34616473      -0.85181462
C       -0.22778638       0.72878244       0.43005451
O       -0.04174168       2.01575226       0.91949323
C       -0.07642934      -0.45159678       1.35396072
C        0.87566997      -0.20424348       0.24612896
O        0.82126752      -1.77753216      -1.07654139
H       -1.90378934       0.13370893      -0.81887666
H       -0.15368377      -1.16533466      -1.26851577
H       -0.53781293       0.97801999      -1.68635768
H       -0.79252614       2.54283271       0.63898838
H        0.32078456      -0.25812978       2.34626566
H       -0.78909821      -1.26578748       1.29534484
H        1.94233173      -0.04753133       0.29042556
H        1.39966135      -1.57510538      -1.81855574
14
Frame=8 idx=004430 GeodesicLength=0.669387737543182 rxn_smarts="[C:1]([C@@:2]1([O:3][H:10])[C:4]([H:11])([H:12])[C@:5]1([O:6][H:14])[H:13])([H:7])([H:8])[H:9]>>[C:1]1([H:7])([H:9])[C:2]2([O:3][H:10])[C:4]([H:11])([H:12])[C:5]12[H:13].[O:6]([H:8])[H:14]"
C       -0.81921144       0.34641158      -0.86119049
C       -0.22701698       0.73339421       0.42916921
O       -0.03539716       2.02267374       0.90645750
C       -0.07265321      -0.44755867       1.34849386
C        0.87414758      -0.20239405       0.23220481
O        0.81667768      -1.79672109      -1.06450336
H       -1.88665719       0.13471596      -0.83424827
H       -0.17627224      -1.16967223      -1.26769355
H       -0.52334495       0.98885125      -1.68882817
H       -0.82224970       2.52857209       0.69387425
H        0.32650746      -0.25349162       2.33953715
H       -0.78640686      -1.26114199       1.29082538
H        1.93745364      -0.02477698       0.28370831
H        1.39442338      -1.59886219      -1.80780663
14
Frame=9 idx=004430 GeodesicLength=0.7533543395157324 rxn_smarts="[C:1]([C@@:2]1([O:3][H:10])[C:4]([H:11])([H:12])[C@:5]1([O:6][H:14])[H:13])([H:7])([H:8])[H:9]>>[C:1]1([H:7])([H:9])[C:2]2([O:3][H:10])[C:4]([H:11])([H:12])[C:5]12[H:13].[O:6]([H:8])[H:14]"
C       -0.80226288       0.34625931      -0.87060690
C       -0.22685041       0.73780577       0.42796734
O       -0.03095829       2.02962757       0.89294966
C       -0.06911889      -0.44362810       1.34289177
C        0.87250727      -0.20027634       0.21837700
O        0.81303487      -1.81547272      -1.05198931
H       -1.87021598       0.13518548      -0.84954343
H       -0.19903407      -1.17354272      -1.26696975
H       -0.50995144       0.99905804      -1.69149418
H       -0.84673536       2.51366502       0.74908511
H        0.33163531      -0.24859029       2.33277227
H       -0.78365082      -1.25696718       1.28612309
H        1.93201773      -0.00146732       0.27727964
H        1.38958296      -1.62165651      -1.79684232
14
Frame=10 idx=004430 GeodesicLength=0.8373453919621872 rxn_smarts="[C:1]([C@@:2]1([O:3][H:10])[C:4]([H:11])([H:12])[C@:5]1([O:6][H:14])[H:13])([H:7])([H:8])[H:9]>>[C:1]1([H:7])([H:9])[C:2]2([O:3][H:10])[C:4]([H:11])([H:12])[C:5]12[H:13].[O:6]([H:8])[H:14]"
C       -0.78579065       0.34573278      -0.88002524
C       -0.22714261       0.74199916       0.42646325
O       -0.02850514       2.03643205       0.87915670
C       -0.06579752      -0.43969785       1.33716320
C        0.87072632      -0.19788294       0.20459861
O        0.81029050      -1.83366759      -1.03898313
H       -1.85418458       0.13535667      -0.86464702
H       -0.22198020      -1.17685991      -1.26625726
H       -0.49737349       1.00855918      -1.69433864
H       -0.86649223       2.49776257       0.80432687
H        0.33617404      -0.24340549       2.32596154
H       -0.78079284      -1.25298932       1.28129364
H        1.92591081       0.02212078       0.27105362
H        1.38495759      -1.64346010      -1.78576613
14
Frame=11 idx=004430 GeodesicLength=0.9215186709251187 rxn_smarts="[C:1]([C@@:2]1([O:3][H:10])[C:4]([H:11])([H:12])[C@:5]1([O:6][H:14])[H:13])([H:7])([H:8])[H:9]>>[C:1]1([H:7])([H:9])[C:2]2([O:3][H:10])[C:4]([H:11])([H:12])[C:5]12[H:13].[O:6]([H:8])[H:14]"
C       -0.76995120       0.34483894      -0.88946829
C       -0.22799839       0.74601943       0.42469164
O       -0.02779797       2.04324045       0.86513409
C       -0.06272798      -0.43589357       1.33130153
C        0.86885967      -0.19526324       0.19092318
O        0.80863432      -1.85149336      -1.02548114
H       -1.83883783       0.13518730      -0.87964949
H       -0.24514956      -1.17977055      -1.26563498
H       -0.48576019       1.01748021      -1.69734969
H       -0.88152859       2.48149608       0.85957863
H        0.34014667      -0.23807735       2.31913010
H       -0.77791311      -1.24947112       1.27625058
H        1.91927355       0.04609159       0.26513308
H        1.38075062      -1.66438480      -1.77455921
14
Frame=12 idx=004430 GeodesicLength=1.0058333674969675 rxn_smarts="[C:1]([C@@:2]1([O:3][H:10])[C:4]([H:11])([H:12])[C@:5]1([O:6][H:14])[H:13])([H:7])([H:8])[H:9]>>[C:1]1([H:7])([H:9])[C:2]2([O:3][H:10])[C:4]([H:11])([H:12])[C:5]12[H:13].[O:6]([H:8])[H:14]"
C       -0.75459861       0.34360153      -0.89892925
C       -0.22931592       0.74989668       0.42266864
O       -0.02892302       2.05003980       0.85105272
C       -0.05989809      -0.43211438       1.32529270
C        0.86694884      -0.19241946       0.17729619
O        0.80807196      -1.86899032      -1.01149456
H       -1.82405034       0.13487263      -0.89451382
H       -0.26859508      -1.18230779      -1.26506517
H       -0.47486763       1.02577233      -1.70051157
H       -0.89229536       2.46464377       0.91487077
H        0.34356378      -0.23251772       2.31225192
H       -0.77506594      -1.24620848       1.27100265
H        1.91213860       0.07031650       0.25941513
H        1.37688680      -1.68458508      -1.76333634
14
Frame=13 idx=004430 GeodesicLength=1.0900163228937134 rxn_smarts="[C:1]([C@@:2]1([O:3][H:10])[C:4]([H:11])([H:12])[C@:5]1([O:6][H:14])[H:13])([H:7])([H:8])[H:9]>>[C:1]1([H:7])([H:9])[C:2]2([O:3][H:10])[C:4]([H:11])([H:12])[C:5]12[H:13].[O:6]([H:8])[H:14]"
C       -0.73976735       0.34188493      -0.90833450
C       -0.23130757       0.75335811       0.42036799
O       -0.03147411       2.05621357       0.83652326
C       -0.05745265      -0.42849967       1.31918303
C        0.86464138      -0.18932329       0.16378704
O        0.80868093      -1.88557367      -0.99682692
H       -1.80956931       0.13408630      -0.90912833
H       -0.29219764      -1.18417341      -1.26442877
H       -0.46490932       1.03330549      -1.70380945
H       -0.89787619       2.44743746       0.96965487
H        0.34613824      -0.22697754       2.30532603
H       -0.77203436      -1.24337119       1.26563589
H        1.90386874       0.09490691       0.25394272
H        1.37325919      -1.70327400      -1.75189285
14
Frame=14 idx=004430 GeodesicLength=1.1743438619814686 rxn_smarts="[C:1]([C@@:2]1([O:3][H:10])[C:4]([H:11])([H:12])[C@:5]1([O:6][H:14])[H:13])([H:7])([H:8])[H:9]>>[C:1]1([H:7])([H:9])[C:2]2([O:3][H:10])[C:4]([H:11])([H:12])[C:5]12[H:13].[O:6]([H:8])[H:14]"
C       -0.72550899       0.33984904      -0.91774644
C       -0.23381220       0.75669725       0.41786468
O       -0.03572857       2.06241121       0.82207221
C       -0.05528006      -0.42499009       1.31293840
C        0.86230027      -0.18603417       0.15037784
O        0.81062186      -1.90188810      -0.98163634
H       -1.79579486       0.13321684      -0.92361461
H       -0.31612784      -1.18570658      -1.26390663
H       -0.45574358       1.04029291      -1.70723256
H       -0.89925369       2.43005334       1.02418430
H        0.34815520      -0.22133978       2.29839297
H       -0.76906809      -1.24093268       1.26000330
H        1.89515592       0.11963247       0.24875461
H        1.37008461      -1.72126166      -1.74045173
14
Frame=15 idx=004430 GeodesicLength=1.2587391053975225 rxn_smarts="[C:1]([C@@:2]1([O:3][H:10])[C:4]([H:11])([H:12])[C@:5]1([O:6][H:14])[H:13])([H:7])([H:8])[H:9]>>[C:1]1([H:7])([H:9])[C:2]2([O:3][H:10])[C:4]([H:11])([H:12])[C:5]12[H:13].[O:6]([H:8])[H:14]"
C       -0.71181377       0.33743292      -0.92713086
C       -0.23693532       0.75980870       0.41517717
O       -0.04153716       2.06840849       0.80759296
C       -0.05347460      -0.42163441       1.30658085
C        0.85979138      -0.18254640       0.13708155
O        0.81400435      -1.91773680      -0.96586198
H       -1.78263140       0.13216725      -0.93793024
H       -0.34037092      -1.18684641      -1.26345771
H       -0.44738582       1.04667910      -1.71075474
H       -0.89606333       2.41263428       1.07827767
H        0.34945368      -0.21568718       2.29145925
H       -0.76613064      -1.23896077       1.25413404
H        1.88574743       0.14459113       0.24383536
H        1.36734612      -1.73830990      -1.72900332
14
Frame=16 idx=004430 GeodesicLength=1.3431570201946645 rxn_smarts="[C:1]([C@@:2]1([O:3][H:10])[C:4]([H:11])([H:12])[C@:5]1([O:6][H:14])[H:13])([H:7])([H:8])[H:9]>>[C:1]1([H:7])([H:9])[C:2]2([O:3][H:10])[C:4]([H:11])([H:12])[C:5]12[H:13].[O:6]([H:8])[H:14]"
C       -0.69865048       0.33465750      -0.93648946
C       -0.24066631       0.76265617       0.41229815
O       -0.04893936       2.07409698       0.79309422
C       -0.05202497      -0.41844211       1.30010534
C        0.85707634      -0.17885746       0.12391395
O        0.81889242      -1.93301798      -0.94940589
H       -1.77001013       0.13102713      -0.95209358
H       -0.36497405      -1.18753015      -1.26303897
H       -0.43979299       1.05246420      -1.71437511
H       -0.88828170       2.39506925       1.13176257
H        0.35003356      -0.21007085       2.28451311
H       -0.76317038      -1.23742647       1.24801593
H        1.87555539       0.16972138       0.23919913
H        1.36495266      -1.75434759      -1.71749939
