17
Frame=0 idx=002933 GeodesicLength=0.0 rxn_smarts="[C:1]([N:2]1[C:3]([H:10])([H:11])[C:4]1([C:5]([H:12])([H:13])[H:14])[C:6]([H:15])([H:16])[H:17])([H:7])([H:8])[H:9]>>[C-:1]([N+:2]1=[C:4]([C:6]([H:15])([H:16])[H:17])[C:3]1([H:10])[H:11])([H:7])[H:9].[C:5]([H:8])([H:12])([H:13])[H:14]"
C        1.74486583       0.28329162      -0.75064649
N        1.17687004      -0.32927560       0.36057016
C        0.62862794       0.33008138       1.54523736
C       -0.10100706      -0.51795495       0.59781943
C       -0.88587769       1.04088980      -0.99985912
C       -1.12473289      -1.56758422       0.46588196
H        1.87561184      -0.39708207      -1.59109117
H        0.47861054       0.89777664      -0.99226628
H        2.64149305       0.85344518      -0.51990813
H        0.44896157       1.40405960       1.48252723
H        1.02494710      -0.02763003       2.49206551
H       -1.38492462       0.27331050      -1.59346352
H       -0.79337820       1.93182523      -1.62986304
H       -1.53433153       1.32327975      -0.16871181
H       -2.11731270      -1.11787227       0.53455395
H       -1.04130223      -2.07072900      -0.49744363
H       -1.03712099      -2.30983148       1.26459752
17
Frame=1 idx=002933 GeodesicLength=0.11285647493646983 rxn_smarts="[C:1]([N:2]1[C:3]([H:10])([H:11])[C:4]1([C:5]([H:12])([H:13])[H:14])[C:6]([H:15])([H:16])[H:17])([H:7])([H:8])[H:9]>>[C-:1]([N+:2]1=[C:4]([C:6]([H:15])([H:16])[H:17])[C:3]1([H:10])[H:11])([H:7])[H:9].[C:5]([H:8])([H:12])([H:13])[H:14]"
C        1.75336974       0.27656764      -0.74733152
N        1.16511306      -0.30449071       0.36624308
C        0.61710807       0.32487755       1.56274228
C       -0.12001944      -0.49012942       0.59027474
C       -0.89367429       1.05286335      -1.01141823
C       -1.11164749      -1.57309593       0.46579266
H        1.87695705      -0.42259314      -1.57347528
H        0.49597324       0.93484411      -1.01143804
H        2.66105411       0.82781618      -0.51385152
H        0.45015096       1.40187911       1.52699347
H        1.01456057      -0.06616006       2.49625150
H       -1.44949374       0.28357733      -1.55069976
H       -0.80250592       1.89413492      -1.70678219
H       -1.52589634       1.39937373      -0.19210532
H       -2.11476640      -1.15276933       0.56165587
H       -1.03757424      -2.05768789      -0.50803555
H       -0.97870894      -2.32900744       1.24518382
17
Frame=2 idx=002933 GeodesicLength=0.2246705284905347 rxn_smarts="[C:1]([N:2]1[C:3]([H:10])([H:11])[C:4]1([C:5]([H:12])([H:13])[H:14])[C:6]([H:15])([H:16])[H:17])([H:7])([H:8])[H:9]>>[C-:1]([N+:2]1=[C:4]([C:6]([H:15])([H:16])[H:17])[C:3]1([H:10])[H:11])([H:7])[H:9].[C:5]([H:8])([H:12])([H:13])[H:14]"
C        1.76081633       0.26938827      -0.74350682
N        1.15268383      -0.27805449       0.37237947
C        0.60417208       0.31949964       1.58038505
C       -0.13933477      -0.46211724       0.58346550
C       -0.90185793       1.06429644      -1.02330516
C       -1.09690615      -1.57811791       0.46444474
H        1.87728980      -0.44936926      -1.55383465
H        0.51325164       0.97025804      -1.03215500
H        2.67891539       0.80183102      -0.50745650
H        0.44908376       1.39856913       1.57275567
H        1.00343500      -0.10419417       2.49910258
H       -1.51727128       0.29909419      -1.50100588
H       -0.81227691       1.84803185      -1.78325255
H       -1.51113563       1.48023365      -0.21906187
H       -2.10955672      -1.18952971       0.58901974
H       -1.03349405      -2.04316516      -0.51982496
H       -0.91781439      -2.34665428       1.22185063
17
Frame=3 idx=002933 GeodesicLength=0.33601202187878776 rxn_smarts="[C:1]([N:2]1[C:3]([H:10])([H:11])[C:4]1([C:5]([H:12])([H:13])[H:14])[C:6]([H:15])([H:16])[H:17])([H:7])([H:8])[H:9]>>[C-:1]([N+:2]1=[C:4]([C:6]([H:15])([H:16])[H:17])[C:3]1([H:10])[H:11])([H:7])[H:9].[C:5]([H:8])([H:12])([H:13])[H:14]"
C        1.76750155       0.26188142      -0.73914388
N        1.13977426      -0.24968434       0.37910855
C        0.58989509       0.31406567       1.59832574
C       -0.15886856      -0.43415425       0.57755074
C       -0.91070984       1.07501806      -1.03526124
C       -1.08077847      -1.58263426       0.46156443
H        1.87706899      -0.47741780      -1.53192986
H        0.53038008       1.00335357      -1.05526715
H        2.69534265       0.77603491      -0.50064720
H        0.44554667       1.39416989       1.61990419
H        0.99172382      -0.14149443       2.50098318
H       -1.58815471       0.32123963      -1.44326760
H       -0.82342657       1.79212009      -1.85877658
H       -1.48931686       1.56557461      -0.25056897
H       -2.10167733      -1.22832699       0.61683296
H       -1.02978949      -2.02677854      -0.53327744
H       -0.85451128      -2.36296724       1.19387012
17
Frame=4 idx=002933 GeodesicLength=0.4460269111741969 rxn_smarts="[C:1]([N:2]1[C:3]([H:10])([H:11])[C:4]1([C:5]([H:12])([H:13])[H:14])[C:6]([H:15])([H:16])[H:17])([H:7])([H:8])[H:9]>>[C-:1]([N+:2]1=[C:4]([C:6]([H:15])([H:16])[H:17])[C:3]1([H:10])[H:11])([H:7])[H:9].[C:5]([H:8])([H:12])([H:13])[H:14]"
C        1.77324147       0.25391553      -0.73413796
N        1.12633831      -0.21921982       0.38626398
C        0.57428497       0.30861145       1.61620470
C       -0.17838211      -0.40645249       0.57247912
C       -0.92040295       1.08492497      -1.04651176
C       -1.06321446      -1.58628629       0.45678944
H        1.87621717      -0.50687615      -1.50733004
H        0.54704646       1.03343626      -1.08117132
H        2.70990123       0.75051885      -0.49344815
H        0.43902770       1.38857470       1.66811949
H        0.97963483      -0.17787122       2.50133790
H       -1.65984927       0.35097502      -1.37675023
H       -0.83734882       1.72565942      -1.93111691
H       -1.46011325       1.65413559      -0.28760563
H       -2.09068058      -1.26857297       0.64407090
H       -1.02620877      -2.00846116      -0.54834672
H       -0.78949195      -2.37701167       1.16115319
17
Frame=5 idx=002933 GeodesicLength=0.5552905927236114 rxn_smarts="[C:1]([N:2]1[C:3]([H:10])([H:11])[C:4]1([C:5]([H:12])([H:13])[H:14])[C:6]([H:15])([H:16])[H:17])([H:7])([H:8])[H:9]>>[C-:1]([N+:2]1=[C:4]([C:6]([H:15])([H:16])[H:17])[C:3]1([H:10])[H:11])([H:7])[H:9].[C:5]([H:8])([H:12])([H:13])[H:14]"
C        1.77831464       0.24562974      -0.72844196
N        1.11259174      -0.18638378       0.39393213
C        0.55766447       0.30320721       1.63420891
C       -0.19773046      -0.37920667       0.56844440
C       -0.93117500       1.09416401      -1.05653691
C       -1.04465386      -1.58892549       0.44983827
H        1.87510666      -0.53766950      -1.47976527
H        0.56311595       1.05966373      -1.11090250
H        2.72283714       0.72598057      -0.48583779
H        0.42954971       1.38179083       1.71753950
H        0.96757262      -0.21322847       2.50051106
H       -1.73069315       0.38955533      -1.30118830
H       -0.85542156       1.64765368      -1.99870317
H       -1.42364522       1.74449854      -0.33139544
H       -2.07670724      -1.31009931       0.67035444
H       -1.02335622      -1.98795145      -0.56533418
H       -0.72337023      -2.38867897       1.12327684
17
Frame=6 idx=002933 GeodesicLength=0.6636352481356693 rxn_smarts="[C:1]([N:2]1[C:3]([H:10])([H:11])[C:4]1([C:5]([H:12])([H:13])[H:14])[C:6]([H:15])([H:16])[H:17])([H:7])([H:8])[H:9]>>[C-:1]([N+:2]1=[C:4]([C:6]([H:15])([H:16])[H:17])[C:3]1([H:10])[H:11])([H:7])[H:9].[C:5]([H:8])([H:12])([H:13])[H:14]"
C        1.78273919       0.23693842      -0.72203011
N        1.09853781      -0.15102340       0.40187803
C        0.54037148       0.29784731       1.65212040
C       -0.21674139      -0.35247890       0.56543001
C       -0.94308148       1.10305904      -1.06463463
C       -1.02534953      -1.59015566       0.44060547
H        1.87380841      -0.56983029      -1.44894272
H        0.57837366       1.08111362      -1.14512051
H        2.73413250       0.70253090      -0.47791379
H        0.41702516       1.37369159       1.76802225
H        0.95610335      -0.24755270       2.49809183
H       -1.79720599       0.43701516      -1.21776430
H       -0.87914157       1.55921577      -2.05816803
H       -1.38151048       1.83404749      -0.38287417
H       -2.05985418      -1.35203273       0.69442954
H       -1.02099745      -1.96537759      -0.58396470
H       -0.65720948      -2.39700801       1.08083545
17
Frame=7 idx=002933 GeodesicLength=0.7718263357056638 rxn_smarts="[C:1]([N:2]1[C:3]([H:10])([H:11])[C:4]1([C:5]([H:12])([H:13])[H:14])[C:6]([H:15])([H:16])[H:17])([H:7])([H:8])[H:9]>>[C-:1]([N+:2]1=[C:4]([C:6]([H:15])([H:16])[H:17])[C:3]1([H:10])[H:11])([H:7])[H:9].[C:5]([H:8])([H:12])([H:13])[H:14]"
C        1.78667731       0.22790134      -0.71474023
N        1.08427765      -0.11296300       0.41006439
C        0.52289355       0.29248120       1.67006396
C       -0.23535438      -0.32617945       0.56355877
C       -0.95610052       1.11205489      -1.07053919
C       -1.00573493      -1.58961068       0.42901938
H        1.87255071      -0.60321731      -1.41452933
H        0.59274268       1.09683729      -1.18456225
H        2.74393281       0.68064478      -0.46955013
H        0.40183962       1.36413080       1.81978484
H        0.94576138      -0.28102840       2.49415881
H       -1.85715467       0.49354012      -1.12793335
H       -0.90947950       1.46085105      -2.10727249
H       -1.33546363       1.92054837      -0.44284433
H       -2.04040484      -1.39383291       0.71589128
H       -1.01947301      -1.94049778      -0.60423938
H       -0.59151024      -2.40166031       1.03366926
17
Frame=8 idx=002933 GeodesicLength=0.879627288569411 rxn_smarts="[C:1]([N:2]1[C:3]([H:10])([H:11])[C:4]1([C:5]([H:12])([H:13])[H:14])[C:6]([H:15])([H:16])[H:17])([H:7])([H:8])[H:9]>>[C-:1]([N+:2]1=[C:4]([C:6]([H:15])([H:16])[H:17])[C:3]1([H:10])[H:11])([H:7])[H:9].[C:5]([H:8])([H:12])([H:13])[H:14]"
C        1.78991521       0.21848581      -0.70651770
N        1.06964596      -0.07220836       0.41813283
C        0.50583948       0.28683656       1.68768520
C       -0.25349967      -0.30016832       0.56272248
C       -0.96988755       1.12174842      -1.07427428
C       -0.98606522      -1.58702951       0.41553876
H        1.87099524      -0.63759678      -1.37626149
H        0.60598935       1.10637581      -1.22922324
H        2.75213038       0.66010192      -0.46081835
H        0.38456122       1.35270392       1.87261827
H        0.93745608      -0.31399347       2.48794976
H       -1.90704572       0.55702147      -1.03561571
H       -0.94668008       1.35711431      -2.14280366
H       -1.28890296       2.00079482      -0.51122347
H       -2.01875639      -1.43435743       0.73360933
H       -1.01810826      -1.91403873      -0.62524873
H       -0.52758709      -2.40179043       0.98372998
17
Frame=9 idx=002933 GeodesicLength=0.9876855288795595 rxn_smarts="[C:1]([N:2]1[C:3]([H:10])([H:11])[C:4]1([C:5]([H:12])([H:13])[H:14])[C:6]([H:15])([H:16])[H:17])([H:7])([H:8])[H:9]>>[C-:1]([N+:2]1=[C:4]([C:6]([H:15])([H:16])[H:17])[C:3]1([H:10])[H:11])([H:7])[H:9].[C:5]([H:8])([H:12])([H:13])[H:14]"
C        1.79246687       0.20890069      -0.69717020
N        1.05457059      -0.02871195       0.42594043
C        0.48963344       0.28058937       1.70497432
C       -0.27130271      -0.27418368       0.56295167
C       -0.98408379       1.13232572      -1.07635946
C       -0.96666070      -1.58209413       0.40047430
H        1.86924496      -0.67240332      -1.33394280
H        0.61813360       1.10915245      -1.27906801
H        2.75876086       0.64122588      -0.45151290
H        0.36592497       1.33882399       1.92676922
H        0.93156684      -0.34689946       2.47920689
H       -1.94611226       0.62637642      -0.94314432
H       -0.99023217       1.25011052      -2.16386264
H       -1.24387692       2.07296824      -0.58776789
H       -1.99528182      -1.47313049       0.74784413
H       -1.01699980      -1.88589001      -0.64669945
H       -0.46575197      -2.39716022       0.93136670
17
Frame=10 idx=002933 GeodesicLength=1.096522637892931 rxn_smarts="[C:1]([N:2]1[C:3]([H:10])([H:11])[C:4]1([C:5]([H:12])([H:13])[H:14])[C:6]([H:15])([H:16])[H:17])([H:7])([H:8])[H:9]>>[C-:1]([N+:2]1=[C:4]([C:6]([H:15])([H:16])[H:17])[C:3]1([H:10])[H:11])([H:7])[H:9].[C:5]([H:8])([H:12])([H:13])[H:14]"
C        1.79440857       0.19930953      -0.68645373
N        1.03897196       0.01724250       0.43327032
C        0.47487831       0.27345785       1.72176851
C       -0.28890945      -0.24813277       0.56414565
C       -0.99851413       1.14373220      -1.07760379
C       -0.94782641      -1.57492718       0.38432674
H        1.86745578      -0.70709599      -1.28755481
H        0.62923044       1.10492658      -1.33345829
H        2.76409668       0.62412340      -0.44129408
H        0.34675079       1.32204161       1.98232899
H        0.92896963      -0.37996366       2.46751760
H       -1.97443768       0.69992585      -0.85307804
H       -1.03909652       1.14378245      -2.17020721
H       -1.20276135       2.13589187      -0.67200663
H       -1.97064930      -1.50972505       0.75848031
H       -1.01601750      -1.85677840      -0.66810350
H       -0.40654980      -2.38781078       0.87792196
17
Frame=11 idx=002933 GeodesicLength=1.2063131317409923 rxn_smarts="[C:1]([N:2]1[C:3]([H:10])([H:11])[C:4]1([C:5]([H:12])([H:13])[H:14])[C:6]([H:15])([H:16])[H:17])([H:7])([H:8])[H:9]>>[C-:1]([N+:2]1=[C:4]([C:6]([H:15])([H:16])[H:17])[C:3]1([H:10])[H:11])([H:7])[H:9].[C:5]([H:8])([H:12])([H:13])[H:14]"
C        1.79552813       0.18997084      -0.67400682
N        1.02271198       0.06521900       0.43999109
C        0.46180866       0.26516762       1.73765515
C       -0.30644391      -0.22189890       0.56618740
C       -1.01287476       1.15578324      -1.07857880
C       -0.92966141      -1.56543623       0.36739770
H        1.86556633      -0.74087715      -1.23704906
H        0.63927497       1.09353621      -1.39139532
H        2.76781967       0.60903765      -0.42975406
H        0.32780642       1.30180053       2.03893355
H        0.92962919      -0.41340558       2.45232310
H       -1.99238495       0.77711255      -0.76663204
H       -1.09196448       1.03969677      -2.16232230
H       -1.16669368       2.18877749      -0.76327414
H       -1.94495219      -1.54385809       0.76599977
H       -1.01515628      -1.82677958      -0.68914023
H       -0.35001370      -2.37384635       0.82366503
17
Frame=12 idx=002933 GeodesicLength=1.3170924929210626 rxn_smarts="[C:1]([N:2]1[C:3]([H:10])([H:11])[C:4]1([C:5]([H:12])([H:13])[H:14])[C:6]([H:15])([H:16])[H:17])([H:7])([H:8])[H:9]>>[C-:1]([N+:2]1=[C:4]([C:6]([H:15])([H:16])[H:17])[C:3]1([H:10])[H:11])([H:7])[H:9].[C:5]([H:8])([H:12])([H:13])[H:14]"
C        1.79580263       0.18124441      -0.65965895
N        1.00580362       0.11443724       0.44607386
C        0.45077593       0.25552743       1.75230413
C       -0.32398420      -0.19568317       0.56897261
C       -1.02702352       1.16817688      -1.07988620
C       -0.91243478      -1.55399391       0.35016681
H        1.86359124      -0.77278398      -1.18287556
H        0.64837885       1.07535774      -1.45170693
H        2.77003616       0.59620986      -0.41662942
H        0.31004983       1.27769536       2.09604330
H        0.93366910      -0.44708178       2.43347922
H       -2.00052546       0.85683700      -0.68520414
H       -1.14742565       0.94084217      -2.14142135
H       -1.13687248       2.23103111      -0.86072931
H       -1.91871975      -1.57549707       0.77068251
H       -1.01440755      -1.79656328      -0.70945791
H       -0.29671398      -2.35575602       0.76984732
17
Frame=13 idx=002933 GeodesicLength=1.4289892569391864 rxn_smarts="[C:1]([N:2]1[C:3]([H:10])([H:11])[C:4]1([C:5]([H:12])([H:13])[H:14])[C:6]([H:15])([H:16])[H:17])([H:7])([H:8])[H:9]>>[C-:1]([N+:2]1=[C:4]([C:6]([H:15])([H:16])[H:17])[C:3]1([H:10])[H:11])([H:7])[H:9].[C:5]([H:8])([H:12])([H:13])[H:14]"
C        1.79522565       0.17340539      -0.64326139
N        0.98838154       0.16393886       0.45156649
C        0.44171925       0.24464080       1.76527644
C       -0.34158578      -0.16965054       0.57233353
C       -1.04079060       1.18067686      -1.08172427
C       -0.89629162      -1.54088829       0.33282960
H        1.86156632      -0.80203373      -1.12572644
H        0.65677736       1.05086593      -1.51306040
H        2.77073729       0.58582363      -0.40167676
H        0.29416875       1.24979900       2.15274932
H        0.94033698      -0.48067678       2.41095663
H       -1.99930316       0.93897109      -0.60916528
H       -1.20434818       0.84818487      -2.10863033
H       -1.11380683       2.26231976      -0.96322371
H       -1.89213939      -1.60476327       0.77305788
H       -1.01391268      -1.76647706      -0.72894488
H       -0.24673491      -2.33413653       0.71664358
17
Frame=14 idx=002933 GeodesicLength=1.5418238299045215 rxn_smarts="[C:1]([N:2]1[C:3]([H:10])([H:11])[C:4]1([C:5]([H:12])([H:13])[H:14])[C:6]([H:15])([H:16])[H:17])([H:7])([H:8])[H:9]>>[C-:1]([N+:2]1=[C:4]([C:6]([H:15])([H:16])[H:17])[C:3]1([H:10])[H:11])([H:7])[H:9].[C:5]([H:8])([H:12])([H:13])[H:14]"
C        1.79385108       0.16670922      -0.62498167
N        0.97068661       0.21254219       0.45660465
C        0.43457320       0.23266554       1.77635489
C       -0.35919173      -0.14420045       0.57612520
C       -1.05406191       1.19297703      -1.08422997
C       -0.88139596      -1.52664204       0.31571434
H        1.85939914      -0.82785502      -1.06684881
H        0.66491824       1.02128238      -1.57415006
H        2.77012369       0.57779761      -0.38492761
H        0.28073963       1.21831681       2.20812944
H        0.94894219      -0.51365890       2.38527280
H       -1.98901973       1.02286937      -0.53893334
H       -1.26149246       0.76344200      -2.06565119
H       -1.09831626       2.28240283      -1.06940708
H       -1.86564460      -1.63179455       0.77335843
H       -1.01360462      -1.73710883      -0.74748322
H       -0.20050652      -2.30974520       0.66505321
17
Frame=15 idx=002933 GeodesicLength=1.6556684630000167 rxn_smarts="[C:1]([N:2]1[C:3]([H:10])([H:11])[C:4]1([C:5]([H:12])([H:13])[H:14])[C:6]([H:15])([H:16])[H:17])([H:7])([H:8])[H:9]>>[C-:1]([N+:2]1=[C:4]([C:6]([H:15])([H:16])[H:17])[C:3]1([H:10])[H:11])([H:7])[H:9].[C:5]([H:8])([H:12])([H:13])[H:14]"
C        1.79189183       0.16122003      -0.60501963
N        0.95302944       0.25935134       0.46137675
C        0.42885268       0.22006490       1.78538692
C       -0.37684884      -0.11955639       0.58018136
C       -1.06678180       1.20498927      -1.08731750
C       -0.86779268      -1.51173986       0.29890636
H        1.85715121      -0.85006883      -1.00736818
H        0.67328983       0.98755832      -1.63411031
H        2.76853982       0.57196872      -0.36646038
H        0.26988707       1.18409301       2.26120911
H        0.95822959      -0.54549607       2.35706769
H       -1.96988911       1.10838343      -0.47468913
H       -1.31833851       0.68723021      -2.01379469
H       -1.09043479       2.29131257      -1.17735916
H       -1.83931503      -1.65713324       0.77217570
H       -1.01370795      -1.70881649      -0.76510216
H       -0.15776273      -2.28336092       0.61491726
17
Frame=16 idx=002933 GeodesicLength=1.770253868169501 rxn_smarts="[C:1]([N:2]1[C:3]([H:10])([H:11])[C:4]1([C:5]([H:12])([H:13])[H:14])[C:6]([H:15])([H:16])[H:17])([H:7])([H:8])[H:9]>>[C-:1]([N+:2]1=[C:4]([C:6]([H:15])([H:16])[H:17])[C:3]1([H:10])[H:11])([H:7])[H:9].[C:5]([H:8])([H:12])([H:13])[H:14]"
C        1.78929262       0.15692094      -0.58378177
N        0.93556688       0.30365389       0.46600924
C        0.42416970       0.20709675       1.79240645
C       -0.39443496      -0.09598880       0.58434822
C       -1.07887168       1.21644559      -1.09096444
C       -0.85534812      -1.49651105       0.28253370
H        1.85453291      -0.86857564      -0.94845893
H        0.68240726       0.95109395      -1.69228262
H        2.76600987       0.56782422      -0.34654751
H        0.26135078       1.14757752       2.31135543
H        0.96742369      -0.57577010       2.32705789
H       -1.94152501       1.19518771      -0.41623500
H       -1.37407566       0.62001783      -1.95461546
H       -1.09085225       2.28913604      -1.28533976
H       -1.81329091      -1.68077775       0.76939443
H       -1.01378880      -1.68181744      -0.78184043
H       -0.11856633      -2.25551366       0.56696055
