15
Frame=0 idx=003516 GeodesicLength=0.0 rxn_smarts="[C:1]([O:2]/[C:3](=[N:4]/[C:5]([H:10])([H:11])[H:12])[C:6]([H:13])([H:14])[H:15])([H:7])([H:8])[H:9]>>[C:1]([N:4]([C:3](=[O:2])[C:6]([H:13])([H:14])[H:15])[C:5]([H:10])([H:11])[H:12])([H:7])([H:8])[H:9]"
C        1.95750698      -0.96635504      -0.37112179
O        0.16474548      -1.75266228      -0.00950463
C       -0.40395468      -0.62523058       0.07479562
N        0.36915752       0.38439669      -0.13041293
C        0.00101965       1.77434881      -0.08352552
C       -1.86527868      -0.56062633       0.41149512
H        2.36970646      -0.13678955      -0.92793560
H        2.05120766      -1.90539064      -0.90107304
H        2.28921761      -1.00810437       0.65594025
H       -0.80190848       2.01910640      -0.78775589
H       -0.30447054       2.09601995       0.91824032
H        0.86887803       2.37335669      -0.36542104
H       -2.27194497       0.44411248       0.30567135
H       -2.41736952      -1.24538759      -0.23094834
H       -2.00651247      -0.89079463       1.44155618
15
Frame=1 idx=003516 GeodesicLength=0.04376409587191183 rxn_smarts="[C:1]([O:2]/[C:3](=[N:4]/[C:5]([H:10])([H:11])[H:12])[C:6]([H:13])([H:14])[H:15])([H:7])([H:8])[H:9]>>[C:1]([N:4]([C:3](=[O:2])[C:6]([H:13])([H:14])[H:15])[C:5]([H:10])([H:11])[H:12])([H:7])([H:8])[H:9]"
C        1.94649154      -0.96198438      -0.38102164
O        0.16240584      -1.75650115      -0.01968541
C       -0.40498809      -0.62777967       0.06952340
N        0.37337209       0.38126034      -0.12724420
C        0.00447495       1.77047511      -0.06796441
C       -1.86539437      -0.55854645       0.40799721
H        2.35392733      -0.15182669      -0.97041522
H        2.05532241      -1.91499321      -0.88296986
H        2.30017022      -0.97733327       0.64035571
H       -0.77061723       2.02784242      -0.79838185
H       -0.34090255       2.07302946       0.92643635
H        0.88238925       2.37418170      -0.30545741
H       -2.28408580       0.43428175       0.24905111
H       -2.41287060      -1.28078158      -0.19594533
H       -1.99969499      -0.83132438       1.45572158
15
Frame=2 idx=003516 GeodesicLength=0.08735605452409392 rxn_smarts="[C:1]([O:2]/[C:3](=[N:4]/[C:5]([H:10])([H:11])[H:12])[C:6]([H:13])([H:14])[H:15])([H:7])([H:8])[H:9]>>[C:1]([N:4]([C:3](=[O:2])[C:6]([H:13])([H:14])[H:15])[C:5]([H:10])([H:11])[H:12])([H:7])([H:8])[H:9]"
C        1.93561595      -0.95781204      -0.39140492
O        0.16055402      -1.76036139      -0.02811492
C       -0.40474802      -0.63028692       0.06931073
N        0.37865536       0.37814488      -0.11953025
C        0.00760300       1.76638996      -0.05238470
C       -1.86536491      -0.55621857       0.40463369
H        2.33622212      -0.16697291      -1.01227148
H        2.05814859      -1.92293600      -0.86695581
H        2.31344621      -0.94822593       0.62230033
H       -0.73817082       2.03417378      -0.80909066
H       -0.37848132       2.05258612       0.93148764
H        0.89374944       2.37384968      -0.24591975
H       -2.29416012       0.42273041       0.19412028
H       -2.40646156      -1.31238303      -0.16207427
H       -1.99660796      -0.77267805       1.46589409
15
Frame=3 idx=003516 GeodesicLength=0.13080857404325671 rxn_smarts="[C:1]([O:2]/[C:3](=[N:4]/[C:5]([H:10])([H:11])[H:12])[C:6]([H:13])([H:14])[H:15])([H:7])([H:8])[H:9]>>[C:1]([N:4]([C:3](=[O:2])[C:6]([H:13])([H:14])[H:15])[C:5]([H:10])([H:11])[H:12])([H:7])([H:8])[H:9]"
C        1.92503606      -0.95370107      -0.40086695
O        0.15816206      -1.76427966      -0.03950239
C       -0.40414288      -0.63287277       0.07037129
N        0.38416435       0.37492669      -0.11100260
C        0.01036957       1.76210287      -0.03771590
C       -1.86505893      -0.55372792       0.40201702
H        2.31859998      -0.18184932      -1.05080433
H        2.06143576      -1.92916422      -0.85155321
H        2.32613514      -0.92077926       0.60433299
H       -0.70605465       2.03948603      -0.81889754
H       -0.41497817       2.03330329       0.93379252
H        0.90276658       2.37257678      -0.18869119
H       -2.30231514       0.40986001       0.14295978
H       -2.39997658      -1.34021057      -0.12774050
H       -1.99414316      -0.71567088       1.47330102
15
Frame=4 idx=003516 GeodesicLength=0.17426811833231373 rxn_smarts="[C:1]([O:2]/[C:3](=[N:4]/[C:5]([H:10])([H:11])[H:12])[C:6]([H:13])([H:14])[H:15])([H:7])([H:8])[H:9]>>[C:1]([N:4]([C:3](=[O:2])[C:6]([H:13])([H:14])[H:15])[C:5]([H:10])([H:11])[H:12])([H:7])([H:8])[H:9]"
C        1.91462454      -0.94962627      -0.41006245
O        0.15565154      -1.76815604      -0.05166804
C       -0.40287080      -0.63553805       0.07418156
N        0.39013574       0.37160452      -0.10045485
C        0.01296029       1.75762594      -0.02336960
C       -1.86461139      -0.55113128       0.39976640
H        2.30000474      -0.19659388      -1.08770781
H        2.06443910      -1.93401298      -0.83718476
H        2.33948115      -0.89444719       0.58533055
H       -0.67344121       2.04345685      -0.82806332
H       -0.45103937       2.01538681       0.93363843
H        0.90983514       2.37054944      -0.13260152
H       -2.30871759       0.39558452       0.09385583
H       -2.39285588      -1.36511517      -0.09353307
H       -1.99359601      -0.65958720       1.47787266
15
Frame=5 idx=003516 GeodesicLength=0.21783002406334356 rxn_smarts="[C:1]([O:2]/[C:3](=[N:4]/[C:5]([H:10])([H:11])[H:12])[C:6]([H:13])([H:14])[H:15])([H:7])([H:8])[H:9]>>[C:1]([N:4]([C:3](=[O:2])[C:6]([H:13])([H:14])[H:15])[C:5]([H:10])([H:11])[H:12])([H:7])([H:8])[H:9]"
C        1.90431463      -0.94555462      -0.41926913
O        0.15311775      -1.77198312      -0.06404037
C       -0.40089174      -0.63840768       0.08120830
N        0.39666722       0.36811100      -0.08721219
C        0.01550203       1.75301168      -0.00912717
C       -1.86408447      -0.54846105       0.39781210
H        2.27995399      -0.21107012      -1.12350910
H        2.06692328      -1.93761433      -0.82421024
H        2.35393851      -0.86912578       0.56478710
H       -0.63957665       2.04598615      -0.83700143
H       -0.48730460       1.99903452       0.93087572
H        0.91520361       2.36795697      -0.07675308
H       -2.31336135       0.37986522       0.04592902
H       -2.38511224      -1.38765431      -0.05923698
H       -1.99528996      -0.60409452       1.47974748
15
Frame=6 idx=003516 GeodesicLength=0.26183673817800335 rxn_smarts="[C:1]([O:2]/[C:3](=[N:4]/[C:5]([H:10])([H:11])[H:12])[C:6]([H:13])([H:14])[H:15])([H:7])([H:8])[H:9]>>[C:1]([N:4]([C:3](=[O:2])[C:6]([H:13])([H:14])[H:15])[C:5]([H:10])([H:11])[H:12])([H:7])([H:8])[H:9]"
C        1.89374609      -0.94129345      -0.42915496
O        0.15103089      -1.77559624      -0.07402184
C       -0.39770864      -0.64157103       0.09362643
N        0.40413755       0.36432004      -0.06926416
C        0.01821703       1.74804896       0.00563376
C       -1.86340477      -0.54573022       0.39574659
H        2.25664401      -0.22503504      -1.15961300
H        2.06794101      -1.93980560      -0.81366023
H        2.37063972      -0.84453857       0.54118562
H       -0.60314751       2.04606599      -0.84606300
H       -0.52442072       1.98446983       0.92536722
H        0.91888402       2.36485086      -0.01998620
H       -2.31564403       0.36226357      -0.00272322
H       -2.37603048      -1.40826417      -0.02550731
H       -2.00088418      -0.54818494       1.47843429
15
Frame=7 idx=003516 GeodesicLength=0.3060607900224848 rxn_smarts="[C:1]([O:2]/[C:3](=[N:4]/[C:5]([H:10])([H:11])[H:12])[C:6]([H:13])([H:14])[H:15])([H:7])([H:8])[H:9]>>[C:1]([N:4]([C:3](=[O:2])[C:6]([H:13])([H:14])[H:15])[C:5]([H:10])([H:11])[H:12])([H:7])([H:8])[H:9]"
C        1.88318356      -0.93682330      -0.43842508
O        0.14840571      -1.77895230      -0.08601973
C       -0.39425022      -0.64505641       0.10769744
N        0.41169303       0.36023953      -0.05030188
C        0.02098430       1.74281501       0.01995855
C       -1.86250569      -0.54297936       0.39414185
H        2.23245931      -0.23848190      -1.19365616
H        2.06899634      -1.94075482      -0.80372669
H        2.38705508      -0.82051144       0.51708256
H       -0.56594113       2.04521305      -0.85426678
H       -0.56047721       1.97054160       0.91751431
H        0.92083457       2.36121207       0.03571342
H       -2.31606592       0.34332352      -0.04948627
H       -2.36709991      -1.42659062       0.00895107
H       -2.00727181      -0.49319465       1.47482339
15
Frame=8 idx=003516 GeodesicLength=0.35062141077618714 rxn_smarts="[C:1]([O:2]/[C:3](=[N:4]/[C:5]([H:10])([H:11])[H:12])[C:6]([H:13])([H:14])[H:15])([H:7])([H:8])[H:9]>>[C:1]([N:4]([C:3](=[O:2])[C:6]([H:13])([H:14])[H:15])[C:5]([H:10])([H:11])[H:12])([H:7])([H:8])[H:9]"
C        1.87246075      -0.93204306      -0.44756764
O        0.14554635      -1.78198445      -0.09809323
C       -0.39016629      -0.64905856       0.12479687
N        0.41963040       0.35575950      -0.02899204
C        0.02398469       1.73725327       0.03430038
C       -1.86143309      -0.54024978       0.39267694
H        2.20625118      -0.25133086      -1.22670405
H        2.06950959      -1.94049666      -0.79496204
H        2.40405302      -0.79667174       0.49132224
H       -0.52718219       2.04284178      -0.86179254
H       -0.59585321       1.95751222       0.90733757
H        0.92119251       2.35719388       0.09112854
H       -2.31438905       0.32281312      -0.09556239
H       -2.35799797      -1.44298832       0.04358527
H       -2.01560668      -0.43855034       1.46852611
15
Frame=9 idx=003516 GeodesicLength=0.3959034282896597 rxn_smarts="[C:1]([O:2]/[C:3](=[N:4]/[C:5]([H:10])([H:11])[H:12])[C:6]([H:13])([H:14])[H:15])([H:7])([H:8])[H:9]>>[C:1]([N:4]([C:3](=[O:2])[C:6]([H:13])([H:14])[H:15])[C:5]([H:10])([H:11])[H:12])([H:7])([H:8])[H:9]"
C        1.86131063      -0.92675862      -0.45704478
O        0.14282758      -1.78475467      -0.10862417
C       -0.38549704      -0.65363673       0.14585038
N        0.42806188       0.35077547      -0.00393661
C        0.02741070       1.73122740       0.04901822
C       -1.86017672      -0.53755137       0.39115383
H        2.17678549      -0.26315199      -1.25943210
H        2.06900283      -1.93885716      -0.78828214
H        2.42222550      -0.77295807       0.46288393
H       -0.48533091       2.03844820      -0.86902602
H       -0.63141208       1.94549573       0.89418266
H        0.91995695       2.35277203       0.14765553
H       -2.31009971       0.30019061      -0.14225134
H       -2.34860100      -1.45781710       0.07881194
H       -2.02646409      -0.38342371       1.45904067
15
Frame=10 idx=003516 GeodesicLength=0.44214805665269047 rxn_smarts="[C:1]([O:2]/[C:3](=[N:4]/[C:5]([H:10])([H:11])[H:12])[C:6]([H:13])([H:14])[H:15])([H:7])([H:8])[H:9]>>[C:1]([N:4]([C:3](=[O:2])[C:6]([H:13])([H:14])[H:15])[C:5]([H:10])([H:11])[H:12])([H:7])([H:8])[H:9]"
C        1.84945394      -0.92075938      -0.46673746
O        0.14013449      -1.78716292      -0.11688405
C       -0.38025880      -0.65896665       0.17036606
N        0.43691359       0.34516504       0.02445490
C        0.03147716       1.72459831       0.06414263
C       -1.85863014      -0.53492844       0.38935191
H        2.14353668      -0.27406464      -1.29185585
H        2.06738210      -1.93575435      -0.78313203
H        2.44112672      -0.74844849       0.43150717
H       -0.44043158       2.03202595      -0.87541568
H       -0.66636775       1.93410216       0.87818354
H        0.91719665       2.34788567       0.20505345
H       -2.30292825       0.27552420      -0.18931208
H       -2.33911642      -1.47093711       0.11424270
H       -2.03948839      -0.32827934       1.44603480
15
Frame=11 idx=003516 GeodesicLength=0.4893142903477231 rxn_smarts="[C:1]([O:2]/[C:3](=[N:4]/[C:5]([H:10])([H:11])[H:12])[C:6]([H:13])([H:14])[H:15])([H:7])([H:8])[H:9]>>[C:1]([N:4]([C:3](=[O:2])[C:6]([H:13])([H:14])[H:15])[C:5]([H:10])([H:11])[H:12])([H:7])([H:8])[H:9]"
C        1.83693962      -0.91407992      -0.47638316
O        0.13751980      -1.78941795      -0.12297455
C       -0.37480592      -0.66494509       0.19704395
N        0.44590196       0.33896817       0.05499688
C        0.03614894       1.71742745       0.07951659
C       -1.85681068      -0.53237661       0.38723996
H        2.10688687      -0.28435120      -1.32370583
H        2.06511109      -1.93140628      -0.77881963
H        2.46006437      -0.72274472       0.39758276
H       -0.39296715       2.02429326      -0.88047887
H       -0.70007758       1.92285422       0.85966464
H        0.91287646       2.34251050       0.26290242
H       -2.29314109       0.24906935      -0.23602176
H       -2.32994821      -1.48217856       0.14983339
H       -2.05369846      -0.27362261       1.42960320
15
Frame=12 idx=003516 GeodesicLength=0.5377526165385468 rxn_smarts="[C:1]([O:2]/[C:3](=[N:4]/[C:5]([H:10])([H:11])[H:12])[C:6]([H:13])([H:14])[H:15])([H:7])([H:8])[H:9]>>[C:1]([N:4]([C:3](=[O:2])[C:6]([H:13])([H:14])[H:15])[C:5]([H:10])([H:11])[H:12])([H:7])([H:8])[H:9]"
C        1.82362071      -0.90657206      -0.48586389
O        0.13498410      -1.79151379      -0.12713764
C       -0.36941514      -0.67161220       0.22533412
N        0.45494799       0.33210390       0.08767306
C        0.04151823       1.70958458       0.09500160
C       -1.85465373      -0.52991386       0.38488408
H        2.06697292      -0.29364636      -1.35441750
H        2.06216860      -1.92555086      -0.77551631
H        2.47838814      -0.69589055       0.36132522
H       -0.34264988       2.01496572      -0.88426636
H       -0.73229476       1.91164245       0.83834320
H        0.90689873       2.33662760       0.32107419
H       -2.28082065       0.22082210      -0.28189466
H       -2.32130652      -1.49148066       0.18562719
H       -2.06835874      -0.21956599       1.40983370
15
Frame=13 idx=003516 GeodesicLength=0.5874683259059819 rxn_smarts="[C:1]([O:2]/[C:3](=[N:4]/[C:5]([H:10])([H:11])[H:12])[C:6]([H:13])([H:14])[H:15])([H:7])([H:8])[H:9]>>[C:1]([N:4]([C:3](=[O:2])[C:6]([H:13])([H:14])[H:15])[C:5]([H:10])([H:11])[H:12])([H:7])([H:8])[H:9]"
C        1.80946937      -0.89829562      -0.49501048
O        0.13258469      -1.79364704      -0.12893986
C       -0.36423839      -0.67876713       0.25412800
N        0.46385072       0.32468741       0.12119162
C        0.04758545       1.70116884       0.11050250
C       -1.85214961      -0.52755077       0.38216215
H        2.02398634      -0.30269021      -1.38406293
H        2.05884910      -1.91843260      -0.77223054
H        2.49551774      -0.66717022       0.32285107
H       -0.29005160       2.00490747      -0.88621549
H       -0.76244390       1.90005219       0.81460452
H        0.89933294       2.33012280       0.37926889
H       -2.26627735       0.19130777      -0.32628995
H       -2.31332995      -1.49870368       0.22110034
H       -2.08268554      -0.16698921       1.38694015
15
Frame=14 idx=003516 GeodesicLength=0.6382786778235301 rxn_smarts="[C:1]([O:2]/[C:3](=[N:4]/[C:5]([H:10])([H:11])[H:12])[C:6]([H:13])([H:14])[H:15])([H:7])([H:8])[H:9]>>[C:1]([N:4]([C:3](=[O:2])[C:6]([H:13])([H:14])[H:15])[C:5]([H:10])([H:11])[H:12])([H:7])([H:8])[H:9]"
C        1.79464392      -0.88937716      -0.50362978
O        0.13028237      -1.79588953      -0.12902209
C       -0.35943077      -0.68631543       0.28268486
N        0.47251553       0.31681913       0.15477343
C        0.05425808       1.69230733       0.12583915
C       -1.84935295      -0.52529270       0.37916077
H        1.97880995      -0.31165478      -1.41215895
H        2.05544973      -1.91019684      -0.76866182
H        2.51089372      -0.63673821       0.28269705
H       -0.23592048       1.99446025      -0.88612720
H       -0.79003731       1.88799955       0.78887636
H        0.89021853       2.32313742       0.43675462
H       -2.25011253       0.16087538      -0.36854575
H       -2.30620141      -1.50387814       0.25596762
H       -2.09601636      -0.11625628       1.36139173
15
Frame=15 idx=003516 GeodesicLength=0.6901339529666295 rxn_smarts="[C:1]([O:2]/[C:3](=[N:4]/[C:5]([H:10])([H:11])[H:12])[C:6]([H:13])([H:14])[H:15])([H:7])([H:8])[H:9]>>[C:1]([N:4]([C:3](=[O:2])[C:6]([H:13])([H:14])[H:15])[C:5]([H:10])([H:11])[H:12])([H:7])([H:8])[H:9]"
C        1.77920685      -0.87991249      -0.51164642
O        0.12810117      -1.79828081      -0.12761337
C       -0.35501790      -0.69413405       0.31059730
N        0.48090853       0.30858220       0.18792237
C        0.06146256       1.68307570       0.14092372
C       -1.84624820      -0.52311467       0.37590193
H        1.93194994      -0.32078333      -1.43852203
H        2.05209931      -1.90093404      -0.76458542
H        2.52411534      -0.60467961       0.24115089
H       -0.18075708       1.98387782      -0.88391673
H       -0.81486282       1.87541696       0.76147403
H        0.87958226       2.31571131       0.49315206
H       -2.23271667       0.12988011      -0.40836815
H       -2.29988410      -1.50704418       0.28991347
H       -2.10793919      -0.06766093       1.33361636
15
Frame=16 idx=003516 GeodesicLength=0.7429986439834216 rxn_smarts="[C:1]([O:2]/[C:3](=[N:4]/[C:5]([H:10])([H:11])[H:12])[C:6]([H:13])([H:14])[H:15])([H:7])([H:8])[H:9]>>[C:1]([N:4]([C:3](=[O:2])[C:6]([H:13])([H:14])[H:15])[C:5]([H:10])([H:11])[H:12])([H:7])([H:8])[H:9]"
C        1.76319063      -0.86997172      -0.51908575
O        0.12610955      -1.80089146      -0.12473004
C       -0.35098920      -0.70212631       0.33774139
N        0.48904626       0.30004820       0.22044419
C        0.06916300       1.67354904       0.15572339
C       -1.84283358      -0.52100711       0.37240372
H        1.88370199      -0.33024059      -1.46311386
H        2.04885929      -1.89069736      -0.75997516
H        2.53494059      -0.57112468       0.19830859
H       -0.12474076       1.97333683      -0.87958159
H       -0.83692348       1.86232789       0.73249894
H        0.86741812       2.30789148       0.54837709
H       -2.21434864       0.09856413      -0.44570317
H       -2.29432160      -1.50832313       0.32272913
H       -2.11827215      -0.02133521       1.30396312
