19
Frame=0 idx=007579 GeodesicLength=0.0 rxn_smarts="[C:1]([C@@:2]([O:3][H:12])([C@@:4]1([H:13])[C:5]([H:14])([H:15])[C@:6]1([C:7]([H:17])([H:18])[H:19])[H:16])[H:11])([H:8])([H:9])[H:10]>>[C:1]([C:2]([O:3][H:12])=[C:4]([H:11])[H:13])([H:8])([H:9])[H:10].[C:5](=[C:6]([C:7]([H:17])([H:18])[H:19])[H:16])([H:14])[H:15]"
C        2.79542664      -0.39032193       0.06967418
C        1.36258816       0.02427171       0.39149611
O        1.07948872      -0.39746271       1.71974785
C        0.98660780       1.34551186      -0.07121305
C       -1.67704959       1.16063481      -1.12497890
C       -2.05205968       0.33743101      -0.15322335
C       -1.96545113      -1.15371639      -0.21727142
H        3.01420948      -0.20201597      -0.97928351
H        2.93095705      -1.44825723       0.29175178
H        3.48999229       0.18116996       0.68543343
H        0.70353267      -0.51991100      -0.33123229
H        0.30329408       0.07615179       2.02592946
H        0.36838850       1.84592783       0.69783823
H       -1.28235527       0.78826210      -2.06401526
H       -1.76323541       2.23537640      -1.02663321
H       -2.45617484       0.75903291       0.76507866
H       -1.60164474      -1.48924722      -1.18974928
H       -2.94297398      -1.61008208      -0.04397176
H       -1.29354082      -1.54275587       0.55462230
19
Frame=1 idx=007579 GeodesicLength=0.11508732612874588 rxn_smarts="[C:1]([C@@:2]([O:3][H:12])([C@@:4]1([H:13])[C:5]([H:14])([H:15])[C@:6]1([C:7]([H:17])([H:18])[H:19])[H:16])[H:11])([H:8])([H:9])[H:10]>>[C:1]([C:2]([O:3][H:12])=[C:4]([H:11])[H:13])([H:8])([H:9])[H:10].[C:5](=[C:6]([C:7]([H:17])([H:18])[H:19])[H:16])([H:14])[H:15]"
C        2.79379738      -0.37707494       0.05411871
C        1.36907821       0.01394661       0.42604480
O        1.12799418      -0.40847941       1.75908978
C        0.93858250       1.31283138      -0.04094774
C       -1.65407929       1.15891609      -1.15064160
C       -2.03170463       0.34545290      -0.16526459
C       -1.97605853      -1.14801153      -0.22095104
H        2.97313771      -0.18511696      -1.00187651
H        2.95273005      -1.43329026       0.26930729
H        3.49879182       0.20561646       0.64737778
H        0.67725084      -0.51746503      -0.29821680
H        0.34660584       0.04618594       2.08077648
H        0.36301165       1.82986152       0.74798959
H       -1.26978407       0.77133999      -2.08800193
H       -1.76202579       2.23345915      -1.07475292
H       -2.45852274       0.77808020       0.73730641
H       -1.59845784      -1.49683859      -1.18346730
H       -2.96510951      -1.58441051      -0.06287830
H       -1.32523777      -1.54500303       0.56498787
19
Frame=2 idx=007579 GeodesicLength=0.23092260087138294 rxn_smarts="[C:1]([C@@:2]([O:3][H:12])([C@@:4]1([H:13])[C:5]([H:14])([H:15])[C@:6]1([C:7]([H:17])([H:18])[H:19])[H:16])[H:11])([H:8])([H:9])[H:10]>>[C:1]([C:2]([O:3][H:12])=[C:4]([H:11])[H:13])([H:8])([H:9])[H:10].[C:5](=[C:6]([C:7]([H:17])([H:18])[H:19])[H:16])([H:14])[H:15]"
C        2.79078901      -0.36250331       0.03722511
C        1.37623483       0.00400335       0.46038713
O        1.17977891      -0.41870877       1.79753330
C        0.89071046       1.27957298      -0.00633263
C       -1.62858885       1.15628470      -1.17622629
C       -2.01349667       0.35324576      -0.17824199
C       -1.98800780      -1.14192452      -0.22447511
H        2.92923155      -0.16714402      -1.02466784
H        2.97379535      -1.41657041       0.24425131
H        3.50563835       0.23176363       0.60707901
H        0.65019750      -0.51635398      -0.26229640
H        0.39305559       0.01456497       2.13568836
H        0.35596180       1.81208868       0.79904431
H       -1.25227065       0.75295523      -2.11039411
H       -1.75657177       2.22997785      -1.12348380
H       -2.46320543       0.79768322       0.70715450
H       -1.59512834      -1.50500038      -1.17560960
H       -2.98808854      -1.55853893      -0.08349788
H       -1.36003530      -1.54539604       0.57686263
19
Frame=3 idx=007579 GeodesicLength=0.3469768137046778 rxn_smarts="[C:1]([C@@:2]([O:3][H:12])([C@@:4]1([H:13])[C:5]([H:14])([H:15])[C@:6]1([C:7]([H:17])([H:18])[H:19])[H:16])[H:11])([H:8])([H:9])[H:10]>>[C:1]([C:2]([O:3][H:12])=[C:4]([H:11])[H:13])([H:8])([H:9])[H:10].[C:5](=[C:6]([C:7]([H:17])([H:18])[H:19])[H:16])([H:14])[H:15]"
C        2.78589382      -0.34659975       0.01910537
C        1.38384679      -0.00548380       0.49430712
O        1.23432603      -0.42749704       1.83474683
C        0.84316197       1.24560109       0.03205450
C       -1.60013800       1.15261918      -1.20107953
C       -1.99680192       0.36065331      -0.19179020
C       -2.00110372      -1.13561773      -0.22803527
H        2.88201345      -0.14837111      -1.04730664
H        2.99364077      -1.39796215       0.21696056
H        3.50980156       0.25984198       0.56447398
H        0.62241866      -0.51685995      -0.22354482
H        0.44215271      -0.01822310       2.19001031
H        0.34759484       1.79296244       0.85070262
H       -1.22993366       0.73310594      -2.13074168
H       -1.74633544       2.22487753      -1.17218476
H       -2.46924685       0.81757054       0.67508018
H       -1.59170583      -1.51371123      -1.16634309
H       -3.01169858      -1.53247553      -0.10615439
H       -1.39788661      -1.54443064       0.58973889
19
Frame=4 idx=007579 GeodesicLength=0.4628086979279254 rxn_smarts="[C:1]([C@@:2]([O:3][H:12])([C@@:4]1([H:13])[C:5]([H:14])([H:15])[C@:6]1([C:7]([H:17])([H:18])[H:19])[H:16])[H:11])([H:8])([H:9])[H:10]>>[C:1]([C:2]([O:3][H:12])=[C:4]([H:11])[H:13])([H:8])([H:9])[H:10].[C:5](=[C:6]([C:7]([H:17])([H:18])[H:19])[H:16])([H:14])[H:15]"
C        2.77866998      -0.32942790      -0.00011945
C        1.39168586      -0.01443877       0.52758755
O        1.29117908      -0.43424361       1.87041227
C        0.79607998       1.21082889       0.07366796
C       -1.56844726       1.14782503      -1.22460268
C       -1.98104655       0.36752756      -0.20555813
C       -2.01513565      -1.12922372      -0.23182718
H        2.83114423      -0.12916056      -1.06946195
H        3.01181760      -1.37740717       0.18777710
H        3.51060229       0.28996161       0.51962403
H        0.59396711      -0.51918379      -0.18205720
H        0.49357781      -0.05166641       2.24323714
H        0.33827924       1.77284467       0.90264266
H       -1.20299108       0.71184653      -2.14869067
H       -1.73097660       2.21811786      -1.22025346
H       -2.47583016       0.83748873       0.64151299
H       -1.58820678      -1.52293594      -1.15584703
H       -3.03564718      -1.50622956      -0.13115393
H       -1.43872192      -1.54252347       0.60311000
19
Frame=5 idx=007579 GeodesicLength=0.5780236068594334 rxn_smarts="[C:1]([C@@:2]([O:3][H:12])([C@@:4]1([H:13])[C:5]([H:14])([H:15])[C@:6]1([C:7]([H:17])([H:18])[H:19])[H:16])[H:11])([H:8])([H:9])[H:10]>>[C:1]([C:2]([O:3][H:12])=[C:4]([H:11])[H:13])([H:8])([H:9])[H:10].[C:5](=[C:6]([C:7]([H:17])([H:18])[H:19])[H:16])([H:14])[H:15]"
C        2.76902755      -0.31110487      -0.02016336
C        1.39940314      -0.02276049       0.56002443
O        1.35046966      -0.43882774       1.90422337
C        0.74915283       1.17539863       0.11806256
C       -1.53376670       1.14189588      -1.24665510
C       -1.96607353       0.37390084      -0.21955774
C       -2.02992167      -1.12273036      -0.23596039
H        2.77719830      -0.10980049      -1.09090707
H        3.02779763      -1.35511935       0.15659830
H        3.50800615       0.32164481       0.47320096
H        0.56476853      -0.52300655      -0.13779532
H        0.54795893      -0.08561812       2.29549183
H        0.32795317       1.75185369       0.95475557
H       -1.17189461       0.68926411      -2.16426026
H       -1.71093929       2.20967065      -1.26756431
H       -2.48263136       0.85741515       0.60651014
H       -1.58454766      -1.53261728      -1.14411004
H       -3.05955029      -1.47989325      -0.15862245
H       -1.48241078      -1.53956528       0.61672889
19
Frame=6 idx=007579 GeodesicLength=0.6927039268924468 rxn_smarts="[C:1]([C@@:2]([O:3][H:12])([C@@:4]1([H:13])[C:5]([H:14])([H:15])[C@:6]1([C:7]([H:17])([H:18])[H:19])[H:16])[H:11])([H:8])([H:9])[H:10]>>[C:1]([C:2]([O:3][H:12])=[C:4]([H:11])[H:13])([H:8])([H:9])[H:10].[C:5](=[C:6]([C:7]([H:17])([H:18])[H:19])[H:16])([H:14])[H:15]"
C        2.75647511      -0.29172367      -0.04100091
C        1.40689687      -0.03037786       0.59148371
O        1.41120373      -0.44049713       1.93585801
C        0.70284132       1.13913268       0.16485193
C       -1.49558201       1.13471599      -1.26649578
C       -1.95118590       0.37950699      -0.23321985
C       -2.04525620      -1.11633690      -0.24065429
H        2.71951123      -0.09055135      -1.11142010
H        3.04125108      -1.33100530       0.12400142
H        3.50121239       0.35514820       0.42491612
H        0.53490267      -0.52876892      -0.09100189
H        0.60446281      -0.11920380       2.34597907
H        0.31726677       1.73050037       1.00659981
H       -1.13674860       0.66541495      -2.17699562
H       -1.68558784       2.19948856      -1.31330827
H       -2.48875415       0.87693765       0.57077414
H       -1.58080461      -1.54274389      -1.13146881
H       -3.08322569      -1.45337145      -0.18884813
H       -1.52887896      -1.53626514       0.62994945
19
Frame=7 idx=007579 GeodesicLength=0.8067262431803837 rxn_smarts="[C:1]([C@@:2]([O:3][H:12])([C@@:4]1([H:13])[C:5]([H:14])([H:15])[C@:6]1([C:7]([H:17])([H:18])[H:19])[H:16])[H:11])([H:8])([H:9])[H:10]>>[C:1]([C:2]([O:3][H:12])=[C:4]([H:11])[H:13])([H:8])([H:9])[H:10].[C:5](=[C:6]([C:7]([H:17])([H:18])[H:19])[H:16])([H:14])[H:15]"
C        2.74071403      -0.27153997      -0.06248533
C        1.41392399      -0.03717640       0.62180388
O        1.47271704      -0.43877818       1.96504799
C        0.65729100       1.10212787       0.21355186
C       -1.45390326       1.12628443      -1.28359533
C       -1.93589299       0.38419630      -0.24619752
C       -2.06084284      -1.11016235      -0.24612294
H        2.65802746      -0.07187285      -1.13075376
H        3.05176760      -1.30525980       0.09029982
H        3.48977089       0.39018840       0.37497860
H        0.50446722      -0.53649952      -0.04184426
H        0.66279877      -0.15167245       2.39435249
H        0.30666348       1.70929726       1.05765224
H       -1.09795331       0.64053604      -2.18666446
H       -1.65505982       2.18757219      -1.35685978
H       -2.49350948       0.89571342       0.53486918
H       -1.57685937      -1.55325299      -1.11817539
H       -3.10620320      -1.42669453      -0.22209534
H       -1.57791718      -1.53300686       0.64223805
19
Frame=8 idx=007579 GeodesicLength=0.920343141651519 rxn_smarts="[C:1]([C@@:2]([O:3][H:12])([C@@:4]1([H:13])[C:5]([H:14])([H:15])[C@:6]1([C:7]([H:17])([H:18])[H:19])[H:16])[H:11])([H:8])([H:9])[H:10]>>[C:1]([C:2]([O:3][H:12])=[C:4]([H:11])[H:13])([H:8])([H:9])[H:10].[C:5](=[C:6]([C:7]([H:17])([H:18])[H:19])[H:16])([H:14])[H:15]"
C        2.72156517      -0.25071680      -0.08444142
C        1.42025653      -0.04315750       0.65083484
O        1.53439409      -0.43342975       1.99148344
C        0.61260280       1.06439691       0.26383203
C       -1.40877598       1.11656464      -1.29761460
C       -1.91986247       0.38784650      -0.25818399
C       -2.07643992      -1.10426625      -0.25248684
H        2.59292721      -0.05395150      -1.14869709
H        3.05902110      -1.27804927       0.05569170
H        3.47338399       0.42653523       0.32369752
H        0.47348422      -0.54618804       0.00938119
H        0.72284927      -0.18244336       2.44036226
H        0.29653030       1.68861487       1.10752483
H       -1.05590934       0.61473921      -2.19318856
H       -1.61940233       2.17391640      -1.39772807
H       -2.49645430       0.91355208       0.49921519
H       -1.57270143      -1.56411154      -1.10441514
H       -3.12811490      -1.39983425      -0.25841648
H       -1.62935401      -1.53001758       0.65314918
19
Frame=9 idx=007579 GeodesicLength=1.0338085860059223 rxn_smarts="[C:1]([C@@:2]([O:3][H:12])([C@@:4]1([H:13])[C:5]([H:14])([H:15])[C@:6]1([C:7]([H:17])([H:18])[H:19])[H:16])[H:11])([H:8])([H:9])[H:10]>>[C:1]([C:2]([O:3][H:12])=[C:4]([H:11])[H:13])([H:8])([H:9])[H:10].[C:5](=[C:6]([C:7]([H:17])([H:18])[H:19])[H:16])([H:14])[H:15]"
C        2.69906530      -0.22943900      -0.10660734
C        1.42556488      -0.04827228       0.67853370
O        1.59659215      -0.42475660       2.01499812
C        0.56827971       1.02615294       0.31552991
C       -1.36059862       1.10565178      -1.30861298
C       -1.90314594       0.39057110      -0.26930550
C       -2.09175050      -1.09855182      -0.25976636
H        2.52477279      -0.03690548      -1.16515660
H        3.06242746      -1.24981328       0.01983187
H        3.45237232       0.46340185       0.27179262
H        0.44188133      -0.55730441       0.06270593
H        0.78552250      -0.21151815       2.48438039
H        0.28656982       1.66851594       1.15615063
H       -1.01089740       0.58822520      -2.19670508
H       -1.57958982       2.15842574      -1.43599979
H       -2.49777601       0.93062310       0.46355517
H       -1.56800947      -1.57530289      -1.08997002
H       -3.14828258      -1.37293115      -0.29794952
H       -1.68299792      -1.52677259       0.66259485
19
Frame=10 idx=007579 GeodesicLength=1.1476795500555228 rxn_smarts="[C:1]([C@@:2]([O:3][H:12])([C@@:4]1([H:13])[C:5]([H:14])([H:15])[C@:6]1([C:7]([H:17])([H:18])[H:19])[H:16])[H:11])([H:8])([H:9])[H:10]>>[C:1]([C:2]([O:3][H:12])=[C:4]([H:11])[H:13])([H:8])([H:9])[H:10].[C:5](=[C:6]([C:7]([H:17])([H:18])[H:19])[H:16])([H:14])[H:15]"
C        2.67294431      -0.20792634      -0.12893924
C        1.42976749      -0.05253730       0.70474214
O        1.65769511      -0.41235319       2.03525588
C        0.52497745       0.98733395       0.36826497
C       -1.30919998       1.09348420      -1.31592194
C       -1.88515883       0.39208126      -0.27891757
C       -2.10653947      -1.09321824      -0.26809193
H        2.45341224      -0.02096843      -1.17994358
H        3.06198871      -1.22058173      -0.01656318
H        3.42608671       0.50092486       0.21917861
H        0.40983006      -0.57022178       0.11746809
H        0.84948169      -0.23784581       2.52553895
H        0.27779926       1.64974545       1.20266711
H       -0.96347906       0.56117409      -2.19697300
H       -1.53505885       2.14123228      -1.47072307
H       -2.49659047       0.94640149       0.42893443
H       -1.56290978      -1.58679530      -1.07528715
H       -3.16646877      -1.34585175      -0.34062409
H       -1.73857782      -1.52407772       0.66993458
19
Frame=11 idx=007579 GeodesicLength=1.2625114922493843 rxn_smarts="[C:1]([C@@:2]([O:3][H:12])([C@@:4]1([H:13])[C:5]([H:14])([H:15])[C@:6]1([C:7]([H:17])([H:18])[H:19])[H:16])[H:11])([H:8])([H:9])[H:10]>>[C:1]([C:2]([O:3][H:12])=[C:4]([H:11])[H:13])([H:8])([H:9])[H:10].[C:5](=[C:6]([C:7]([H:17])([H:18])[H:19])[H:16])([H:14])[H:15]"
C        2.64334091      -0.18636673      -0.15124048
C        1.43270546      -0.05601759       0.72937186
O        1.71710088      -0.39648127       2.05205678
C        0.48268989       0.94804904       0.42179522
C       -1.25485372       1.08011429      -1.31936585
C       -1.86578170       0.39233869      -0.28681520
C       -2.12059629      -1.08828757      -0.27745437
H        2.37930347      -0.00621990      -1.19299928
H        3.05767997      -1.19059776      -0.05335522
H        3.39457460       0.53879528       0.16629099
H        0.37737229      -0.58478147       0.17333263
H        0.91439486      -0.26108924       2.56361287
H        0.27051546       1.63265487       1.24648244
H       -0.91417962       0.53379219      -2.19405367
H       -1.48611329       2.12242750      -1.50155048
H       -2.49273946       0.96081818       0.39565839
H       -1.55736412      -1.59858835      -1.06038852
H       -3.18223221      -1.31861716      -0.38629945
H       -1.79581739      -1.52194298       0.67492132
19
Frame=12 idx=007579 GeodesicLength=1.3791341471538585 rxn_smarts="[C:1]([C@@:2]([O:3][H:12])([C@@:4]1([H:13])[C:5]([H:14])([H:15])[C@:6]1([C:7]([H:17])([H:18])[H:19])[H:16])[H:11])([H:8])([H:9])[H:10]>>[C:1]([C:2]([O:3][H:12])=[C:4]([H:11])[H:13])([H:8])([H:9])[H:10].[C:5](=[C:6]([C:7]([H:17])([H:18])[H:19])[H:16])([H:14])[H:15]"
C        2.61040872      -0.16483700      -0.17335321
C        1.43426224      -0.05877537       0.75236085
O        1.77425610      -0.37753261       2.06521642
C        0.44144955       0.90830828       0.47596802
C       -1.19779202       1.06549681      -1.31887317
C       -1.84497868       0.39133865      -0.29288034
C       -2.13373771      -1.08372698      -0.28777417
H        2.30292417       0.00750940      -1.20423414
H        3.04944055      -1.16002672      -0.09050573
H        3.35799696       0.57675712       0.11363651
H        0.34452415      -0.60080633       0.22984602
H        0.98000454      -0.28104259       2.59844975
H        0.26491832       1.61741998       1.28705565
H       -0.86348856       0.50617276      -2.18809770
H       -1.43291829       2.10204434      -1.52822300
H       -2.48615189       0.97385911       0.36393822
H       -1.55141950      -1.61069504      -1.04525906
H       -3.19525190      -1.29121678      -0.43466432
H       -1.85444675      -1.52024703       0.67739342
19
Frame=13 idx=007579 GeodesicLength=1.498308580573185 rxn_smarts="[C:1]([C@@:2]([O:3][H:12])([C@@:4]1([H:13])[C:5]([H:14])([H:15])[C@:6]1([C:7]([H:17])([H:18])[H:19])[H:16])[H:11])([H:8])([H:9])[H:10]>>[C:1]([C:2]([O:3][H:12])=[C:4]([H:11])[H:13])([H:8])([H:9])[H:10].[C:5](=[C:6]([C:7]([H:17])([H:18])[H:19])[H:16])([H:14])[H:15]"
C        2.57424981      -0.14343854      -0.19515367
C        1.43425658      -0.06075967       0.77386696
O        1.82965950      -0.35618201       2.07485424
C        0.40081327       0.86853335       0.53075125
C       -1.13835569       1.04971699      -1.31466611
C       -1.82295923       0.38927172      -0.29734735
C       -2.14565319      -1.07942508      -0.29888129
H        2.22456319       0.02037848      -1.21379868
H        3.03695116      -1.12920910      -0.12844442
H        3.31677331       0.61427418       0.06174422
H        0.31113505      -0.61738407       0.28725991
H        1.04674072      -0.29853913       2.63020806
H        0.26043169       1.60376324       1.32411821
H       -0.81170391       0.47838353      -2.17934028
H       -1.37597488       2.08011518      -1.55095406
H       -2.47724857       0.98588122       0.33324954
H       -1.54463836      -1.62318656      -1.02933415
H       -3.20483244      -1.26393881      -0.48568958
H       -1.91420800      -1.51825492       0.67755720
19
Frame=14 idx=007579 GeodesicLength=1.6212975854019995 rxn_smarts="[C:1]([C@@:2]([O:3][H:12])([C@@:4]1([H:13])[C:5]([H:14])([H:15])[C@:6]1([C:7]([H:17])([H:18])[H:19])[H:16])[H:11])([H:8])([H:9])[H:10]>>[C:1]([C:2]([O:3][H:12])=[C:4]([H:11])[H:13])([H:8])([H:9])[H:10].[C:5](=[C:6]([C:7]([H:17])([H:18])[H:19])[H:16])([H:14])[H:15]"
C        2.53510577      -0.12212797      -0.21658634
C        1.43277043      -0.06207306       0.79361450
O        1.88185387      -0.33264829       2.08064958
C        0.36139748       0.82852254       0.58591873
C       -1.07645756       1.03255571      -1.30641618
C       -1.79944722       0.38596897      -0.29976845
C       -2.15635382      -1.07543507      -0.31063319
H        2.14471859       0.03266574      -1.22159113
H        3.02060858      -1.09800675      -0.16669936
H        3.27091597       0.65156102       0.01085907
H        0.27738948      -0.63496222       0.34466734
H        1.11321994      -0.31287084       2.65820086
H        0.25752168       1.59197141       1.35685040
H       -0.75953854       0.45044471      -2.16790206
H       -1.31478623       2.05667667      -1.56902234
H       -2.46551468       0.99667920       0.30430826
H       -1.53750360      -1.63610355      -1.01282225
H       -3.21099259      -1.23649913      -0.53878937
H       -1.97490756      -1.51631908       0.67516192
19
Frame=15 idx=007579 GeodesicLength=1.7492318218759144 rxn_smarts="[C:1]([C@@:2]([O:3][H:12])([C@@:4]1([H:13])[C:5]([H:14])([H:15])[C@:6]1([C:7]([H:17])([H:18])[H:19])[H:16])[H:11])([H:8])([H:9])[H:10]>>[C:1]([C:2]([O:3][H:12])=[C:4]([H:11])[H:13])([H:8])([H:9])[H:10].[C:5](=[C:6]([C:7]([H:17])([H:18])[H:19])[H:16])([H:14])[H:15]"
C        2.49334442      -0.10090245      -0.23760139
C        1.42983423      -0.06260741       0.81153617
O        1.93059441      -0.30747253       2.08263111
C        0.32328730       0.78860756       0.64119090
C       -1.01233907       1.01393111      -1.29427217
C       -1.77449164       0.38150253      -0.30015622
C       -2.16569759      -1.07167999      -0.32277622
H        2.06397204       0.04460962      -1.22779264
H        3.00054614      -1.06655689      -0.20529098
H        3.22096693       0.68841763      -0.03865548
H        0.24329387      -0.65305614       0.40188650
H        1.17888421      -0.32445804       2.68217401
H        0.25548855       1.58157785       1.38506756
H       -0.70757575       0.42235131      -2.15410500
H       -1.24943376       2.03180633      -1.58235810
H       -2.45097284       1.00643896       0.27705477
H       -1.53004157      -1.64951741      -0.99538743
H       -3.21342112      -1.20894736      -0.59348850
H       -2.03623877      -1.51404466       0.67034311
19
Frame=16 idx=007579 GeodesicLength=1.8833131912052399 rxn_smarts="[C:1]([C@@:2]([O:3][H:12])([C@@:4]1([H:13])[C:5]([H:14])([H:15])[C@:6]1([C:7]([H:17])([H:18])[H:19])[H:16])[H:11])([H:8])([H:9])[H:10]>>[C:1]([C:2]([O:3][H:12])=[C:4]([H:11])[H:13])([H:8])([H:9])[H:10].[C:5](=[C:6]([C:7]([H:17])([H:18])[H:19])[H:16])([H:14])[H:15]"
C        2.44950488      -0.07971694      -0.25813228
C        1.42554509      -0.06220296       0.82751173
O        1.97575130      -0.28117608       2.08090730
C        0.28666211       0.74919808       0.69607960
C       -0.94638468       0.99369056      -1.27855737
C       -1.74822062       0.37597798      -0.29860086
C       -2.17361111      -1.06805254      -0.33498153
H        1.98310751       0.05658562      -1.23262359
H        2.97699114      -1.03501371      -0.24422091
H        3.16772805       0.72464374      -0.08635318
H        0.20883566      -0.67101273       0.45870680
H        1.24318790      -0.33391060       2.70183986
H        0.25333897       1.57176106       1.40896492
H       -0.65650790       0.39403434      -2.13840331
H       -1.18009516       2.00554374      -1.59102297
H       -2.43367787       1.01540077       0.25135265
H       -1.52236253      -1.66348568      -0.97660604
H       -3.21188106      -1.18136280      -0.64920405
H       -2.09791168      -1.51090187       0.66334323
