16
Frame=0 idx=005571 GeodesicLength=0.0 rxn_smarts="[C:1]([C:2]([C:3]1([H:12])[C:4]([H:13])([H:14])[O:5][C:6]1([H:15])[H:16])([H:10])[H:11])([H:7])([H:8])[H:9]>>[C:1]([C@@:2]1([H:10])[C@@:3]([C:4]([O:5][H:11])([H:13])[H:14])([H:12])[C:6]1([H:15])[H:16])([H:7])([H:8])[H:9]"
C        1.97638915       0.61287729       0.13337069
C        0.78555238      -0.03714426      -0.50235249
C       -0.23467024      -0.62225388       0.43298773
C       -1.40430776      -1.04550043      -0.45919755
O       -1.72028652       0.28885840      -0.92893222
C       -0.90918724       0.67506791       0.80226177
H        2.61570192      -0.09497834       0.68337225
H        1.68301362       1.37053406       0.87448776
H        2.60525685       1.11397257      -0.60483397
H        1.02402071      -0.68285356      -1.35110088
H       -0.77864998       0.57765633      -1.22825782
H        0.02796993      -1.32011946       1.24114219
H       -2.26848785      -1.41748717       0.09101679
H       -1.16794045      -1.71443635      -1.28880975
H       -1.90628415       0.71163424       1.23338028
H       -0.32809037       1.58417270       0.87146517
16
Frame=1 idx=005571 GeodesicLength=0.09470081907056944 rxn_smarts="[C:1]([C:2]([C:3]1([H:12])[C:4]([H:13])([H:14])[O:5][C:6]1([H:15])[H:16])([H:10])[H:11])([H:7])([H:8])[H:9]>>[C:1]([C@@:2]1([H:10])[C@@:3]([C:4]([O:5][H:11])([H:13])[H:14])([H:12])[C:6]1([H:15])[H:16])([H:7])([H:8])[H:9]"
C        1.97840267       0.61024325       0.13959387
C        0.77841724      -0.02129611      -0.49997776
C       -0.23803849      -0.62177048       0.42982596
C       -1.41053670      -1.05380043      -0.45430598
O       -1.73098075       0.27533217      -0.93336249
C       -0.90487382       0.68118998       0.79108550
H        2.61926251      -0.11357211       0.66549306
H        1.69644490       1.35110719       0.90110914
H        2.60163411       1.12632544      -0.59307756
H        1.02007862      -0.65547175      -1.35636048
H       -0.77156826       0.56715912      -1.25253779
H        0.03302826      -1.31035780       1.24143318
H       -2.26989849      -1.43093571       0.09988957
H       -1.17155361      -1.72610697      -1.28078824
H       -1.89928049       0.72811847       1.22735986
H       -0.33053770       1.59383576       0.87462014
16
Frame=2 idx=005571 GeodesicLength=0.18917354678341594 rxn_smarts="[C:1]([C:2]([C:3]1([H:12])[C:4]([H:13])([H:14])[O:5][C:6]1([H:15])[H:16])([H:10])[H:11])([H:7])([H:8])[H:9]>>[C:1]([C@@:2]1([H:10])[C@@:3]([C:4]([O:5][H:11])([H:13])[H:14])([H:12])[C:6]1([H:15])[H:16])([H:7])([H:8])[H:9]"
C        1.98025579       0.60762958       0.14555441
C        0.77130967      -0.00557577      -0.49749717
C       -0.24141934      -0.62116550       0.42669120
C       -1.41669274      -1.06186758      -0.44940436
O       -1.74164586       0.26202834      -0.93748082
C       -0.90063000       0.68733880       0.77999968
H        2.62236204      -0.13135585       0.64723818
H        1.70957759       1.33128522       0.92675306
H        2.59800445       1.13852119      -0.58119161
H        1.01630687      -0.62862360      -1.36096994
H       -0.76367373       0.55649546      -1.27686915
H        0.03785741      -1.30055886       1.24157304
H       -2.27113725      -1.44434482       0.10868103
H       -1.17513363      -1.73738680      -1.27286916
H       -1.89233902       0.74442363       1.22119459
H       -0.33300225       1.60315657       0.87859699
16
Frame=3 idx=005571 GeodesicLength=0.2835198020508684 rxn_smarts="[C:1]([C:2]([C:3]1([H:12])[C:4]([H:13])([H:14])[O:5][C:6]1([H:15])[H:16])([H:10])[H:11])([H:7])([H:8])[H:9]>>[C:1]([C@@:2]1([H:10])[C@@:3]([C:4]([O:5][H:11])([H:13])[H:14])([H:12])[C:6]1([H:15])[H:16])([H:7])([H:8])[H:9]"
C        1.98194886       0.60503929       0.15125080
C        0.76422689       0.01002295      -0.49492536
C       -0.24481701      -0.62042654       0.42357476
C       -1.42278437      -1.06969982      -0.44449404
O       -1.75232723       0.24895200      -0.94126706
C       -0.89646094       0.69352536       0.76900799
H        2.62500394      -0.14833563       0.62864254
H        1.72241783       1.31110452       0.95141478
H        2.59437921       1.15054021      -0.56918113
H        1.01272438      -0.60234073      -1.36493792
H       -0.75491336       0.54566793      -1.30125302
H        0.04246108      -1.29071771       1.24155528
H       -2.27219280      -1.45773273       0.11740135
H       -1.17869553      -1.74826497      -1.26506599
H       -1.88546326       0.76053297       1.21491691
H       -0.33550769       1.61213290       0.88336012
16
Frame=4 idx=005571 GeodesicLength=0.37779848779490066 rxn_smarts="[C:1]([C:2]([C:3]1([H:12])[C:4]([H:13])([H:14])[O:5][C:6]1([H:15])[H:16])([H:10])[H:11])([H:7])([H:8])[H:9]>>[C:1]([C@@:2]1([H:10])[C@@:3]([C:4]([O:5][H:11])([H:13])[H:14])([H:12])[C:6]1([H:15])[H:16])([H:7])([H:8])[H:9]"
C        1.98348248       0.60247796       0.15669047
C        0.75716831       0.02550560      -0.49228264
C       -0.24823734      -0.61954061       0.42046894
C       -1.42882178      -1.07729617      -0.43957369
O       -1.76307144       0.23610391      -0.94469787
C       -0.89236987       0.69976192       0.75810970
H        2.62720705      -0.16453946       0.60973498
H        1.73497693       1.29059505       0.97512825
H        2.59075629       1.16238738      -0.55706031
H        1.00935469      -0.57665660      -1.36828262
H       -0.74524350       0.53467646      -1.32569710
H        0.04684172      -1.28082628       1.24137609
H       -2.27305487      -1.47111554       0.12606157
H       -1.18225809      -1.75873406      -1.25738789
H       -1.87865289       0.77643407       1.20855600
H       -0.33807769       1.62076634       0.88885614
16
Frame=5 idx=005571 GeodesicLength=0.47206564468366835 rxn_smarts="[C:1]([C:2]([C:3]1([H:12])[C:4]([H:13])([H:14])[O:5][C:6]1([H:15])[H:16])([H:10])[H:11])([H:7])([H:8])[H:9]>>[C:1]([C@@:2]1([H:10])[C@@:3]([C:4]([O:5][H:11])([H:13])[H:14])([H:12])[C:6]1([H:15])[H:16])([H:7])([H:8])[H:9]"
C        1.98485648       0.59994352       0.16186868
C        0.75013256       0.04087402      -0.48957991
C       -0.25168379      -0.61850127       0.41736332
C       -1.43481288      -1.08465243      -0.43464864
O       -1.77392625       0.22349845      -0.94774415
C       -0.88835791       0.70605391       0.74731593
H        2.62895307      -0.17993981       0.59057177
H        1.74725032       1.26980316       0.99784857
H        2.58716096       1.17401922      -0.54483487
H        1.00621620      -0.55160402      -1.37100160
H       -0.73460704       0.52352472      -1.35019575
H        0.05100371      -1.27089170       1.24102226
H       -2.27370941      -1.48451305       0.13466720
H       -1.18583633      -1.76877285      -1.24986113
H       -1.87190717       0.79210756       1.20215699
H       -0.34073254       1.62905056       0.89505133
16
Frame=6 idx=005571 GeodesicLength=0.5663832646988238 rxn_smarts="[C:1]([C:2]([C:3]1([H:12])[C:4]([H:13])([H:14])[O:5][C:6]1([H:15])[H:16])([H:10])[H:11])([H:7])([H:8])[H:9]>>[C:1]([C@@:2]1([H:10])[C@@:3]([C:4]([O:5][H:11])([H:13])[H:14])([H:12])[C:6]1([H:15])[H:16])([H:7])([H:8])[H:9]"
C        1.98607074       0.59744253       0.16679836
C        0.74311876       0.05613310      -0.48684032
C       -0.25516386      -0.61729781       0.41424836
C       -1.44076989      -1.09176843      -0.42971762
O       -1.78495103       0.21113470      -0.95036964
C       -0.88442669       0.71241265       0.73662560
H        2.63026756      -0.19457183       0.57118421
H        1.75924633       1.24876619       1.01962463
H        2.58359045       1.18544157      -0.53251857
H        1.00333261      -0.52721893      -1.37311955
H       -0.72295509       0.51221425      -1.37476062
H        0.05494831      -1.26090656       1.24048839
H       -2.27414065      -1.49794908       0.14322956
H       -1.18945355      -1.77836765      -1.24250160
H       -1.86521939       0.80754182       1.19575829
H       -0.34349462       1.63699349       0.90187052
16
Frame=7 idx=005571 GeodesicLength=0.660819411690112 rxn_smarts="[C:1]([C:2]([C:3]1([H:12])[C:4]([H:13])([H:14])[O:5][C:6]1([H:15])[H:16])([H:10])[H:11])([H:7])([H:8])[H:9]>>[C:1]([C@@:2]1([H:10])[C@@:3]([C:4]([O:5][H:11])([H:13])[H:14])([H:12])[C:6]1([H:15])[H:16])([H:7])([H:8])[H:9]"
C        1.98712204       0.59498010       0.17147841
C        0.73612479       0.07128161      -0.48407610
C       -0.25868302      -0.61592477       0.41111170
C       -1.44670197      -1.09864104      -0.42478696
O       -1.79620969       0.19902467      -0.95252924
C       -0.88057772       0.71884499       0.72604671
H        2.63113865      -0.20841795       0.55162895
H        1.77096174       1.22752932       1.04042672
H        2.58006567       1.19661559      -0.52012005
H        1.00072270      -0.50353976      -1.37463052
H       -0.71022140       0.50074832      -1.39938998
H        0.05867766      -1.25087656       1.23976065
H       -2.27432724      -1.51145330       0.15175175
H       -1.19312721      -1.78748862      -1.23534473
H       -1.85858201       0.82271873       1.18941494
H       -0.34638296       1.64459867       0.90925773
16
Frame=8 idx=005571 GeodesicLength=0.7553835247054677 rxn_smarts="[C:1]([C:2]([C:3]1([H:12])[C:4]([H:13])([H:14])[O:5][C:6]1([H:15])[H:16])([H:10])[H:11])([H:7])([H:8])[H:9]>>[C:1]([C@@:2]1([H:10])[C@@:3]([C:4]([O:5][H:11])([H:13])[H:14])([H:12])[C:6]1([H:15])[H:16])([H:7])([H:8])[H:9]"
C        1.98800844       0.59255951       0.17591764
C        0.72914869       0.08632074      -0.48130541
C       -0.26224731      -0.61437617       0.40794231
C       -1.45261935      -1.10526919      -0.41985938
O       -1.80776136       0.18718159      -0.95417653
C       -0.87681002       0.72535745       0.71558510
H        2.63157465      -0.22148258       0.53195100
H        1.78239336       1.20613407       1.06025867
H        2.57659451       1.20752502      -0.50765181
H        0.99840596      -0.48060415      -1.37554134
H       -0.69634708       0.48912561      -1.42408753
H        0.06219374      -1.24080453       1.23882846
H       -2.27425163      -1.52505234       0.16023925
H       -1.19687749      -1.79611221      -1.22841949
H       -1.85198470       0.83762438       1.18317437
H       -0.34942042       1.65187280       0.91714468
16
Frame=9 idx=005571 GeodesicLength=0.8502736134430748 rxn_smarts="[C:1]([C:2]([C:3]1([H:12])[C:4]([H:13])([H:14])[O:5][C:6]1([H:15])[H:16])([H:10])[H:11])([H:7])([H:8])[H:9]>>[C:1]([C@@:2]1([H:10])[C@@:3]([C:4]([O:5][H:11])([H:13])[H:14])([H:12])[C:6]1([H:15])[H:16])([H:7])([H:8])[H:9]"
C        1.98873289       0.59018145       0.18014533
C        0.72220838       0.10124348      -0.47855855
C       -0.26587447      -0.61263678       0.40471912
C       -1.45853477      -1.11165473      -0.41494619
O       -1.81977564       0.17557292      -0.95519956
C       -0.87311438       0.73197525       0.70520846
H        2.63158005      -0.23381197       0.51221185
H        1.79354154       1.18461811       1.07917778
H        2.57319690       1.21816834      -0.49508907
H        0.99641545      -0.45842211      -1.37585669
H       -0.68131382       0.47731507      -1.44890313
H        0.06548259      -1.23066683       1.23768358
H       -2.27384476      -1.53882023       0.16868559
H       -1.20073990      -1.80417417      -1.22178657
H       -1.84536642       0.85224936       1.17713721
H       -0.35259365       1.65886284       0.92537085
16
Frame=10 idx=005571 GeodesicLength=0.9452804863521425 rxn_smarts="[C:1]([C:2]([C:3]1([H:12])[C:4]([H:13])([H:14])[O:5][C:6]1([H:15])[H:16])([H:10])[H:11])([H:7])([H:8])[H:9]>>[C:1]([C@@:2]1([H:10])[C@@:3]([C:4]([O:5][H:11])([H:13])[H:14])([H:12])[C:6]1([H:15])[H:16])([H:7])([H:8])[H:9]"
C        1.98928442       0.58786071       0.18415212
C        0.71528508       0.11605272      -0.47585043
C       -0.26956272      -0.61071430       0.40143640
C       -1.46446216      -1.11779646      -0.41004089
O       -1.83222944       0.16424382      -0.95558743
C       -0.86949548       0.73868585       0.69495098
H        2.63117257      -0.24539157       0.49245748
H        1.80439843       1.16302907       1.09717636
H        2.56985488       1.22853690      -0.48248344
H        0.99476782      -0.43707318      -1.37559163
H       -0.66502595       0.46534995      -1.47380092
H        0.06856123      -1.22049256       1.23630855
H       -2.27312232      -1.55275127       0.17710095
H       -1.20473662      -1.81167758      -1.21545991
H       -1.83874904       0.86657586       1.17132071
H       -0.35594072       1.66556205       0.93391109
16
Frame=11 idx=005571 GeodesicLength=1.040368389605275 rxn_smarts="[C:1]([C:2]([C:3]1([H:12])[C:4]([H:13])([H:14])[O:5][C:6]1([H:15])[H:16])([H:10])[H:11])([H:7])([H:8])[H:9]>>[C:1]([C@@:2]1([H:10])[C@@:3]([C:4]([O:5][H:11])([H:13])[H:14])([H:12])[C:6]1([H:15])[H:16])([H:7])([H:8])[H:9]"
C        1.98965763       0.58560023       0.18794301
C        0.70838024       0.13074481      -0.47319981
C       -0.27331917      -0.60860826       0.39808092
C       -1.47041248      -1.12369577      -0.40514828
O       -1.84519923       0.15320782      -0.95527315
C       -0.86594886       0.74549165       0.68481681
H        2.63034782      -0.25622308       0.47275281
H        1.81494185       1.14142148       1.11424587
H        2.56657750       1.23860867      -0.46984864
H        0.99349092      -0.41660013      -1.37474413
H       -0.64742230       0.45323604      -1.49878051
H        0.07143150      -1.21029202       1.23468828
H       -2.27205532      -1.56688234       0.18548571
H       -1.20889455      -1.81858531      -1.20948558
H       -1.83210599       0.88058863       1.16578689
H       -0.35946957       1.67198758       0.94267980
16
Frame=12 idx=005571 GeodesicLength=1.1355191616824216 rxn_smarts="[C:1]([C:2]([C:3]1([H:12])[C:4]([H:13])([H:14])[O:5][C:6]1([H:15])[H:16])([H:10])[H:11])([H:7])([H:8])[H:9]>>[C:1]([C@@:2]1([H:10])[C@@:3]([C:4]([O:5][H:11])([H:13])[H:14])([H:12])[C:6]1([H:15])[H:16])([H:7])([H:8])[H:9]"
C        1.98984390       0.58340946       0.19152758
C        0.70149244       0.14531442      -0.47062857
C       -0.27715275      -0.60631865       0.39463755
C       -1.47639985      -1.12935362      -0.40027286
O       -1.85877147       0.14247315      -0.95417704
C       -0.86247157       0.75239664       0.67480629
H        2.62911174      -0.26631915       0.45315736
H        1.82515774       1.11984502       1.13040754
H        2.56336287       1.24837564      -0.45720536
H        0.99261336      -0.39705931      -1.37331546
H       -0.62843065       0.44097990      -1.52384521
H        0.07409275      -1.20007236       1.23280805
H       -2.27060868      -1.58125814       0.19383586
H       -1.21324603      -1.82485500      -1.20391433
H       -1.82540615       0.89427426       1.16060438
H       -0.36318766       1.67816774       0.95157422
16
Frame=13 idx=005571 GeodesicLength=1.2306756225643212 rxn_smarts="[C:1]([C:2]([C:3]1([H:12])[C:4]([H:13])([H:14])[O:5][C:6]1([H:15])[H:16])([H:10])[H:11])([H:7])([H:8])[H:9]>>[C:1]([C@@:2]1([H:10])[C@@:3]([C:4]([O:5][H:11])([H:13])[H:14])([H:12])[C:6]1([H:15])[H:16])([H:7])([H:8])[H:9]"
C        1.98983757       0.58129715       0.19492802
C        0.69462094       0.15975464      -0.46816819
C       -0.28107329      -0.60384777       0.39108858
C       -1.48244106      -1.13477563      -0.39541684
O       -1.87304027       0.13204671      -0.95221065
C       -0.85905625       0.75940499       0.66491223
H        2.62748053      -0.27570032       0.43373075
H        1.83503270       1.09834116       1.14570391
H        2.56020262       1.25784719      -0.44456265
H        0.99216308      -0.37850303      -1.37131552
H       -0.60799458       0.42858180      -1.54900676
H        0.07654562      -1.18983897       1.23065194
H       -2.26874326      -1.59592764       0.20214849
H       -1.21783279      -1.83044689      -1.19879992
H       -1.81861254       0.90762059       1.15584634
H       -0.36708902       1.68414601       0.96047027
16
Frame=14 idx=005571 GeodesicLength=1.3257851623096244 rxn_smarts="[C:1]([C:2]([C:3]1([H:12])[C:4]([H:13])([H:14])[O:5][C:6]1([H:15])[H:16])([H:10])[H:11])([H:7])([H:8])[H:9]>>[C:1]([C@@:2]1([H:10])[C@@:3]([C:4]([O:5][H:11])([H:13])[H:14])([H:12])[C:6]1([H:15])[H:16])([H:7])([H:8])[H:9]"
C        1.98962773       0.57927314       0.19815316
C        0.68776521       0.17405402      -0.46584343
C       -0.28508997      -0.60119693       0.38741604
C       -1.48855015      -1.13996524      -0.39058518
O       -1.88810324       0.12194418      -0.94927371
C       -0.85569716       0.76651804       0.65513380
H        2.62545956      -0.28437240       0.41454176
H        1.84454039       1.07696298       1.16014604
H        2.55709398       1.26701269      -0.43193507
H        0.99217046      -0.36099353      -1.36874085
H       -0.58603489       0.41604218      -1.57426941
H        0.07878930      -1.17960177       1.22820074
H       -2.26641761      -1.61094251       0.21041489
H       -1.22269283      -1.83530813      -1.19420561
H       -1.81168736       0.92060979       1.15159261
H       -0.37117339       1.68996348       0.96925423
16
Frame=15 idx=005571 GeodesicLength=1.4207577712710995 rxn_smarts="[C:1]([C:2]([C:3]1([H:12])[C:4]([H:13])([H:14])[O:5][C:6]1([H:15])[H:16])([H:10])[H:11])([H:7])([H:8])[H:9]>>[C:1]([C@@:2]1([H:10])[C@@:3]([C:4]([O:5][H:11])([H:13])[H:14])([H:12])[C:6]1([H:15])[H:16])([H:7])([H:8])[H:9]"
C        1.98920357       0.57734518       0.20121880
C        0.68092461       0.18820104      -0.46368367
C       -0.28921330      -0.59836948       0.38360108
C       -1.49474230      -1.14492699      -0.38578344
O       -1.90406495       0.11218070      -0.94525745
C       -0.85238668       0.77373737       0.64546549
H        2.62305651      -0.29234094       0.39566213
H        1.85365550       1.05576304       1.17374990
H        2.55403261       1.27586541      -0.41933314
H        0.99266547      -0.34458798      -1.36558637
H       -0.56248410       0.40335144      -1.59963855
H        0.08082119      -1.16937108       1.22543567
H       -2.26358456      -1.62636098       0.21862130
H       -1.22786897      -1.83938224      -1.19020013
H       -1.80458500       0.93322360       1.14792413
H       -0.37542959       1.69567192       0.97780426
16
Frame=16 idx=005571 GeodesicLength=1.5155155490563819 rxn_smarts="[C:1]([C:2]([C:3]1([H:12])[C:4]([H:13])([H:14])[O:5][C:6]1([H:15])[H:16])([H:10])[H:11])([H:7])([H:8])[H:9]>>[C:1]([C@@:2]1([H:10])[C@@:3]([C:4]([O:5][H:11])([H:13])[H:14])([H:12])[C:6]1([H:15])[H:16])([H:7])([H:8])[H:9]"
C        1.98855271       0.57552308       0.20414313
C        0.67409769       0.20218145      -0.46172213
C       -0.29345517      -0.59536919       0.37962120
C       -1.50103494      -1.14966783      -0.38101705
O       -1.92104217       0.10276817      -0.94003633
C       -0.84911734       0.78106548       0.63589551
H        2.62028260      -0.29961410       0.37716409
H        1.86234903       1.03478991       1.18654493
H        2.55100697       1.28440692      -0.40676632
H        0.99368136      -0.32935260      -1.36184661
H       -0.53726586       0.39050071      -1.62512194
H        0.08263737      -1.15915497       1.22233567
H       -2.26018906      -1.64225045       0.22675163
H       -1.23341169      -1.84260661      -1.18686060
H       -1.79725272       0.94544487       1.14492971
H       -0.37983877       1.70133515       0.98598510
