14
Frame=0 idx=007712 GeodesicLength=0.0 rxn_smarts="[C:1](/[N:2]=[C:3]1\[O:4][C@@:5]2([H:11])[C:6]([H:12])([H:13])[C@@:7]12[H:14])([H:8])([H:9])[H:10]>>[C:1]([N:2]([C:3]1=[O+:4][C-:5]2[C:6]([H:12])([H:13])[C@@:7]12[H:14])[H:11])([H:8])([H:9])[H:10]"
C        2.33665844      -0.06424298       0.17233113
N        1.09846606       0.65704401      -0.07969225
C        0.00002465       0.23408127       0.55716198
O       -0.24642574      -1.10166967       0.59108349
C       -0.96354105      -0.58279119      -0.61414956
C       -2.30528399      -0.24990764      -0.07199198
C       -1.25608996       0.80523416       0.18541868
H        2.99438993       0.08165539      -0.68383528
H        2.84565306       0.34838983       1.04688370
H        2.19354180      -1.13880159       0.32470292
H        0.29882073       0.01058005      -1.08309939
H       -2.68973179      -0.84452653       0.74900567
H       -3.04391219       0.07547761      -0.79425268
H       -1.26256994       1.76947727      -0.29956643
14
Frame=1 idx=007712 GeodesicLength=0.07685770560581237 rxn_smarts="[C:1](/[N:2]=[C:3]1\[O:4][C@@:5]2([H:11])[C:6]([H:12])([H:13])[C@@:7]12[H:14])([H:8])([H:9])[H:10]>>[C:1]([N:2]([C:3]1=[O+:4][C-:5]2[C:6]([H:12])([H:13])[C@@:7]12[H:14])[H:11])([H:8])([H:9])[H:10]"
C        2.34262960      -0.06499296       0.17630146
N        1.10408275       0.64901606      -0.09086110
C        0.00441954       0.23958012       0.54811482
O       -0.24792718      -1.09435941       0.59086950
C       -0.97800135      -0.58989749      -0.61745231
C       -2.31023802      -0.24881540      -0.05898355
C       -1.25382758       0.80615695       0.16880108
H        3.02815423       0.12648987      -0.64869380
H        2.81696541       0.31216934       1.08542321
H        2.20997843      -1.14661898       0.27807314
H        0.29676764       0.00095975      -1.11265354
H       -2.68490378      -0.82288758       0.78100809
H       -3.05845978       0.06693418      -0.77570364
H       -1.26963994       1.76626554      -0.32424334
14
Frame=2 idx=007712 GeodesicLength=0.1536206229638289 rxn_smarts="[C:1](/[N:2]=[C:3]1\[O:4][C@@:5]2([H:11])[C:6]([H:12])([H:13])[C@@:7]12[H:14])([H:8])([H:9])[H:10]>>[C:1]([N:2]([C:3]1=[O+:4][C-:5]2[C:6]([H:12])([H:13])[C@@:7]12[H:14])[H:11])([H:8])([H:9])[H:10]"
C        2.34851046      -0.06568079       0.18046229
N        1.10971047       0.64095807      -0.10172303
C        0.00882763       0.24490356       0.53909705
O       -0.24915913      -1.08723712       0.59005008
C       -0.99250293      -0.59698722      -0.62080213
C       -2.31489539      -0.24757367      -0.04604951
C       -1.25160148       0.80668942       0.15219987
H        3.05946545       0.16974696      -0.61117243
H        2.78817223       0.27510215       1.12060152
H        2.22781343      -1.15201091       0.23290432
H        0.29465102      -0.00856440      -1.14259296
H       -2.67936525      -0.80100921       0.81214743
H       -3.07269373       0.05886829      -0.75680698
H       -1.27693278       1.76279486      -0.34831552
14
Frame=3 idx=007712 GeodesicLength=0.23030258424708278 rxn_smarts="[C:1](/[N:2]=[C:3]1\[O:4][C@@:5]2([H:11])[C:6]([H:12])([H:13])[C@@:7]12[H:14])([H:8])([H:9])[H:10]>>[C:1]([N:2]([C:3]1=[O+:4][C-:5]2[C:6]([H:12])([H:13])[C@@:7]12[H:14])[H:11])([H:8])([H:9])[H:10]"
C        2.35430872      -0.06629946       0.18480332
N        1.11534303       0.63283349      -0.11232028
C        0.01324609       0.25006690       0.53010520
O       -0.25016996      -1.08028686       0.58871648
C       -1.00707348      -0.60410935      -0.62414566
C       -2.31927025      -0.24616676      -0.03316456
C       -1.24940040       0.80684742       0.13556902
H        3.08834922       0.21162034      -0.57141269
H        2.75931430       0.23720068       1.15265998
H        2.24707602      -1.15513845       0.18905776
H        0.29246398      -0.01808073      -1.17292525
H       -2.67315492      -0.77880621       0.84251249
H       -3.08661559       0.05126412      -0.73756401
H       -1.28441677       1.75905487      -0.37189181
14
Frame=4 idx=007712 GeodesicLength=0.30692116412810766 rxn_smarts="[C:1](/[N:2]=[C:3]1\[O:4][C@@:5]2([H:11])[C:6]([H:12])([H:13])[C@@:7]12[H:14])([H:8])([H:9])[H:10]>>[C:1]([N:2]([C:3]1=[O+:4][C-:5]2[C:6]([H:12])([H:13])[C@@:7]12[H:14])[H:11])([H:8])([H:9])[H:10]"
C        2.36002113      -0.06682818       0.18935484
N        1.12096880       0.62462786      -0.12263858
C        0.01767119       0.25504527       0.52116664
O       -0.25100140      -1.07354294       0.58688277
C       -1.02173402      -0.61127093      -0.62747668
C       -2.32338015      -0.24457559      -0.02034137
C       -1.24721794       0.80662908       0.11893330
H        3.11472207       0.25201076      -0.52965602
H        2.73055563       0.19867108       1.18160326
H        2.26780579      -1.15607520       0.14670743
H        0.29020825      -0.02761761      -1.20366565
H       -2.66632661      -0.75631508       0.87206114
H       -3.10022374       0.04417231      -0.71800706
H       -1.29206900       1.75506916      -0.39492401
14
Frame=5 idx=007712 GeodesicLength=0.38350613251043747 rxn_smarts="[C:1](/[N:2]=[C:3]1\[O:4][C@@:5]2([H:11])[C:6]([H:12])([H:13])[C@@:7]12[H:14])([H:8])([H:9])[H:10]>>[C:1]([N:2]([C:3]1=[O+:4][C-:5]2[C:6]([H:12])([H:13])[C@@:7]12[H:14])[H:11])([H:8])([H:9])[H:10]"
C        2.36564739      -0.06727834       0.19406168
N        1.12656747       0.61629215      -0.13272199
C        0.02207864       0.25986404       0.51227530
O       -0.25172910      -1.06696321       0.58467590
C       -1.03654156      -0.61854317      -0.63070453
C       -2.32725735      -0.24278104      -0.00753608
C       -1.24506233       0.80605054       0.10221757
H        3.13885864       0.29122455      -0.48581045
H        2.70196925       0.15939646       1.20763874
H        2.28996644      -1.15488800       0.10551532
H        0.28783181      -0.03731899      -1.23482058
H       -2.65893375      -0.73341315       0.90091178
H       -3.11352966       0.03755326      -0.69812585
H       -1.29986588       1.75080488      -0.41757681
14
Frame=6 idx=007712 GeodesicLength=0.4600462756882333 rxn_smarts="[C:1](/[N:2]=[C:3]1\[O:4][C@@:5]2([H:11])[C:6]([H:12])([H:13])[C@@:7]12[H:14])([H:8])([H:9])[H:10]>>[C:1]([N:2]([C:3]1=[O+:4][C-:5]2[C:6]([H:12])([H:13])[C@@:7]12[H:14])[H:11])([H:8])([H:9])[H:10]"
C        2.37119436      -0.06762548       0.19897544
N        1.13214469       0.60782065      -0.14255483
C        0.02648637       0.26450403       0.50345350
O       -0.25235469      -1.06057870       0.58210016
C       -1.05148892      -0.62592156      -0.63383267
C       -2.33090340      -0.24076582       0.00523401
C       -1.24290650       0.80510798       0.08544994
H        3.16054266       0.32917404      -0.44024066
H        2.67361180       0.11957468       1.23088201
H        2.31361527      -1.15170911       0.06565240
H        0.28536993      -0.04718970      -1.26640263
H       -2.65101127      -0.71013780       0.92902973
H       -3.12652880       0.03145861      -0.67795393
H       -1.30777148       1.74628817      -0.43979246
14
Frame=7 idx=007712 GeodesicLength=0.5365639608261336 rxn_smarts="[C:1](/[N:2]=[C:3]1\[O:4][C@@:5]2([H:11])[C:6]([H:12])([H:13])[C@@:7]12[H:14])([H:8])([H:9])[H:10]>>[C:1]([N:2]([C:3]1=[O+:4][C-:5]2[C:6]([H:12])([H:13])[C@@:7]12[H:14])[H:11])([H:8])([H:9])[H:10]"
C        2.37666874      -0.06790181       0.20402599
N        1.13769961       0.59916769      -0.15220024
C        0.03089195       0.26899025       0.49467887
O       -0.25292261      -1.05434796       0.57926182
C       -1.06661752      -0.63348095      -0.63677295
C       -2.33431776      -0.23850368       0.01801880
C       -1.24074202       0.80380536       0.06854912
H        3.17975935       0.36614607      -0.39275436
H        2.64545971       0.07894215       1.25145120
H        2.33883358      -1.14646216       0.02684407
H        0.28279168      -0.05737362      -1.29842583
H       -2.64254281      -0.68633381       0.95652593
H       -3.13920812       0.02586967      -0.65745886
H       -1.31575376       1.74148278      -0.46174356
14
Frame=8 idx=007712 GeodesicLength=0.6130829389577426 rxn_smarts="[C:1](/[N:2]=[C:3]1\[O:4][C@@:5]2([H:11])[C:6]([H:12])([H:13])[C@@:7]12[H:14])([H:8])([H:9])[H:10]>>[C:1]([N:2]([C:3]1=[O+:4][C-:5]2[C:6]([H:12])([H:13])[C@@:7]12[H:14])[H:11])([H:8])([H:9])[H:10]"
C        2.38205537      -0.06809132       0.20922419
N        1.14322208       0.59032719      -0.16166265
C        0.03529358       0.27331978       0.48595683
O       -0.25345213      -1.04827691       0.57618582
C       -1.08195247      -0.64123565      -0.63949549
C       -2.33750551      -0.23597351       0.03082597
C       -1.23856578       0.80213213       0.05150992
H        3.19644365       0.40209449      -0.34340276
H        2.61761323       0.03753023       1.26932771
H        2.36566723      -1.13912374      -0.01086622
H        0.28008941      -0.06791662      -1.33091919
H       -2.63353953      -0.66198558       0.98339487
H       -3.15156820       0.02081663      -0.63664049
H       -1.32380093       1.73638287      -0.48343851
14
Frame=9 idx=007712 GeodesicLength=0.6895943414808405 rxn_smarts="[C:1](/[N:2]=[C:3]1\[O:4][C@@:5]2([H:11])[C:6]([H:12])([H:13])[C@@:7]12[H:14])([H:8])([H:9])[H:10]>>[C:1]([N:2]([C:3]1=[O+:4][C-:5]2[C:6]([H:12])([H:13])[C@@:7]12[H:14])[H:11])([H:8])([H:9])[H:10]"
C        2.38736009      -0.06817797       0.21458759
N        1.14869795       0.58128226      -0.17089730
C        0.03967532       0.27746558       0.47732171
O       -0.25399056      -1.04239302       0.57289807
C       -1.09752396      -0.64918811      -0.64196846
C       -2.34050079      -0.23315528       0.04364026
C       -1.23638751       0.80007466       0.03435789
H        3.21081497       0.43689041      -0.29234823
H        2.59025436      -0.00442214       1.28455561
H        2.39398846      -1.12967496      -0.04747435
H        0.27720994      -0.07888531      -1.36389361
H       -2.62408632      -0.63715776       1.00958730
H       -3.16361985       0.01634462      -0.61554025
H       -1.33189209       1.73099702      -0.50482625
14
Frame=10 idx=007712 GeodesicLength=0.7661106637197724 rxn_smarts="[C:1](/[N:2]=[C:3]1\[O:4][C@@:5]2([H:11])[C:6]([H:12])([H:13])[C@@:7]12[H:14])([H:8])([H:9])[H:10]>>[C:1]([N:2]([C:3]1=[O+:4][C-:5]2[C:6]([H:12])([H:13])[C@@:7]12[H:14])[H:11])([H:8])([H:9])[H:10]"
C        2.39258463      -0.06817100       0.22008691
N        1.15413941       0.57200701      -0.17998432
C        0.04405638       0.28145554       0.46873314
O       -0.25453052      -1.03665938       0.56945551
C       -1.11334760      -0.65739351      -0.64413246
C       -2.34327769      -0.23002498       0.05650961
C       -1.23418281       0.79762948       0.01701749
H        3.22253109       0.47069798      -0.23940677
H        2.56332318      -0.04725236       1.29711854
H        2.42399362      -1.11797795      -0.08306839
H        0.27416308      -0.09036631      -1.39738071
H       -2.61411274      -0.61168513       1.03520345
H       -3.17533931       0.01245284      -0.59410068
H       -1.34000070       1.72528777      -0.52605132
14
Frame=11 idx=007712 GeodesicLength=0.8426297101052679 rxn_smarts="[C:1](/[N:2]=[C:3]1\[O:4][C@@:5]2([H:11])[C:6]([H:12])([H:13])[C@@:7]12[H:14])([H:8])([H:9])[H:10]>>[C:1]([N:2]([C:3]1=[O+:4][C-:5]2[C:6]([H:12])([H:13])[C@@:7]12[H:14])[H:11])([H:8])([H:9])[H:10]"
C        2.39773411      -0.06805289       0.22573935
N        1.15954853       0.56248928      -0.18890265
C        0.04844977       0.28526187       0.46020560
O       -0.25507896      -1.03110577       0.56586307
C       -1.12943827      -0.66584832      -0.64596907
C       -2.34584227      -0.22655151       0.06943158
C       -1.23193016       0.79477163      -0.00049222
H        3.23155538       0.50350204      -0.18477171
H        2.53688500      -0.09085791       1.30706476
H        2.45565084      -1.10405455      -0.11756609
H        0.27094467      -0.10242487      -1.43140304
H       -2.60364630      -0.58557490       1.06021165
H       -3.18674401       0.00919628      -0.57233726
H       -1.34808833       1.71924962      -0.54707396
14
Frame=12 idx=007712 GeodesicLength=0.919163574948611 rxn_smarts="[C:1](/[N:2]=[C:3]1\[O:4][C@@:5]2([H:11])[C:6]([H:12])([H:13])[C@@:7]12[H:14])([H:8])([H:9])[H:10]>>[C:1]([N:2]([C:3]1=[O+:4][C-:5]2[C:6]([H:12])([H:13])[C@@:7]12[H:14])[H:11])([H:8])([H:9])[H:10]"
C        2.40281224      -0.06783295       0.23152545
N        1.16493077       0.55269749      -0.19768946
C        0.05285681       0.28888866       0.45172042
O       -0.25565322      -1.02571917       0.56216651
C       -1.14582485      -0.67459808      -0.64741240
C       -2.34818568      -0.22270373       0.08243578
C       -1.22962873       0.79148549      -0.01821848
H        3.23774557       0.53528900      -0.12825595
H        2.51102500      -0.13537878       1.31430300
H        2.48901742      -1.08768285      -0.15103578
H        0.26751581      -0.11516355      -1.46599317
H       -2.59266538      -0.55873305       1.08464993
H       -3.19781064       0.00660294      -0.55021635
H       -1.35613510       1.71284858      -0.56797951
14
Frame=13 idx=007712 GeodesicLength=0.9956623973842386 rxn_smarts="[C:1](/[N:2]=[C:3]1\[O:4][C@@:5]2([H:11])[C:6]([H:12])([H:13])[C@@:7]12[H:14])([H:8])([H:9])[H:10]>>[C:1]([N:2]([C:3]1=[O+:4][C-:5]2[C:6]([H:12])([H:13])[C@@:7]12[H:14])[H:11])([H:8])([H:9])[H:10]"
C        2.40780085      -0.06748131       0.23748723
N        1.17026408       0.54265275      -0.20628474
C        0.05726058       0.29233130       0.44331335
O       -0.25627241      -1.02050526       0.55837619
C       -1.16252469      -0.68361057      -0.64843131
C       -2.35032802      -0.21847480       0.09549177
C       -1.22729276       0.78775384      -0.03612502
H        3.24133308       0.56583689      -0.07009953
H        2.48589182      -0.18059566       1.31885365
H        2.52395205      -1.06883091      -0.18338521
H        0.26382335      -0.12860808      -1.50115213
H       -2.58122191      -0.53126192       1.10845687
H       -3.20854990       0.00470120      -0.52779230
H       -1.36413614       1.70609254      -0.58870883
14
Frame=14 idx=007712 GeodesicLength=1.0721694470923118 rxn_smarts="[C:1](/[N:2]=[C:3]1\[O:4][C@@:5]2([H:11])[C:6]([H:12])([H:13])[C@@:7]12[H:14])([H:8])([H:9])[H:10]>>[C:1]([N:2]([C:3]1=[O+:4][C-:5]2[C:6]([H:12])([H:13])[C@@:7]12[H:14])[H:11])([H:8])([H:9])[H:10]"
C        2.41271483      -0.06701292       0.24358165
N        1.17557588       0.53230662      -0.21478611
C        0.06169246       0.29560033       0.43492795
O       -0.25692324      -1.01544243       0.55454845
C       -1.17955950      -0.69296161      -0.64895013
C       -2.35223951      -0.21381653       0.10867022
C       -1.22488734       0.78356016      -0.05430042
H        3.24186837       0.59527993      -0.00993445
H        2.46146761      -0.22691331       1.32052970
H        2.56064820      -1.04719555      -0.21469628
H        0.25986993      -0.14291184      -1.53692788
H       -2.56923887      -0.50293289       1.13174055
H       -3.21894524       0.00351678      -0.50497409
H       -1.37204358       1.69892325      -0.60942916
14
Frame=15 idx=007712 GeodesicLength=1.1486547206113744 rxn_smarts="[C:1](/[N:2]=[C:3]1\[O:4][C@@:5]2([H:11])[C:6]([H:12])([H:13])[C@@:7]12[H:14])([H:8])([H:9])[H:10]>>[C:1]([N:2]([C:3]1=[O+:4][C-:5]2[C:6]([H:12])([H:13])[C@@:7]12[H:14])[H:11])([H:8])([H:9])[H:10]"
C        2.41754914      -0.06641340       0.24983463
N        1.18086589       0.52165689      -0.22316863
C        0.06616193       0.29867637       0.42657392
O       -0.25760483      -1.01054476       0.55067862
C       -1.19694459      -0.70263384      -0.64893945
C       -2.35391704      -0.20870262       0.12196432
C       -1.22239953       0.77887250      -0.07272364
H        3.23933657       0.62348071       0.05207578
H        2.43783029      -0.27421590       1.31929372
H        2.59903652      -1.02270696      -0.24483822
H        0.25563168      -0.15812088      -1.57333837
H       -2.55672293      -0.47377438       1.15446222
H       -3.22899662       0.00310192      -0.48177278
H       -1.37982648       1.69132434      -0.63010211
14
Frame=16 idx=007712 GeodesicLength=1.2251291879772233 rxn_smarts="[C:1](/[N:2]=[C:3]1\[O:4][C@@:5]2([H:11])[C:6]([H:12])([H:13])[C@@:7]12[H:14])([H:8])([H:9])[H:10]>>[C:1]([N:2]([C:3]1=[O+:4][C-:5]2[C:6]([H:12])([H:13])[C@@:7]12[H:14])[H:11])([H:8])([H:9])[H:10]"
C        2.42230063      -0.06568349       0.25624162
N        1.18614216       0.51068606      -0.23147043
C        0.07067360       0.30157844       0.41822894
O       -0.25831849      -1.00578760       0.54682520
C       -1.21470129      -0.71267174      -0.64831555
C       -2.35534878      -0.20309994       0.13540923
C       -1.21982463       0.77367829      -0.09144721
H        3.23358430       0.65033814       0.11617374
H        2.41507506      -0.32269650       1.31492807
H        2.63914766      -0.99502688      -0.27383903
H        0.25106423      -0.17437539      -1.61040968
H       -2.54364687      -0.44366821       1.17667469
H       -3.23868891       0.00347657      -0.45815121
H       -1.38745867       1.68325224      -0.65084837
