13
Frame=0 idx=006092 GeodesicLength=0.0 rxn_smarts="[C:1]([C@@:2]1([H:10])[N:3]([H:11])[C@:4]1([C:5](=[O:6])[H:13])[H:12])([H:7])([H:8])[H:9]>>[C:1]([C@@:2]1([H:10])[N:3]([H:11])[O:6][C:5]([H:13])=[C:4]1[H:12])([H:7])([H:8])[H:9]"
C       -1.08436948      -0.48925383       1.14566694
C       -0.37879648      -0.57471212      -0.19049644
N       -0.93496180       0.21487750      -1.18372910
C        1.06944213      -0.13403847      -0.25419966
C        1.29868509       1.23966201      -0.37736757
O        0.50896176       2.05827603      -0.83636944
H       -1.09882975       0.54952768       1.47714269
H       -0.57578947      -1.09381812       1.89755558
H       -2.11501133      -0.83385175       1.04626262
H       -0.28429674      -1.61838647      -0.54660223
H       -0.51314142      -0.04792018      -2.07525309
H        1.87041315      -0.85963769      -0.19281440
H        2.23769435       1.58927537       0.09020412
13
Frame=1 idx=006092 GeodesicLength=0.05807977064472262 rxn_smarts="[C:1]([C@@:2]1([H:10])[N:3]([H:11])[C@:4]1([C:5](=[O:6])[H:13])[H:12])([H:7])([H:8])[H:9]>>[C:1]([C@@:2]1([H:10])[N:3]([H:11])[O:6][C:5]([H:13])=[C:4]1[H:12])([H:7])([H:8])[H:9]"
C       -1.07754265      -0.48587212       1.15038450
C       -0.37911987      -0.58210221      -0.18796317
N       -0.91291739       0.22513199      -1.18409186
C        1.06413274      -0.13709961      -0.27204316
C        1.29638858       1.23782811      -0.36559466
O        0.52990436       2.05047657      -0.87880634
H       -1.09039390       0.55427079       1.47737800
H       -0.56566553      -1.08668444       1.90318558
H       -2.10912187      -0.82945562       1.05748175
H       -0.30014564      -1.62593414      -0.54403738
H       -0.51831845      -0.06054339      -2.08045716
H        1.86671091      -0.86258847      -0.23718941
H        2.19608870       1.60257253       0.16175330
13
Frame=2 idx=006092 GeodesicLength=0.11618333082006087 rxn_smarts="[C:1]([C@@:2]1([H:10])[N:3]([H:11])[C@:4]1([C:5](=[O:6])[H:13])[H:12])([H:7])([H:8])[H:9]>>[C:1]([C@@:2]1([H:10])[N:3]([H:11])[O:6][C:5]([H:13])=[C:4]1[H:12])([H:7])([H:8])[H:9]"
C       -1.07099267      -0.48286295       1.15490907
C       -0.37913556      -0.58910383      -0.18531885
N       -0.89033008       0.23527309      -1.18426268
C        1.05911417      -0.13984952      -0.28807160
C        1.29433764       1.23567257      -0.35438611
O        0.55280960       2.04186687      -0.91875873
H       -1.08242000       0.55849996       1.47782682
H       -0.55618615      -1.08029534       1.90855441
H       -2.10341437      -0.82548234       1.06803824
H       -0.31548150      -1.63278776      -0.54160572
H       -0.52351662      -0.07148019      -2.08490243
H        1.86286148      -0.86471687      -0.27923601
H        2.15235407       1.61526631       0.22721360
13
Frame=3 idx=006092 GeodesicLength=0.17440347804847822 rxn_smarts="[C:1]([C@@:2]1([H:10])[N:3]([H:11])[C@:4]1([C:5](=[O:6])[H:13])[H:12])([H:7])([H:8])[H:9]>>[C:1]([C@@:2]1([H:10])[N:3]([H:11])[O:6][C:5]([H:13])=[C:4]1[H:12])([H:7])([H:8])[H:9]"
C       -1.06456822      -0.48005740       1.15923034
C       -0.37890246      -0.59575978      -0.18268183
N       -0.86726039       0.24524430      -1.18433090
C        1.05437208      -0.14245766      -0.30272569
C        1.29262734       1.23312070      -0.34385955
O        0.57733110       2.03251389      -0.95608043
H       -1.07506453       0.56246900       1.47812103
H       -0.54686388      -1.07397117       1.91379904
H       -2.09761138      -0.82218545       1.07820788
H       -0.33050134      -1.63901054      -0.53932038
H       -0.52872632      -0.08079913      -2.08871945
H        1.85878593      -0.86629209      -0.31937958
H        2.10638207       1.62718532       0.28773952
13
Frame=4 idx=006092 GeodesicLength=0.23280719583893353 rxn_smarts="[C:1]([C@@:2]1([H:10])[N:3]([H:11])[C@:4]1([C:5](=[O:6])[H:13])[H:12])([H:7])([H:8])[H:9]>>[C:1]([C@@:2]1([H:10])[N:3]([H:11])[O:6][C:5]([H:13])=[C:4]1[H:12])([H:7])([H:8])[H:9]"
C       -1.05816108      -0.47743121       1.16340457
C       -0.37843981      -0.60211273      -0.18007113
N       -0.84381923       0.25503973      -1.18430890
C        1.04997871      -0.14507462      -0.31614079
C        1.29145697       1.23015322      -0.33402017
O        0.60346205       2.02229177      -0.99136689
H       -1.06786909       0.56619818       1.47847161
H       -0.53770503      -1.06800952       1.91885081
H       -2.09175625      -0.81917808       1.08807404
H       -0.34538626      -1.64468342      -0.53723817
H       -0.53404222      -0.08858153      -2.09197207
H        1.85453421      -0.86759044      -0.35787077
H        2.05774703       1.63897864       0.34418785
13
Frame=5 idx=006092 GeodesicLength=0.29134050317108645 rxn_smarts="[C:1]([C@@:2]1([H:10])[N:3]([H:11])[C@:4]1([C:5](=[O:6])[H:13])[H:12])([H:7])([H:8])[H:9]>>[C:1]([C@@:2]1([H:10])[N:3]([H:11])[O:6][C:5]([H:13])=[C:4]1[H:12])([H:7])([H:8])[H:9]"
C       -1.05189830      -0.47500168       1.16743018
C       -0.37773752      -0.60822531      -0.17742346
N       -0.81997157       0.26451098      -1.18418378
C        1.04594156      -0.14771307      -0.32820736
C        1.29078688       1.22681338      -0.32458401
O        0.63057897       2.01127095      -1.02409578
H       -1.06080089       0.56963241       1.47894075
H       -0.52904324      -1.06258601       1.92370131
H       -2.08602782      -0.81625516       1.09751831
H       -0.36009813      -1.64984309      -0.53527810
H       -0.53915350      -0.09491410      -2.09463936
H        1.85010514      -0.86862182      -0.39494661
H        2.00731842       1.65093251       0.39576791
13
Frame=6 idx=006092 GeodesicLength=0.35005714585002745 rxn_smarts="[C:1]([C@@:2]1([H:10])[N:3]([H:11])[C@:4]1([C:5](=[O:6])[H:13])[H:12])([H:7])([H:8])[H:9]>>[C:1]([C@@:2]1([H:10])[N:3]([H:11])[O:6][C:5]([H:13])=[C:4]1[H:12])([H:7])([H:8])[H:9]"
C       -1.04558863      -0.47257765       1.17127755
C       -0.37684510      -0.61412847      -0.17487504
N       -0.79578507       0.27365270      -1.18407401
C        1.04225490      -0.15051938      -0.33941115
C        1.29074905       1.22301306      -0.31560888
O        0.65843499       1.99967776      -1.05407735
H       -1.05416338       0.57309472       1.47904578
H       -0.52020354      -1.05682363       1.92852041
H       -2.08006641      -0.81381840       1.10685513
H       -0.37480775      -1.65455359      -0.53346286
H       -0.54407469      -0.09979289      -2.09690037
H        1.84545226      -0.86961531      -0.43084357
H        1.95464336       1.66239108       0.44355436
13
Frame=7 idx=006092 GeodesicLength=0.4089220842636653 rxn_smarts="[C:1]([C@@:2]1([H:10])[N:3]([H:11])[C@:4]1([C:5](=[O:6])[H:13])[H:12])([H:7])([H:8])[H:9]>>[C:1]([C@@:2]1([H:10])[N:3]([H:11])[O:6][C:5]([H:13])=[C:4]1[H:12])([H:7])([H:8])[H:9]"
C       -1.03946277      -0.47044797       1.17502702
C       -0.37580116      -0.61980257      -0.17228728
N       -0.77132023       0.28254631      -1.18380029
C        1.03888628      -0.15334981      -0.34938583
C        1.29110438       1.21898036      -0.30660812
O        0.68718848       1.98735761      -1.08202986
H       -1.04771027       0.57616021       1.47936749
H       -0.51182516      -1.05171333       1.93314141
H       -2.07426371      -0.81162411       1.11583225
H       -0.38948450      -1.65873502      -0.53184453
H       -0.54882418      -0.10325776      -2.09859220
H        1.84060352      -0.87039204      -0.46528453
H        1.90090931       1.67427812       0.48646448
13
Frame=8 idx=006092 GeodesicLength=0.46807815442954287 rxn_smarts="[C:1]([C@@:2]1([H:10])[N:3]([H:11])[C@:4]1([C:5](=[O:6])[H:13])[H:12])([H:7])([H:8])[H:9]>>[C:1]([C@@:2]1([H:10])[N:3]([H:11])[O:6][C:5]([H:13])=[C:4]1[H:12])([H:7])([H:8])[H:9]"
C       -1.03324437      -0.46831192       1.17864814
C       -0.37459254      -0.62529625      -0.16979245
N       -0.74657170       0.29113007      -1.18350849
C        1.03589006      -0.15642552      -0.35865007
C        1.29213349       1.21449851      -0.29777360
O        0.71658833       1.97447660      -1.10759703
H       -1.04162510       0.57927316       1.47937462
H       -0.50318172      -1.04624695       1.93776229
H       -2.06820523      -0.80985738       1.12480485
H       -0.40429029      -1.66247405      -0.53038820
H       -0.55332965      -0.10532997      -2.09992018
H        1.83553505      -0.87124896      -0.49891019
H        1.84489367       1.68581268       0.52595032
13
Frame=9 idx=006092 GeodesicLength=0.5275077982695341 rxn_smarts="[C:1]([C@@:2]1([H:10])[N:3]([H:11])[C@:4]1([C:5](=[O:6])[H:13])[H:12])([H:7])([H:8])[H:9]>>[C:1]([C@@:2]1([H:10])[N:3]([H:11])[O:6][C:5]([H:13])=[C:4]1[H:12])([H:7])([H:8])[H:9]"
C       -1.02715658      -0.46649708       1.18222501
C       -0.37327789      -0.63056296      -0.16727020
N       -0.72159829       0.29956078      -1.18298695
C        1.03320624      -0.15956804      -0.36684724
C        1.29352550       1.20981098      -0.28869699
O        0.74704842       1.96077814      -1.13161520
H       -1.03571521       0.58196172       1.47964996
H       -0.49484521      -1.04141067       1.94220529
H       -2.06223914      -0.80841525       1.13354758
H       -0.41920603      -1.66564122      -0.52919104
H       -0.55770898      -0.10598695      -2.10068255
H        1.83026599      -0.87194941      -0.53128142
H        1.78770119       1.69791996       0.56094376
13
Frame=10 idx=006092 GeodesicLength=0.5872290339472699 rxn_smarts="[C:1]([C@@:2]1([H:10])[N:3]([H:11])[C@:4]1([C:5](=[O:6])[H:13])[H:12])([H:7])([H:8])[H:9]>>[C:1]([C@@:2]1([H:10])[N:3]([H:11])[O:6][C:5]([H:13])=[C:4]1[H:12])([H:7])([H:8])[H:9]"
C       -1.02104499      -0.46474281       1.18569746
C       -0.37184086      -0.63567853      -0.16481844
N       -0.69641326       0.30769357      -1.18239272
C        1.03085825      -0.16291884      -0.37437861
C        1.29543990       1.20477310      -0.27947733
O        0.77793158       1.94662108      -1.15334056
H       -1.03026918       0.58462294       1.47965998
H       -0.48629302      -1.03627495       1.94666120
H       -2.05608053      -0.80747707       1.14229126
H       -0.43428634      -1.66835069      -0.52817532
H       -0.56177135      -0.10527991      -2.10108541
H        1.82480350      -0.87265961      -0.56280258
H        1.72896632       1.70967172       0.59216105
13
Frame=11 idx=006092 GeodesicLength=0.6472009290668468 rxn_smarts="[C:1]([C@@:2]1([H:10])[N:3]([H:11])[C@:4]1([C:5](=[O:6])[H:13])[H:12])([H:7])([H:8])[H:9]>>[C:1]([C@@:2]1([H:10])[N:3]([H:11])[O:6][C:5]([H:13])=[C:4]1[H:12])([H:7])([H:8])[H:9]"
C       -1.01510096      -0.46337350       1.18914317
C       -0.37034981      -0.64058923      -0.16234431
N       -0.67109569       0.31569555      -1.18152553
C        1.02877137      -0.16629150      -0.38093621
C        1.29754576       1.19962665      -0.26985671
O        0.80970277       1.93169496      -1.17361993
H       -1.02503844       0.58678693       1.47998245
H       -0.47805079      -1.03183807       1.95092738
H       -2.05004567      -0.80694978       1.15082556
H       -0.44951756      -1.67046620      -0.52745657
H       -0.56570417      -0.10317742      -2.10092589
H        1.81918687      -0.87315052      -0.59292848
H        1.66969631       1.72203214       0.61871507
13
Frame=12 idx=006092 GeodesicLength=0.7074646787714489 rxn_smarts="[C:1]([C@@:2]1([H:10])[N:3]([H:11])[C@:4]1([C:5](=[O:6])[H:13])[H:12])([H:7])([H:8])[H:9]>>[C:1]([C@@:2]1([H:10])[N:3]([H:11])[O:6][C:5]([H:13])=[C:4]1[H:12])([H:7])([H:8])[H:9]"
C       -1.00921972      -0.46222393       1.19253226
C       -0.36880486      -0.64534304      -0.15991873
N       -0.64567049       0.32349880      -1.18048890
C        1.02694660      -0.16976967      -0.38680097
C        1.29990635       1.19429658      -0.25988802
O        0.84198737       1.91624621      -1.19206866
H       -1.02023696       0.58871568       1.48027365
H       -0.46974226      -1.02747160       1.95514158
H       -2.04393295      -0.80698690       1.15933162
H       -0.46495204      -1.67205527      -0.52700569
H       -0.56939952      -0.09970577      -2.10035342
H        1.81343826      -0.87353577      -0.62188474
H        1.60968021       1.73433470       0.64113003
13
Frame=13 idx=006092 GeodesicLength=0.7679256814310336 rxn_smarts="[C:1]([C@@:2]1([H:10])[N:3]([H:11])[C@:4]1([C:5](=[O:6])[H:13])[H:12])([H:7])([H:8])[H:9]>>[C:1]([C@@:2]1([H:10])[N:3]([H:11])[O:6][C:5]([H:13])=[C:4]1[H:12])([H:7])([H:8])[H:9]"
C       -1.00346847      -0.46132778       1.19585828
C       -0.36721855      -0.64997143      -0.15752339
N       -0.62020957       0.33104010      -1.17928215
C        1.02534530      -0.17328935      -0.39198036
C        1.30237638       1.18886712      -0.24952697
O        0.87446586       1.90039660      -1.20862565
H       -1.01584530       0.59035977       1.48057306
H       -0.46151028      -1.02329432       1.95928098
H       -2.03783588      -0.80753524       1.16774163
H       -0.48053732      -1.67314163      -0.52679022
H       -0.57282091      -0.09496419      -2.09937457
H        1.80761621      -0.87371390      -0.64958550
H        1.54964251       1.74657426       0.65923487
13
Frame=14 idx=006092 GeodesicLength=0.8285394233375778 rxn_smarts="[C:1]([C@@:2]1([H:10])[N:3]([H:11])[C@:4]1([C:5](=[O:6])[H:13])[H:12])([H:7])([H:8])[H:9]>>[C:1]([C@@:2]1([H:10])[N:3]([H:11])[O:6][C:5]([H:13])=[C:4]1[H:12])([H:7])([H:8])[H:9]"
C       -0.99788988      -0.46075794       1.19913417
C       -0.36562143      -0.65447611      -0.15515479
N       -0.59478550       0.33834328      -1.17788051
C        1.02391821      -0.17678277      -0.39647703
C        1.30480552       1.18343336      -0.23876560
O        0.90709002       1.88414756      -1.22349846
H       -1.01179196       0.59161931       1.48099810
H       -0.45345788      -1.01952372       1.96329500
H       -2.03182363      -0.80858214       1.17601520
H       -0.49626394      -1.67370541      -0.52684265
H       -0.57603554      -0.08899290      -2.09797175
H        1.80178162      -0.87363158      -0.67580669
H        1.49007439       1.75890906       0.67295501
13
Frame=15 idx=006092 GeodesicLength=0.8892650904048888 rxn_smarts="[C:1]([C@@:2]1([H:10])[N:3]([H:11])[C@:4]1([C:5](=[O:6])[H:13])[H:12])([H:7])([H:8])[H:9]>>[C:1]([C@@:2]1([H:10])[N:3]([H:11])[O:6][C:5]([H:13])=[C:4]1[H:12])([H:7])([H:8])[H:9]"
C       -0.99249829      -0.46052244       1.20235900
C       -0.36402715      -0.65887379      -0.15281722
N       -0.56946177       0.34538352      -1.17629825
C        1.02263025      -0.18020873      -0.40034511
C        1.30708535       1.17805630      -0.22763212
O        0.93968509       1.86757212      -1.23674849
H       -1.00803041       0.59248152       1.48157008
H       -0.44562342      -1.01621253       1.96716805
H       -2.02592560      -0.81009099       1.18413760
H       -0.51211174      -1.67375873      -0.52715223
H       -0.57905264      -0.08187068      -2.09616264
H        1.79599468      -0.87325886      -0.70048323
H        1.43133565       1.77130330       0.68240454
13
Frame=16 idx=006092 GeodesicLength=0.9500952128966476 rxn_smarts="[C:1]([C@@:2]1([H:10])[N:3]([H:11])[C@:4]1([C:5](=[O:6])[H:13])[H:12])([H:7])([H:8])[H:9]>>[C:1]([C@@:2]1([H:10])[N:3]([H:11])[O:6][C:5]([H:13])=[C:4]1[H:12])([H:7])([H:8])[H:9]"
C       -0.98726922      -0.46055586       1.20551726
C       -0.36243444      -0.66319124      -0.15052935
N       -0.54428671       0.35211305      -1.17458406
C        1.02146316      -0.18356437      -0.40370553
C        1.30916851       1.17274507      -0.21616933
O        0.97200336       1.85082036      -1.24831863
H       -1.00459704       0.59303766       1.48217806
H       -0.43792009      -1.01316704       1.97093405
H       -2.02009883      -0.81205382       1.19215257
H       -0.52806875      -1.67333626      -0.52768148
H       -0.58183590      -0.07369195      -2.09400383
H        1.79030732      -0.87260311      -0.72370692
H        1.37356864       1.78344751       0.68791719
