10
Frame=0 idx=000801 GeodesicLength=0.0 rxn_smarts="[O:1]([c:2]1[c:3]([H:8])[n:4][c:5]([H:9])[n:6]1[H:10])[H:7]>>[O:1]=[C:2]1[C:3]([H:8])=[N:4][C:5]([H:7])([H:9])[N:6]1[H:10]"
O       -1.52608053      -0.77899472       0.11041627
C       -0.72885894      -0.17436893      -0.69958661
C       -0.46590208       1.23494458      -0.43654602
N        0.54235455       1.24056764       0.37390081
C        0.95192015      -0.09208714       0.51773877
N        0.51894978      -0.79071495      -0.64238912
H       -0.57117775      -0.67424688       1.02312504
H       -1.07765039       2.09485435      -0.66413271
H        1.93279472      -0.26985071       0.94315221
H        0.42365050      -1.79010324      -0.52567863
10
Frame=1 idx=000801 GeodesicLength=0.061170437616315416 rxn_smarts="[O:1]([c:2]1[c:3]([H:8])[n:4][c:5]([H:9])[n:6]1[H:10])[H:7]>>[O:1]=[C:2]1[C:3]([H:8])=[N:4][C:5]([H:7])([H:9])[N:6]1[H:10]"
O       -1.53819053      -0.77987069       0.09821964
C       -0.72955900      -0.17554289      -0.70146096
C       -0.45933604       1.23284235      -0.44260618
N        0.55192043       1.24223245       0.36756553
C        0.95102780      -0.09098770       0.52504940
N        0.51790773      -0.79006489      -0.63525044
H       -0.58579960      -0.66980797       1.04019901
H       -1.08127583       2.08999786      -0.65344626
H        1.93941508      -0.26724064       0.93406576
H        0.43388998      -1.79155790      -0.53233549
10
Frame=2 idx=000801 GeodesicLength=0.12231648160889605 rxn_smarts="[O:1]([c:2]1[c:3]([H:8])[n:4][c:5]([H:9])[n:6]1[H:10])[H:7]>>[O:1]=[C:2]1[C:3]([H:8])=[N:4][C:5]([H:7])([H:9])[N:6]1[H:10]"
O       -1.55022487      -0.78090631       0.08603926
C       -0.73039065      -0.17678830      -0.70317965
C       -0.45301718       1.23064641      -0.44844447
N        0.56159487       1.24384531       0.36100811
C        0.95023984      -0.08974018       0.53218657
N        0.51671164      -0.78941929      -0.62810510
H       -0.60051223      -0.66495325       1.05764226
H       -1.08457420       2.08496866      -0.64284607
H        1.94562046      -0.26488653       0.92514759
H        0.44455234      -1.79276653      -0.53944849
10
Frame=3 idx=000801 GeodesicLength=0.1834464049505958 rxn_smarts="[O:1]([c:2]1[c:3]([H:8])[n:4][c:5]([H:9])[n:6]1[H:10])[H:7]>>[O:1]=[C:2]1[C:3]([H:8])=[N:4][C:5]([H:7])([H:9])[N:6]1[H:10]"
O       -1.56219793      -0.78210482       0.07386189
C       -0.73135342      -0.17811174      -0.70474484
C       -0.44693827       1.22835105      -0.45407251
N        0.57137829       1.24539541       0.35421896
C        0.94955284      -0.08835127       0.53915637
N        0.51535929      -0.78879443      -0.62093955
H       -0.61532505      -0.65966033       1.07547307
H       -1.08755893       2.07977799      -0.63231989
H        1.95143298      -0.26278806       0.91640769
H        0.45565019      -1.79371379      -0.54704118
10
Frame=4 idx=000801 GeodesicLength=0.24456885684596213 rxn_smarts="[O:1]([c:2]1[c:3]([H:8])[n:4][c:5]([H:9])[n:6]1[H:10])[H:7]>>[O:1]=[C:2]1[C:3]([H:8])=[N:4][C:5]([H:7])([H:9])[N:6]1[H:10]"
O       -1.57412502      -0.78346544       0.06167017
C       -0.73244333      -0.17952098      -0.70616014
C       -0.44108653       1.22594932      -0.45950402
N        0.58126990       1.24687148       0.34719383
C        0.94896534      -0.08683188       0.54596646
N        0.51384993      -0.78820894      -0.61373939
H       -0.63024724      -0.65390191       1.09370951
H       -1.09025592       2.07443882      -0.62185496
H        1.95687850      -0.26094711       0.90785225
H        0.46719438      -1.79438334      -0.55513371
10
Frame=5 idx=000801 GeodesicLength=0.305701234671201 rxn_smarts="[O:1]([c:2]1[c:3]([H:8])[n:4][c:5]([H:9])[n:6]1[H:10])[H:7]>>[O:1]=[C:2]1[C:3]([H:8])=[N:4][C:5]([H:7])([H:9])[N:6]1[H:10]"
O       -1.58602362      -0.78498979       0.04944624
C       -0.73366011      -0.18102396      -0.70742608
C       -0.43545217       1.22343338      -0.46475275
N        0.59126888       1.24826013       0.33992545
C        0.94847274      -0.08519012       0.55262611
N        0.51217854      -0.78768423      -0.60648546
H       -0.64528837      -0.64764965       1.11237526
H       -1.09267573       2.06895491      -0.61143771
H        1.96197857      -0.25936132       0.89948532
H        0.47920128      -1.79474936      -0.56375638
10
Frame=6 idx=000801 GeodesicLength=0.36684654671978545 rxn_smarts="[O:1]([c:2]1[c:3]([H:8])[n:4][c:5]([H:9])[n:6]1[H:10])[H:7]>>[O:1]=[C:2]1[C:3]([H:8])=[N:4][C:5]([H:7])([H:9])[N:6]1[H:10]"
O       -1.59790863      -0.78667773       0.03717629
C       -0.73500055      -0.18262903      -0.70854474
C       -0.43002165       1.22079553      -0.46983132
N        0.60137657       1.24955100       0.33241110
C        0.94807142      -0.08343833       0.55914684
N        0.51034234      -0.78724046      -0.59915759
H       -0.66046119      -0.64087282       1.13149113
H       -1.09484117       2.06333241      -0.60106009
H        1.96675686      -0.25803292       0.89130919
H        0.49168600      -1.79478766      -0.57294081
10
Frame=7 idx=000801 GeodesicLength=0.42801028800213675 rxn_smarts="[O:1]([c:2]1[c:3]([H:8])[n:4][c:5]([H:9])[n:6]1[H:10])[H:7]>>[O:1]=[C:2]1[C:3]([H:8])=[N:4][C:5]([H:7])([H:9])[N:6]1[H:10]"
O       -1.60979149      -0.78853998       0.02483929
C       -0.73647046      -0.18434538      -0.70951434
C       -0.42479576       1.21802806      -0.47474881
N        0.61158467       1.25071710       0.32463182
C        0.94775598      -0.08156451       0.56552303
N        0.50833178      -0.78689535      -0.59173926
H       -0.67577369      -0.63353826       1.15107889
H       -1.09672770       2.05756080      -0.59069231
H        1.97121898      -0.25695673       0.88333246
H        0.50466769      -1.79446576      -0.58271076
10
Frame=8 idx=000801 GeodesicLength=0.48918533739677944 rxn_smarts="[O:1]([c:2]1[c:3]([H:8])[n:4][c:5]([H:9])[n:6]1[H:10])[H:7]>>[O:1]=[C:2]1[C:3]([H:8])=[N:4][C:5]([H:7])([H:9])[N:6]1[H:10]"
O       -1.62168806      -0.79058056       0.01242895
C       -0.73807297      -0.18618302      -0.71032662
C       -0.41976899       1.21512042      -0.47951178
N        0.62188851       1.25174491       0.31659111
C        0.94752157      -0.07958182       0.57176895
N        0.50613723      -0.78667151      -0.58420554
H       -0.69124090      -0.62560871       1.17116326
H       -1.09833239       2.05163313      -0.58034220
H        1.97538393      -0.25613384       0.87555309
H        0.51817207      -1.79373899      -0.59311922
10
Frame=9 idx=000801 GeodesicLength=0.5503522832313313 rxn_smarts="[O:1]([c:2]1[c:3]([H:8])[n:4][c:5]([H:9])[n:6]1[H:10])[H:7]>>[O:1]=[C:2]1[C:3]([H:8])=[N:4][C:5]([H:7])([H:9])[N:6]1[H:10]"
O       -1.63360713      -0.79279978      -0.00007129
C       -0.73980442      -0.18814897      -0.71098562
C       -0.41492704       1.21206676      -0.48413391
N        0.63228640       1.25262209       0.30828542
C        0.94736746      -0.07750032       0.57789233
N        0.50375557      -0.78658595      -0.57653989
H       -0.70687414      -0.61705128       1.19175635
H       -1.09967797       2.04555048      -0.56999219
H        1.97926970      -0.25556977       0.86797088
H        0.53221157      -1.79258327      -0.60418207
10
Frame=10 idx=000801 GeodesicLength=0.6115335480046367 rxn_smarts="[O:1]([c:2]1[c:3]([H:8])[n:4][c:5]([H:9])[n:6]1[H:10])[H:7]>>[O:1]=[C:2]1[C:3]([H:8])=[N:4][C:5]([H:7])([H:9])[N:6]1[H:10]"
O       -1.64557150      -0.79520038      -0.01268471
C       -0.74166420      -0.19026348      -0.71148621
C       -0.41025396       1.20884726      -0.48863755
N        0.64277933       1.25331712       0.29969317
C        0.94728861      -0.07532456       0.58390385
N        0.50117503      -0.78667947      -0.56870281
H       -0.72268847      -0.60779878       1.21289292
H       -1.10077150       2.03929955      -0.55960980
H        1.98288591      -0.25526706       0.86059441
H        0.54682075      -1.79093020      -0.61596327
10
Frame=11 idx=000801 GeodesicLength=0.6727337381157825 rxn_smarts="[O:1]([c:2]1[c:3]([H:8])[n:4][c:5]([H:9])[n:6]1[H:10])[H:7]>>[O:1]=[C:2]1[C:3]([H:8])=[N:4][C:5]([H:7])([H:9])[N:6]1[H:10]"
O       -1.65760281      -0.79778574      -0.02542354
C       -0.74365625      -0.19254386      -0.71181525
C       -0.40573681       1.20544318      -0.49303653
N        0.65337349       1.25381123       0.29080312
C        0.94727846      -0.07307356       0.58982536
N        0.49837764      -0.78699193      -0.56065127
H       -0.73870097      -0.59779156       1.23460745
H       -1.10162434       2.03287153      -0.54919541
H        1.98624794      -0.25523643       0.85342698
H        0.56204364      -1.78870287      -0.62854091
10
Frame=12 idx=000801 GeodesicLength=0.7339451310700496 rxn_smarts="[O:1]([c:2]1[c:3]([H:8])[n:4][c:5]([H:9])[n:6]1[H:10])[H:7]>>[O:1]=[C:2]1[C:3]([H:8])=[N:4][C:5]([H:7])([H:9])[N:6]1[H:10]"
O       -1.66971967      -0.80056641      -0.03829688
C       -0.74578508      -0.19501040      -0.71196229
C       -0.40136865       1.20183349      -0.49734399
N        0.66406792       1.25407608       0.28160040
C        0.94733213      -0.07075713       0.59566916
N        0.49534782      -0.78755989      -0.55234768
H       -0.75492559      -0.58695963       1.25692996
H       -1.10223081       2.02624846      -0.53873935
H        1.98936141      -0.25549201       0.84647867
H        0.57792052      -1.78581255      -0.64198798
10
Frame=13 idx=000801 GeodesicLength=0.7951545219354317 rxn_smarts="[O:1]([c:2]1[c:3]([H:8])[n:4][c:5]([H:9])[n:6]1[H:10])[H:7]>>[O:1]=[C:2]1[C:3]([H:8])=[N:4][C:5]([H:7])([H:9])[N:6]1[H:10]"
O       -1.68194457      -0.80354658      -0.05131157
C       -0.74805361      -0.19768603      -0.71191196
C       -0.39713518       1.19799153      -0.50157570
N        0.67487056       1.25408284       0.27206991
C        0.94744300      -0.06839557       0.60145759
N        0.49206732      -0.78842870      -0.54374334
H       -0.77138198      -0.57523325       1.27989031
H       -1.10260031       2.01941758      -0.52824014
H        1.99223733      -0.25604600       0.83975567
H        0.59449745      -1.78215582      -0.65639077
10
Frame=14 idx=000801 GeodesicLength=0.8563547692499996 rxn_smarts="[O:1]([c:2]1[c:3]([H:8])[n:4][c:5]([H:9])[n:6]1[H:10])[H:7]>>[O:1]=[C:2]1[C:3]([H:8])=[N:4][C:5]([H:7])([H:9])[N:6]1[H:10]"
O       -1.69430151      -0.80673922      -0.06447236
C       -0.75047150      -0.20060169      -0.71164274
C       -0.39302577       1.19388369      -0.50575014
N        0.68578526       1.25378592       0.26218262
C        0.94760397      -0.06600189       0.60720747
N        0.48850891      -0.78965567      -0.53477958
H       -0.78808823      -0.56251474       1.30352751
H       -1.10272339       2.01235292      -0.51768936
H        1.99487385      -0.25692236       0.83327859
H        0.61183841      -1.77758696      -0.67186202
10
Frame=15 idx=000801 GeodesicLength=0.9175319671169835 rxn_smarts="[O:1]([c:2]1[c:3]([H:8])[n:4][c:5]([H:9])[n:6]1[H:10])[H:7]>>[O:1]=[C:2]1[C:3]([H:8])=[N:4][C:5]([H:7])([H:9])[N:6]1[H:10]"
O       -1.70682010      -0.81015523      -0.07777129
C       -0.75305109      -0.20379531      -0.71112521
C       -0.38902749       1.18946737      -0.50988691
N        0.69682400       1.25313982       0.25190954
C        0.94780362      -0.06360223       0.61294607
N        0.48463823      -0.79130951      -0.52538276
H       -0.80506532      -0.54869986       1.32788513
H       -1.10258999       2.00502252      -0.50709919
H        1.99726910      -0.25814995       0.82707124
H        0.63001905      -1.77191762      -0.68854662
10
Frame=16 idx=000801 GeodesicLength=0.9786756706950785 rxn_smarts="[O:1]([c:2]1[c:3]([H:8])[n:4][c:5]([H:9])[n:6]1[H:10])[H:7]>>[O:1]=[C:2]1[C:3]([H:8])=[N:4][C:5]([H:7])([H:9])[N:6]1[H:10]"
O       -1.71953244      -0.81380712      -0.09119049
C       -0.75580865      -0.20731367      -0.71031935
C       -0.38512494       1.18469638      -0.51401001
N        0.70800263       1.25210240       0.24121520
C        0.94802926      -0.06122773       0.61870454
N        0.48041259      -0.79347608      -0.51546277
H       -0.82234014      -0.53367337       1.35301873
H       -1.10218672       1.99738688      -0.49649679
H        1.99941631      -0.25977403       0.82116601
H        0.64913211      -1.76491366      -0.70662506
