12
Frame=0 idx=004932 GeodesicLength=0.0 rxn_smarts="[O:1]=[C:2]1[C:3]([H:7])([H:8])[C:4]([H:9])([H:10])[O:5][C:6]1([H:11])[H:12]>>[O:1]=[C:2]([C:3](=[C:4]([H:9])[H:10])[H:7])[C:6]([O:5][H:8])([H:11])[H:12]"
O        0.83224393       2.25123424      -0.31796693
C        0.35667436       1.14662184      -0.14456006
C       -0.97818435       0.64055487      -0.08081546
C       -0.89470711      -0.83382627      -0.30235586
O        0.22560585      -1.03412414       0.69943472
C        1.23623481      -0.08812749       0.18768094
H       -1.84786693       1.23621308      -0.31325222
H       -0.35021768      -0.20866244       1.20485028
H       -1.73856717      -1.43083038       0.03521475
H       -0.50327284      -1.22366576      -1.24801443
H        1.69303585      -0.54721323      -0.68903549
H        1.96902129       0.09182568       0.96881973
12
Frame=1 idx=004932 GeodesicLength=0.10623884610445763 rxn_smarts="[O:1]=[C:2]1[C:3]([H:7])([H:8])[C:4]([H:9])([H:10])[O:5][C:6]1([H:11])[H:12]>>[O:1]=[C:2]([C:3](=[C:4]([H:9])[H:10])[H:7])[C:6]([O:5][H:8])([H:11])[H:12]"
O        0.82587628       2.25222897      -0.29901438
C        0.35963767       1.14112562      -0.14999783
C       -0.98045291       0.63588614      -0.07345903
C       -0.90702315      -0.83305625      -0.30648315
O        0.24164208      -1.03887606       0.69757597
C        1.24266902      -0.08882765       0.18521127
H       -1.83874017       1.23628138      -0.33606287
H       -0.35257729      -0.20608991       1.22137838
H       -1.75189347      -1.42625465       0.03630763
H       -0.51939824      -1.23261136      -1.24852673
H        1.70527045      -0.54050621      -0.69220161
H        1.97498974       0.10069997       0.96527235
12
Frame=2 idx=004932 GeodesicLength=0.21241758514317458 rxn_smarts="[O:1]=[C:2]1[C:3]([H:7])([H:8])[C:4]([H:9])([H:10])[O:5][C:6]1([H:11])[H:12]>>[O:1]=[C:2]([C:3](=[C:4]([H:9])[H:10])[H:7])[C:6]([O:5][H:8])([H:11])[H:12]"
O        0.81945784       2.25253137      -0.28119668
C        0.36263615       1.13560992      -0.15558047
C       -0.98265999       0.63116149      -0.06650593
C       -0.91952672      -0.83218559      -0.31111765
O        0.25777995      -1.04365415       0.69553750
C        1.24916340      -0.08945409       0.18286562
H       -1.82939473       1.23613063      -0.35673743
H       -0.35531199      -0.20303031       1.23800354
H       -1.76547704      -1.42151206       0.03672870
H       -0.53527084      -1.24171303      -1.24911706
H        1.71798396      -0.53364134      -0.69496671
H        1.98062001       0.10975716       0.96208657
12
Frame=3 idx=004932 GeodesicLength=0.3185564841214471 rxn_smarts="[O:1]=[C:2]1[C:3]([H:7])([H:8])[C:4]([H:9])([H:10])[O:5][C:6]1([H:11])[H:12]>>[O:1]=[C:2]([C:3](=[C:4]([H:9])[H:10])[H:7])[C:6]([O:5][H:8])([H:11])[H:12]"
O        0.81301171       2.25216971      -0.26456475
C        0.36566766       1.13006040      -0.16124320
C       -0.98480304       0.62635572      -0.05989721
C       -0.93222753      -0.83121589      -0.31626109
O        0.27406094      -1.04850076       0.69331237
C        1.25573106      -0.09001792       0.18064585
H       -1.81990572       1.23581662      -0.37536850
H       -0.35842080      -0.19947944       1.25477158
H       -1.77931815      -1.41661279       0.03648239
H       -0.55090514      -1.25096107      -1.24978761
H        1.73117603      -0.52658696      -0.69734519
H        1.98593297       0.11897237       0.95925538
12
Frame=4 idx=004932 GeodesicLength=0.42469171481470575 rxn_smarts="[O:1]=[C:2]1[C:3]([H:7])([H:8])[C:4]([H:9])([H:10])[O:5][C:6]1([H:11])[H:12]>>[O:1]=[C:2]([C:3](=[C:4]([H:9])[H:10])[H:7])[C:6]([O:5][H:8])([H:11])[H:12]"
O        0.80655734       2.25118531      -0.24910901
C        0.36873248       1.12445931      -0.16693461
C       -0.98687733       0.62144253      -0.05357033
C       -0.94513669      -0.83014769      -0.32190979
O        0.29053333      -1.05346089       0.69088776
C        1.26238515      -0.09053123       0.17854446
H       -1.81034659       1.23538732      -0.39210198
H       -0.36189845      -0.19542010       1.27173149
H       -1.79341518      -1.41156424       0.03559136
H       -0.56632747      -1.26035452      -1.25052742
H        1.74484102      -0.51931210      -0.69936221
H        1.99095240       0.12831628       0.95676029
12
Frame=5 idx=004932 GeodesicLength=0.5308241217600913 rxn_smarts="[O:1]=[C:2]1[C:3]([H:7])([H:8])[C:4]([H:9])([H:10])[O:5][C:6]1([H:11])[H:12]>>[O:1]=[C:2]([C:3](=[C:4]([H:9])[H:10])[H:7])[C:6]([O:5][H:8])([H:11])[H:12]"
O        0.80010512       2.24961588      -0.23481494
C        0.37182566       1.11878732      -0.17263361
C       -0.98888268       0.61639768      -0.04748751
C       -0.95826983      -0.82898056      -0.32806885
O        0.30723487      -1.05856527       0.68825293
C        1.26913650      -0.09100315       0.17655439
H       -1.80074310       1.23487073      -0.40702115
H       -0.36574377      -0.19082622       1.28892388
H       -1.80777460      -1.40637366       0.03407094
H       -0.58155948      -1.26990013      -1.25133165
H        1.75897938      -0.51179477      -0.70103368
H        1.99569190       0.13777215       0.95458926
12
Frame=6 idx=004932 GeodesicLength=0.63698034705589 rxn_smarts="[O:1]=[C:2]1[C:3]([H:7])([H:8])[C:4]([H:9])([H:10])[O:5][C:6]1([H:11])[H:12]>>[O:1]=[C:2]([C:3](=[C:4]([H:9])[H:10])[H:7])[C:6]([O:5][H:8])([H:11])[H:12]"
O        0.79366903       2.24750156      -0.22164116
C        0.37494748       1.11302442      -0.17832020
C       -0.99081585       0.61119501      -0.04160448
C       -0.97164092      -0.82771460      -0.33473918
O        0.32421088      -1.06385249       0.68539006
C        1.27599765      -0.09144566       0.17466362
H       -1.79114399       1.23429548      -0.42024082
H       -0.36995567      -0.18565459       1.30639286
H       -1.82239645      -1.40104602       0.03194137
H       -0.59662771      -1.27960796      -1.25218753
H        1.77358887      -0.50401083      -0.70238040
H        2.00016667       0.14731570       0.95272587
12
Frame=7 idx=004932 GeodesicLength=0.7431704763274406 rxn_smarts="[O:1]=[C:2]1[C:3]([H:7])([H:8])[C:4]([H:9])([H:10])[O:5][C:6]1([H:11])[H:12]>>[O:1]=[C:2]([C:3](=[C:4]([H:9])[H:10])[H:7])[C:6]([O:5][H:8])([H:11])[H:12]"
O        0.78725481       2.24487244      -0.20953916
C        0.37809646       1.10714846      -0.18398898
C       -0.99267376       0.60580770      -0.03588939
C       -0.98526610      -0.82634937      -0.34192523
O        0.34150505      -1.06935657       0.68227759
C        1.28298055      -0.09186888       0.17286005
H       -1.78157860       1.23368610      -0.43185002
H       -0.37453551      -0.17985368       1.32417745
H       -1.83728467      -1.39558560       0.02922118
H       -0.61155773      -1.28949148      -1.25308170
H        1.78867279      -0.49593720      -0.70341845
H        2.00438671       0.15692808       0.95115665
12
Frame=8 idx=004932 GeodesicLength=0.8494082553166186 rxn_smarts="[O:1]=[C:2]1[C:3]([H:7])([H:8])[C:4]([H:9])([H:10])[O:5][C:6]1([H:11])[H:12]>>[O:1]=[C:2]([C:3](=[C:4]([H:9])[H:10])[H:7])[C:6]([O:5][H:8])([H:11])[H:12]"
O        0.78086972       2.24175850      -0.19846068
C        0.38127209       1.10113815      -0.18963311
C       -0.99445254       0.60020810      -0.03031047
C       -0.99916282      -0.82488006      -0.34963873
O        0.35916055      -1.07511153       0.67889180
C        1.29009634      -0.09228331       0.17113088
H       -1.77207489       1.23305627      -0.44192931
H       -0.37948706      -0.17335954       1.34231984
H       -1.85244064      -1.38999573       0.02592545
H       -0.62637357      -1.29956701      -1.25400082
H        1.80423338      -0.48755205      -0.70416421
H        2.00835944       0.16658821       0.94986936
12
Frame=9 idx=004932 GeodesicLength=0.9556549335803928 rxn_smarts="[O:1]=[C:2]1[C:3]([H:7])([H:8])[C:4]([H:9])([H:10])[O:5][C:6]1([H:11])[H:12]>>[O:1]=[C:2]([C:3](=[C:4]([H:9])[H:10])[H:7])[C:6]([O:5][H:8])([H:11])[H:12]"
O        0.77451432       2.23818061      -0.18835844
C        0.38447230       1.09497266      -0.19526216
C       -0.99615065       0.59437149      -0.02485070
C       -1.01334799      -0.82330448      -0.35788974
O        0.37721227      -1.08114539       0.67520503
C        1.29735521      -0.09269759       0.16946322
H       -1.76263406       1.23241134      -0.45052483
H       -0.38481652      -0.16610516       1.36085190
H       -1.86786599      -1.38428199       0.02206995
H       -0.64109814      -1.30984703      -1.25493579
H        1.82027548      -0.47883493      -0.70462558
H        2.01208376       0.17628048       0.94885715
12
Frame=10 idx=004932 GeodesicLength=1.0619511384178488 rxn_smarts="[O:1]=[C:2]1[C:3]([H:7])([H:8])[C:4]([H:9])([H:10])[O:5][C:6]1([H:11])[H:12]>>[O:1]=[C:2]([C:3](=[C:4]([H:9])[H:10])[H:7])[C:6]([O:5][H:8])([H:11])[H:12]"
O        0.76819516       2.23415641      -0.17918721
C        0.38769989       1.08862850      -0.20087339
C       -0.99776024       0.58826232      -0.01948308
C       -1.02783954      -0.82161363      -0.36670301
O        0.39571118      -1.08749852       0.67117992
C        1.30477041      -0.09312366       0.16784512
H       -1.75329600       1.23176456      -0.45769121
H       -0.39053709      -0.15799529       1.37981706
H       -1.88355824      -1.37844751       0.01766076
H       -0.65575846      -1.32035249      -1.25586636
H        1.83681048      -0.46976049      -0.70481450
H        2.01556244       0.18597980       0.94811591
12
Frame=11 idx=004932 GeodesicLength=1.1682963729111027 rxn_smarts="[O:1]=[C:2]1[C:3]([H:7])([H:8])[C:4]([H:9])([H:10])[O:5][C:6]1([H:11])[H:12]>>[O:1]=[C:2]([C:3](=[C:4]([H:9])[H:10])[H:7])[C:6]([O:5][H:8])([H:11])[H:12]"
O        0.76191043       2.22969705      -0.17090490
C        0.39095314       1.08208198      -0.20647133
C       -0.99927488       0.58184662      -0.01419159
C       -1.04265706      -0.81979972      -0.37610161
O        0.41470463      -1.09421012       0.66677167
C        1.31235354      -0.09357273       0.16626421
H       -1.74406627       1.23111845      -0.46346076
H       -0.39666417      -0.14893038       1.39925369
H       -1.89951578      -1.37249598       0.01270981
H       -0.67038227      -1.33110016      -1.25677894
H        1.85384991      -0.46029925      -0.70473644
H        2.01878880       0.19566425       0.94764619
12
Frame=12 idx=004932 GeodesicLength=1.2746733199828042 rxn_smarts="[O:1]=[C:2]1[C:3]([H:7])([H:8])[C:4]([H:9])([H:10])[O:5][C:6]1([H:11])[H:12]>>[O:1]=[C:2]([C:3](=[C:4]([H:9])[H:10])[H:7])[C:6]([O:5][H:8])([H:11])[H:12]"
O        0.75566407       2.22481048      -0.16347666
C        0.39423361       1.07530876      -0.21206120
C       -1.00068727       0.57508788      -0.00895750
C       -1.05781915      -0.81785330      -0.38611259
O        0.43423944      -1.10131974       0.66193090
C        1.32011762      -0.09405660       0.16470783
H       -1.73496517       1.23047622      -0.46785241
H       -0.40321632      -0.13879903       1.41919962
H       -1.91573346      -1.36643458       0.00722073
H       -0.68499511      -1.34210678      -1.25765691
H        1.87140788      -0.45042170      -0.70439408
H        2.02175388       0.20530839       0.94745227
12
Frame=13 idx=004932 GeodesicLength=1.3810614111864854 rxn_smarts="[O:1]=[C:2]1[C:3]([H:7])([H:8])[C:4]([H:9])([H:10])[O:5][C:6]1([H:11])[H:12]>>[O:1]=[C:2]([C:3](=[C:4]([H:9])[H:10])[H:7])[C:6]([O:5][H:8])([H:11])[H:12]"
O        0.74945398       2.21949570      -0.15687227
C        0.39754197       1.06828295      -0.21765241
C       -1.00199077       0.56794696      -0.00376901
C       -1.07334688      -0.81576209      -0.39676977
O        0.45436150      -1.10887038       0.65659516
C        1.32807419      -0.09458717       0.16316419
H       -1.72599138       1.22982802      -0.47085840
H       -0.41021812      -0.12746738       1.43968792
H       -1.93220209      -1.36027331       0.00119990
H       -0.69962580      -1.35338484      -1.25848534
H        1.88950294      -0.44009450      -0.70378456
H        2.02444047       0.21488605       0.94754460
12
Frame=14 idx=004932 GeodesicLength=1.4874442546726798 rxn_smarts="[O:1]=[C:2]1[C:3]([H:7])([H:8])[C:4]([H:9])([H:10])[O:5][C:6]1([H:11])[H:12]>>[O:1]=[C:2]([C:3](=[C:4]([H:9])[H:10])[H:7])[C:6]([O:5][H:8])([H:11])[H:12]"
O        0.74328165       2.21375255      -0.15106432
C        0.40087876       1.06097621      -0.22324413
C       -1.00317270       0.56037445       0.00139354
C       -1.08926159      -0.81351063      -0.40811222
O        0.47512764      -1.11690918       0.65069793
C        1.33623899      -0.09517852       0.16162080
H       -1.71716902       1.22917524      -0.47248382
H       -0.41769597      -0.11479277       1.46075954
H       -1.94891095      -1.35402006      -0.00535225
H       -0.71430562      -1.36495109      -1.25924336
H        1.90815506      -0.42927936      -0.70290681
H        2.02683376       0.22436318       0.94793511
12
Frame=15 idx=004932 GeodesicLength=1.5937947766543075 rxn_smarts="[O:1]=[C:2]1[C:3]([H:7])([H:8])[C:4]([H:9])([H:10])[O:5][C:6]1([H:11])[H:12]>>[O:1]=[C:2]([C:3](=[C:4]([H:9])[H:10])[H:7])[C:6]([O:5][H:8])([H:11])[H:12]"
O        0.73714483       2.20757112      -0.14603299
C        0.40424506       1.05335767      -0.22884509
C       -1.00422186       0.55231801       0.00654191
C       -1.10558602      -0.81108258      -0.42018358
O        0.49659417      -1.12548686       0.64415713
C        1.34462679      -0.09584590       0.16006526
H       -1.70850365       1.22850612      -0.47269539
H       -0.42568415      -0.10060464       1.48244762
H       -1.96584522      -1.34768716      -0.01243570
H       -0.72906801      -1.37681643      -1.25991268
H        1.92739012      -0.41793377      -0.70175068
H        2.02890795       0.23370443       0.94864418
12
Frame=16 idx=004932 GeodesicLength=1.7000731541132543 rxn_smarts="[O:1]=[C:2]1[C:3]([H:7])([H:8])[C:4]([H:9])([H:10])[O:5][C:6]1([H:11])[H:12]>>[O:1]=[C:2]([C:3](=[C:4]([H:9])[H:10])[H:7])[C:6]([O:5][H:8])([H:11])[H:12]"
O        0.73104315       2.20093854      -0.14176267
C        0.40764304       1.04539382      -0.23446120
C       -1.00512394       0.54371780       0.01169190
C       -1.12234374      -0.80845804      -0.43303314
O        0.51882165      -1.13465632       0.63688203
C        1.35325461      -0.09660609       0.15848459
H       -1.70001121       1.22780985      -0.47145358
H       -0.43422153      -0.08471589       1.50478471
H       -1.98298525      -1.34129011      -0.02005372
H       -0.74394798      -1.38898986      -1.26047092
H        1.94723645      -0.40601165      -0.70030319
H        2.03063475       0.24286794       0.94969519
