11
Frame=0 idx=009453 GeodesicLength=0.0 rxn_smarts="[O:1]([c+:2]1[n-:3][c:4]([O:5][H:9])[c:6]([H:10])[n:7]1[H:11])[H:8]>>[O:1]([C@@:2]1([H:11])[N:3]=[C:4]([O:5][H:9])[C:6]([H:10])=[N:7]1)[H:8]"
O       -2.30416661       0.58794264       0.16038903
C       -1.05262199       0.13920603      -0.05563432
N        0.02592852       0.94504316      -0.08623919
C        1.04086473       0.10857253       0.10843966
O        2.31351787       0.50906733       0.09923879
C        0.60373783      -1.20641021       0.26691791
N       -0.74517805      -1.20867047       0.20764254
H       -2.30066566       1.53286436      -0.01711192
H        2.32059477       1.46531254      -0.00765843
H        1.17697089      -2.11684139       0.31709183
H       -1.07898229      -0.75608657      -0.99307590
11
Frame=1 idx=009453 GeodesicLength=0.03325832079349484 rxn_smarts="[O:1]([c+:2]1[n-:3][c:4]([O:5][H:9])[c:6]([H:10])[n:7]1[H:11])[H:8]>>[O:1]([C@@:2]1([H:11])[N:3]=[C:4]([O:5][H:9])[C:6]([H:10])=[N:7]1)[H:8]"
O       -2.30040160       0.59057376       0.16895436
C       -1.05246022       0.13914510      -0.06513917
N        0.02811255       0.94504307      -0.09770260
C        1.04206045       0.11097180       0.10744952
O        2.31512835       0.51074202       0.10332527
C        0.60444394      -1.20501002       0.26996413
N       -0.74298366      -1.20571967       0.20564057
H       -2.29847630       1.53466787      -0.01280968
H        2.32257556       1.46757128       0.00160511
H        1.17783877      -2.11570993       0.31676113
H       -1.09583784      -0.77227529      -0.99804863
11
Frame=2 idx=009453 GeodesicLength=0.0665521798158045 rxn_smarts="[O:1]([c+:2]1[n-:3][c:4]([O:5][H:9])[c:6]([H:10])[n:7]1[H:11])[H:8]>>[O:1]([C@@:2]1([H:11])[N:3]=[C:4]([O:5][H:9])[C:6]([H:10])=[N:7]1)[H:8]"
O       -2.29610171       0.59350943       0.17792346
C       -1.05227684       0.13900484      -0.07485895
N        0.03042619       0.94480988      -0.11036147
C        1.04333765       0.11330286       0.10556070
O        2.31665980       0.51276452       0.10863294
C        0.60523657      -1.20360673       0.27260752
N       -0.74071753      -1.20270688       0.20386133
H       -2.29586431       1.53662938      -0.00872465
H        2.32430719       1.47009669       0.01155808
H        1.17879080      -2.11456962       0.31591217
H       -1.11379780      -0.78923437      -1.00211114
11
Frame=3 idx=009453 GeodesicLength=0.09979725397594 rxn_smarts="[O:1]([c+:2]1[n-:3][c:4]([O:5][H:9])[c:6]([H:10])[n:7]1[H:11])[H:8]>>[O:1]([C@@:2]1([H:11])[N:3]=[C:4]([O:5][H:9])[C:6]([H:10])=[N:7]1)[H:8]"
O       -2.29183615       0.59609511       0.18615508
C       -1.05209641       0.13887725      -0.08456976
N        0.03266792       0.94478627      -0.12086671
C        1.04440080       0.11593968       0.10629152
O        2.31810652       0.51462829       0.11377260
C        0.60588937      -1.20220226       0.27565306
N       -0.73848591      -1.19989910       0.20089189
H       -2.29338836       1.53836586      -0.00460389
H        2.32615587       1.47218726       0.01878745
H        1.17970237      -2.11337282       0.31507171
H       -1.13111601      -0.80540554      -1.00658294
11
Frame=4 idx=009453 GeodesicLength=0.13305364666138472 rxn_smarts="[O:1]([c+:2]1[n-:3][c:4]([O:5][H:9])[c:6]([H:10])[n:7]1[H:11])[H:8]>>[O:1]([C@@:2]1([H:11])[N:3]=[C:4]([O:5][H:9])[C:6]([H:10])=[N:7]1)[H:8]"
O       -2.28736500       0.59861638       0.19415842
C       -1.05190848       0.13872960      -0.09438448
N        0.03493895       0.94478396      -0.13082759
C        1.04537104       0.11873371       0.10800989
O        2.31950582       0.51649855       0.11892251
C        0.60650295      -1.20078410       0.27876030
N       -0.73623808      -1.19716760       0.19742533
H       -2.29081258       1.54004278      -0.00058873
H        2.32800997       1.47420924       0.02530014
H        1.18063793      -2.11211799       0.31405690
H       -1.14864252      -0.82154454      -1.01083267
11
Frame=5 idx=009453 GeodesicLength=0.1663485005414042 rxn_smarts="[O:1]([c+:2]1[n-:3][c:4]([O:5][H:9])[c:6]([H:10])[n:7]1[H:11])[H:8]>>[O:1]([C@@:2]1([H:11])[N:3]=[C:4]([O:5][H:9])[C:6]([H:10])=[N:7]1)[H:8]"
O       -2.28238446       0.60139705       0.20241139
C       -1.05169809       0.13850062      -0.10443432
N        0.03733738       0.94456087      -0.14184593
C        1.04638211       0.12150492       0.10908828
O        2.32083624       0.51861806       0.12462785
C        0.60718766      -1.19936212       0.28152837
N       -0.73391828      -1.19440162       0.19406640
H       -2.28782623       1.54186586       0.00325102
H        2.32963667       1.47652169       0.03280589
H        1.18166643      -2.11083042       0.31266848
H       -1.16721945      -0.83837491      -1.01416743
11
Frame=6 idx=009453 GeodesicLength=0.1996559713432948 rxn_smarts="[O:1]([c+:2]1[n-:3][c:4]([O:5][H:9])[c:6]([H:10])[n:7]1[H:11])[H:8]>>[O:1]([C@@:2]1([H:11])[N:3]=[C:4]([O:5][H:9])[C:6]([H:10])=[N:7]1)[H:8]"
O       -2.27668009       0.60463478       0.21112444
C       -1.05146853       0.13813448      -0.11480747
N        0.03992194       0.94395104      -0.15479113
C        1.04751612       0.12414717       0.10867913
O        2.32206711       0.52112024       0.13097331
C        0.60801166      -1.19794920       0.28375504
N       -0.73149898      -1.19155347       0.19112631
H       -2.28421027       1.54396635       0.00685048
H        2.33082149       1.47935364       0.04240905
H        1.18282603      -2.10953623       0.31078822
H       -1.18730647      -0.85626879      -1.01610739
11
Frame=7 idx=009453 GeodesicLength=0.23302088218077904 rxn_smarts="[O:1]([c+:2]1[n-:3][c:4]([O:5][H:9])[c:6]([H:10])[n:7]1[H:11])[H:8]>>[O:1]([C@@:2]1([H:11])[N:3]=[C:4]([O:5][H:9])[C:6]([H:10])=[N:7]1)[H:8]"
O       -2.27072068       0.60781119       0.21959997
C       -1.05121504       0.13774283      -0.12527834
N        0.04255387       0.94332611      -0.16715429
C        1.04853587       0.12694734       0.10935851
O        2.32317638       0.52372195       0.13809673
C        0.60879908      -1.19655783       0.28596990
N       -0.72905248      -1.18882052       0.18755825
H       -2.28046350       1.54600299       0.01036360
H        2.33200431       1.48207753       0.05062334
H        1.18403881      -2.10819878       0.30860053
H       -1.20765661      -0.87405281      -1.01773819
11
Frame=8 idx=009453 GeodesicLength=0.2664476608735564 rxn_smarts="[O:1]([c+:2]1[n-:3][c:4]([O:5][H:9])[c:6]([H:10])[n:7]1[H:11])[H:8]>>[O:1]([C@@:2]1([H:11])[N:3]=[C:4]([O:5][H:9])[C:6]([H:10])=[N:7]1)[H:8]"
O       -2.26431179       0.61112823       0.22806729
C       -1.05094282       0.13727127      -0.13593563
N        0.04530059       0.94252627      -0.17990624
C        1.04951784       0.12980646       0.11022004
O        2.32414734       0.52654120       0.14600968
C        0.60961955      -1.19518800       0.28798820
N       -0.72654858      -1.18613843       0.18374173
H       -2.27637439       1.54811255       0.01371084
H        2.33301493       1.48493573       0.05872887
H        1.18535066      -2.10682783       0.30594057
H       -1.22877333      -0.89216746      -1.01856533
11
Frame=9 idx=009453 GeodesicLength=0.29991980055944434 rxn_smarts="[O:1]([c+:2]1[n-:3][c:4]([O:5][H:9])[c:6]([H:10])[n:7]1[H:11])[H:8]>>[O:1]([C@@:2]1([H:11])[N:3]=[C:4]([O:5][H:9])[C:6]([H:10])=[N:7]1)[H:8]"
O       -2.25719885       0.61483326       0.23678667
C       -1.05064244       0.13664472      -0.14687415
N        0.04823360       0.94133507      -0.19407260
C        1.05056109       0.13259171       0.11026896
O        2.32492928       0.52974807       0.15484937
C        0.61055284      -1.19386347       0.28956709
N       -0.72395418      -1.18345905       0.18002751
H       -2.27167191       1.55045316       0.01680050
H        2.33357906       1.48820732       0.06800827
H        1.18681001      -2.10545999       0.30265466
H       -1.25119850      -0.91103081      -1.01801629
11
Frame=10 idx=009453 GeodesicLength=0.3333359826119764 rxn_smarts="[O:1]([c+:2]1[n-:3][c:4]([O:5][H:9])[c:6]([H:10])[n:7]1[H:11])[H:8]>>[O:1]([C@@:2]1([H:11])[N:3]=[C:4]([O:5][H:9])[C:6]([H:10])=[N:7]1)[H:8]"
O       -2.24921092       0.61905201       0.24579523
C       -1.05034591       0.13578326      -0.15814655
N        0.05139749       0.93961587      -0.21014478
C        1.05175261       0.13526504       0.10906245
O        2.32546799       0.53352619       0.16499551
C        0.61161240      -1.19264721       0.29062330
N       -0.72129565      -1.18083958       0.17651117
H       -2.26614417       1.55313754       0.01965244
H        2.33350431       1.49207858       0.07878953
H        1.18839980      -2.10419400       0.29856301
H       -1.27513794      -0.93077769      -1.01570131
11
Frame=11 idx=009453 GeodesicLength=0.3668816482237565 rxn_smarts="[O:1]([c+:2]1[n-:3][c:4]([O:5][H:9])[c:6]([H:10])[n:7]1[H:11])[H:8]>>[O:1]([C@@:2]1([H:11])[N:3]=[C:4]([O:5][H:9])[C:6]([H:10])=[N:7]1)[H:8]"
O       -2.24003737       0.62406469       0.25528525
C       -1.04998362       0.13468018      -0.16988978
N        0.05486306       0.93707465      -0.22904176
C        1.05308820       0.13759838       0.10589351
O        2.32553687       0.53794234       0.17652484
C        0.61294125      -1.19150437       0.29088324
N       -0.71845730      -1.17810032       0.17358849
H       -2.25945389       1.55634083       0.02212414
H        2.33232205       1.49670185       0.09228495
H        1.19027251      -2.10293658       0.29335193
H       -1.30109175      -0.95186165      -1.01100482
11
Frame=12 idx=009453 GeodesicLength=0.4005167540030474 rxn_smarts="[O:1]([c+:2]1[n-:3][c:4]([O:5][H:9])[c:6]([H:10])[n:7]1[H:11])[H:8]>>[O:1]([C@@:2]1([H:11])[N:3]=[C:4]([O:5][H:9])[C:6]([H:10])=[N:7]1)[H:8]"
O       -2.22996564       0.62953835       0.26481944
C       -1.04957514       0.13335654      -0.18194071
N        0.05855525       0.93395957      -0.24927958
C        1.05450846       0.13979242       0.10199425
O        2.32518481       0.54286438       0.18913660
C        0.61440159      -1.19049162       0.29070460
N       -0.71551530      -1.17546121       0.17056199
H       -2.25188112       1.55986970       0.02435665
H        2.33028885       1.50182852       0.10679521
H        1.19231059      -2.10176210       0.28739614
H       -1.32831235      -0.97349455      -1.00454460
11
Frame=13 idx=009453 GeodesicLength=0.434201283289782 rxn_smarts="[O:1]([c+:2]1[n-:3][c:4]([O:5][H:9])[c:6]([H:10])[n:7]1[H:11])[H:8]>>[O:1]([C@@:2]1([H:11])[N:3]=[C:4]([O:5][H:9])[C:6]([H:10])=[N:7]1)[H:8]"
O       -2.21917090       0.63527765       0.27415785
C       -1.04913300       0.13184434      -0.19424202
N        0.06243282       0.93040899      -0.27008552
C        1.05595252       0.14194072       0.09801189
O        2.32444214       0.54814227       0.20237787
C        0.61593275      -1.18959523       0.29027381
N       -0.71249418      -1.17298222       0.16711430
H       -2.24360519       1.56359768       0.02639497
H        2.32756205       1.50727946       0.12169690
H        1.19448388      -2.10063073       0.28091403
H       -1.35640289      -0.99528293      -0.99661408
11
Frame=14 idx=009453 GeodesicLength=0.46792522489116134 rxn_smarts="[O:1]([c+:2]1[n-:3][c:4]([O:5][H:9])[c:6]([H:10])[n:7]1[H:11])[H:8]>>[O:1]([C@@:2]1([H:11])[N:3]=[C:4]([O:5][H:9])[C:6]([H:10])=[N:7]1)[H:8]"
O       -2.20784571       0.64107396       0.28311162
C       -1.04865734       0.13020239      -0.20674423
N        0.06645131       0.92658171      -0.29073702
C        1.05733149       0.14411976       0.09453920
O        2.32333113       0.55363257       0.21608741
C        0.61747412      -1.18879428       0.28975175
N       -0.70940560      -1.17071034       0.16292983
H       -2.23482531       1.56739045       0.02832865
H        2.32437774       1.51286666       0.13618017
H        1.19677545      -2.09948599       0.27411745
H       -1.38500728      -1.01687689      -0.98756483
11
Frame=15 idx=009453 GeodesicLength=0.5016680620968879 rxn_smarts="[O:1]([c+:2]1[n-:3][c:4]([O:5][H:9])[c:6]([H:10])[n:7]1[H:11])[H:8]>>[O:1]([C@@:2]1([H:11])[N:3]=[C:4]([O:5][H:9])[C:6]([H:10])=[N:7]1)[H:8]"
O       -2.19608191       0.64682229       0.29162084
C       -1.04815547       0.12845883      -0.21943404
N        0.07059113       0.92256164      -0.31097692
C        1.05862162       0.14635136       0.09166273
O        2.32189051       0.55926087       0.23004962
C        0.61899759      -1.18806992       0.28919878
N       -0.70625363      -1.16866934       0.15786218
H       -2.22564107       1.57117924       0.03020878
H        2.32084893       1.51851981       0.15012694
H        1.19917545      -2.09829574       0.26720073
H       -1.41399314      -1.03811904      -0.97751964
11
Frame=16 idx=009453 GeodesicLength=0.5354219400331646 rxn_smarts="[O:1]([c+:2]1[n-:3][c:4]([O:5][H:9])[c:6]([H:10])[n:7]1[H:11])[H:8]>>[O:1]([C@@:2]1([H:11])[N:3]=[C:4]([O:5][H:9])[C:6]([H:10])=[N:7]1)[H:8]"
O       -2.18396998       0.65241747       0.29965300
C       -1.04763205       0.12664911      -0.23230249
N        0.07483348       0.91843849      -0.33059749
C        1.05979862       0.14865032       0.08942651
O        2.32015800       0.56496026       0.24412206
C        0.62047291      -1.18740252       0.28866320
N       -0.70303982      -1.16688166       0.15176478
H       -2.21614990       1.57489781       0.03210816
H        2.31709833       1.52417466       0.16340359
H        1.20167367      -2.09702958       0.26037339
H       -1.44324325      -1.05887436      -0.96661470
