11
Frame=0 idx=002402 GeodesicLength=0.0 rxn_smarts="[C:1](/[N:2]=[C:3](\[O:4][C:5](=[O:6])[H:11])[H:10])([H:7])([H:8])[H:9]>>[C:1](/[N:2]=[C:3](\[O+:4]=[C-:5][O:6][H:11])[H:10])([H:7])([H:8])[H:9]"
C       -1.59272736       0.14725669      -1.19091376
N       -1.22949272       0.67710217       0.10549186
C       -0.18244018       0.34008807       0.68377472
O        0.69909527      -0.61984497       0.15019563
C        1.92857686      -0.71822610       0.61852197
O        2.35999655       0.13399910       1.47204200
H       -1.74755281       0.98704875      -1.86962569
H       -2.55156057      -0.36423820      -1.09350576
H       -0.86198307      -0.53848062      -1.62346928
H        0.10818591       0.72951774       1.65111997
H        3.06990214      -0.77422268       1.09636830
11
Frame=1 idx=002402 GeodesicLength=0.026512778579567665 rxn_smarts="[C:1](/[N:2]=[C:3](\[O:4][C:5](=[O:6])[H:11])[H:10])([H:7])([H:8])[H:9]>>[C:1](/[N:2]=[C:3](\[O+:4]=[C-:5][O:6][H:11])[H:10])([H:7])([H:8])[H:9]"
C       -1.59606386       0.14458737      -1.18914505
N       -1.23018634       0.67646049       0.10569760
C       -0.18095713       0.34143751       0.68150503
O        0.70443465      -0.61129263       0.14313575
C        1.94686251      -0.68314377       0.58201797
O        2.35583223       0.12405708       1.48586762
H       -1.74945097       0.98302771      -1.86989317
H       -2.55599431      -0.36440561      -1.08940344
H       -0.86756472      -0.54400277      -1.62103438
H        0.11000207       0.73211447       1.64828689
H        3.06308588      -0.79883985       1.12296518
11
Frame=2 idx=002402 GeodesicLength=0.052945455298598176 rxn_smarts="[C:1](/[N:2]=[C:3](\[O:4][C:5](=[O:6])[H:11])[H:10])([H:7])([H:8])[H:9]>>[C:1](/[N:2]=[C:3](\[O+:4]=[C-:5][O:6][H:11])[H:10])([H:7])([H:8])[H:9]"
C       -1.59887615       0.14146383      -1.18730971
N       -1.23272315       0.67304513       0.10758365
C       -0.17863522       0.34485002       0.67872906
O        0.71059058      -0.60119027       0.13661535
C        1.96306058      -0.64948868       0.55112189
O        2.35247298       0.11245964       1.49909354
H       -1.75799106       0.98009439      -1.86652280
H       -2.55592586      -0.37261356      -1.08605628
H       -0.86788809      -0.54273651      -1.62201146
H        0.11506965       0.74279675       1.64174449
H        3.05084572      -0.82868075       1.14701229
11
Frame=3 idx=002402 GeodesicLength=0.07994940627626965 rxn_smarts="[C:1](/[N:2]=[C:3](\[O:4][C:5](=[O:6])[H:11])[H:10])([H:7])([H:8])[H:9]>>[C:1](/[N:2]=[C:3](\[O+:4]=[C-:5][O:6][H:11])[H:10])([H:7])([H:8])[H:9]"
C       -1.60159833       0.13680061      -1.18560006
N       -1.23642762       0.67057378       0.10868220
C       -0.17338309       0.35799050       0.67227650
O        0.71683953      -0.58735461       0.13199247
C        1.97772380      -0.61272746       0.52468496
O        2.34287504       0.08054863       1.53068950
H       -1.77505818       0.97444216      -1.86251885
H       -2.55107130      -0.39042926      -1.08077881
H       -0.86354819      -0.53663388      -1.62519527
H        0.12205374       0.76540396       1.63083840
H        3.04159460      -0.85861443       1.15492897
11
Frame=4 idx=002402 GeodesicLength=0.10671181040820521 rxn_smarts="[C:1](/[N:2]=[C:3](\[O:4][C:5](=[O:6])[H:11])[H:10])([H:7])([H:8])[H:9]>>[C:1](/[N:2]=[C:3](\[O+:4]=[C-:5][O:6][H:11])[H:10])([H:7])([H:8])[H:9]"
C       -1.60509299       0.13233407      -1.18358472
N       -1.23904240       0.66704177       0.11004176
C       -0.16849622       0.36673850       0.66637994
O        0.72872777      -0.56726167       0.11939582
C        1.99259103      -0.58021693       0.50579765
O        2.33579038       0.05731794       1.55327294
H       -1.79076660       0.96949860      -1.85785815
H       -2.54830397      -0.40528657      -1.07506206
H       -0.86212080      -0.53219094      -1.62845160
H        0.12844388       0.78259074       1.62091515
H        3.02826992      -0.89056551       1.16915326
11
Frame=5 idx=002402 GeodesicLength=0.13383934329724428 rxn_smarts="[C:1](/[N:2]=[C:3](\[O:4][C:5](=[O:6])[H:11])[H:10])([H:7])([H:8])[H:9]>>[C:1](/[N:2]=[C:3](\[O+:4]=[C-:5][O:6][H:11])[H:10])([H:7])([H:8])[H:9]"
C       -1.60896180       0.12689700      -1.18131854
N       -1.24214740       0.66311486       0.11145332
C       -0.16141202       0.38079406       0.65774850
O        0.74297246      -0.54149308       0.10409875
C        2.00723484      -0.54774300       0.49213274
O        2.32519376       0.02476300       1.58211049
H       -1.81400144       0.96309919      -1.85118240
H       -2.54185918      -0.42735792      -1.06754788
H       -0.85808304      -0.52308454      -1.63436805
H        0.13708827       0.80677410       1.60739803
H        3.01397556      -0.92576366       1.17947505
11
Frame=6 idx=002402 GeodesicLength=0.16113710942908283 rxn_smarts="[C:1](/[N:2]=[C:3](\[O:4][C:5](=[O:6])[H:11])[H:10])([H:7])([H:8])[H:9]>>[C:1](/[N:2]=[C:3](\[O+:4]=[C-:5][O:6][H:11])[H:10])([H:7])([H:8])[H:9]"
C       -1.61358536       0.12058657      -1.17843588
N       -1.24469745       0.65845493       0.11303566
C       -0.15173792       0.39829955       0.64616997
O        0.76237215      -0.50703345       0.08194398
C        2.02330899      -0.51657961       0.48341730
O        2.31217120      -0.01089973       1.61180945
H       -1.84386904       0.95529665      -1.84194156
H       -2.53277786      -0.45465945      -1.05757208
H       -0.85342612      -0.51044242      -1.64270086
H        0.14734154       0.83323681       1.59166211
H        2.99489986      -0.96625986       1.19261190
11
Frame=7 idx=002402 GeodesicLength=0.18877291329839777 rxn_smarts="[C:1](/[N:2]=[C:3](\[O:4][C:5](=[O:6])[H:11])[H:10])([H:7])([H:8])[H:9]>>[C:1](/[N:2]=[C:3](\[O+:4]=[C-:5][O:6][H:11])[H:10])([H:7])([H:8])[H:9]"
C       -1.61809455       0.11279419      -1.17468148
N       -1.24700033       0.65309648       0.11512802
C       -0.14099316       0.41877127       0.63345829
O        0.78602111      -0.46340350       0.05503891
C        2.04035947      -0.48342168       0.47894383
O        2.29309181      -0.05608582       1.64580589
H       -1.87785818       0.94485374      -1.83061240
H       -2.52051180      -0.48676368      -1.04581495
H       -0.84765861      -0.49570509      -1.65196463
H        0.15997053       0.86627626       1.57259031
H        2.97267371      -1.01041217       1.20210821
11
Frame=8 idx=002402 GeodesicLength=0.21635444983864124 rxn_smarts="[C:1](/[N:2]=[C:3](\[O:4][C:5](=[O:6])[H:11])[H:10])([H:7])([H:8])[H:9]>>[C:1](/[N:2]=[C:3](\[O+:4]=[C-:5][O:6][H:11])[H:10])([H:7])([H:8])[H:9]"
C       -1.62186156       0.10366547      -1.16976174
N       -1.24871113       0.64609774       0.11851193
C       -0.12901919       0.44154278       0.61994580
O        0.81419408      -0.40995797       0.02327576
C        2.05786211      -0.45123066       0.47850091
O        2.26892667      -0.10490777       1.67816605
H       -1.91486839       0.93207874      -1.81623757
H       -2.50432079      -0.52314154      -1.03273434
H       -0.84051163      -0.47849022      -1.66193716
H        0.17439232       0.90339348       1.55143819
H        2.94391750      -1.05905007       1.21083218
11
Frame=9 idx=002402 GeodesicLength=0.24405885369595473 rxn_smarts="[C:1](/[N:2]=[C:3](\[O:4][C:5](=[O:6])[H:11])[H:10])([H:7])([H:8])[H:9]>>[C:1](/[N:2]=[C:3](\[O+:4]=[C-:5][O:6][H:11])[H:10])([H:7])([H:8])[H:9]"
C       -1.62353215       0.09444756      -1.16453288
N       -1.24952177       0.63974308       0.12228828
C       -0.11914371       0.46172077       0.60982500
O        0.84093355      -0.35660880      -0.00511275
C        2.07342683      -0.42054221       0.47959472
O        2.24423599      -0.14916560       1.70298384
H       -1.94404642       0.91847946      -1.80355570
H       -2.48857137      -0.55478439      -1.02101312
H       -0.83346349      -0.46559062      -1.66838627
H        0.18636955       0.93688326       1.53407210
H        2.91331298      -1.10458250       1.21383679
11
Frame=10 idx=002402 GeodesicLength=0.27178548271078257 rxn_smarts="[C:1](/[N:2]=[C:3](\[O:4][C:5](=[O:6])[H:11])[H:10])([H:7])([H:8])[H:9]>>[C:1](/[N:2]=[C:3](\[O+:4]=[C-:5][O:6][H:11])[H:10])([H:7])([H:8])[H:9]"
C       -1.62308688       0.08565257      -1.15946413
N       -1.24911152       0.63639087       0.12503874
C       -0.11112581       0.48056305       0.60242138
O        0.86388367      -0.30749776      -0.02748291
C        2.08650534      -0.39088962       0.48124196
O        2.22133045      -0.18756808       1.72046121
H       -1.96452516       0.90418133      -1.79473265
H       -2.47422581      -0.58037375      -1.00990073
H       -0.82656885      -0.45828633      -1.67076473
H        0.19408629       0.96306363       1.52311285
H        2.88283827      -1.14523592       1.21006901
11
Frame=11 idx=002402 GeodesicLength=0.29963616098471924 rxn_smarts="[C:1](/[N:2]=[C:3](\[O:4][C:5](=[O:6])[H:11])[H:10])([H:7])([H:8])[H:9]>>[C:1](/[N:2]=[C:3](\[O+:4]=[C-:5][O:6][H:11])[H:10])([H:7])([H:8])[H:9]"
C       -1.62133907       0.07701022      -1.15433006
N       -1.24788611       0.63415149       0.12755726
C       -0.10281349       0.50121969       0.59477513
O        0.88509310      -0.26027970      -0.04677449
C        2.09783976      -0.36434163       0.48382134
O        2.19889021      -0.22178978       1.73297885
H       -1.98257555       0.88926465      -1.78671967
H       -2.45887669      -0.60465367      -0.99860941
H       -0.81880739      -0.45191626      -1.67195733
H        0.19970730       0.98527670       1.51566738
H        2.85076791      -1.18394173       1.20359099
11
Frame=12 idx=002402 GeodesicLength=0.3275104540859864 rxn_smarts="[C:1](/[N:2]=[C:3](\[O:4][C:5](=[O:6])[H:11])[H:10])([H:7])([H:8])[H:9]>>[C:1](/[N:2]=[C:3](\[O+:4]=[C-:5][O:6][H:11])[H:10])([H:7])([H:8])[H:9]"
C       -1.61864566       0.06939097      -1.14985123
N       -1.24670798       0.63348407       0.12943335
C       -0.09764595       0.51657682       0.59112075
O        0.90169368      -0.22076660      -0.06007548
C        2.10717843      -0.33895716       0.48637581
O        2.18005266      -0.24995419       1.74074106
H       -1.99193656       0.87601261      -1.78246984
H       -2.44741955      -0.62183524      -0.98945879
H       -0.81202466      -0.45098261      -1.66981162
H        0.20275437       1.00299348       1.51160949
H        2.82270122      -1.21596216       1.19238650
11
Frame=13 idx=002402 GeodesicLength=0.3557559399337345 rxn_smarts="[C:1](/[N:2]=[C:3](\[O:4][C:5](=[O:6])[H:11])[H:10])([H:7])([H:8])[H:9]>>[C:1](/[N:2]=[C:3](\[O+:4]=[C-:5][O:6][H:11])[H:10])([H:7])([H:8])[H:9]"
C       -1.61488003       0.06101925      -1.14481992
N       -1.24461779       0.63448453       0.13079418
C       -0.09125100       0.53626448       0.58602483
O        0.91919945      -0.17759820      -0.07341719
C        2.11593338      -0.31409164       0.49020993
O        2.15872983      -0.27990509       1.74697820
H       -2.00135799       0.86043616      -1.77870352
H       -2.43394320      -0.64024546      -0.97824200
H       -0.80392111      -0.45073100      -1.66662299
H        0.20460805       1.01915897       1.50996933
H        2.79150041      -1.24879200       1.17782915
11
Frame=14 idx=002402 GeodesicLength=0.3841559345562962 rxn_smarts="[C:1](/[N:2]=[C:3](\[O:4][C:5](=[O:6])[H:11])[H:10])([H:7])([H:8])[H:9]>>[C:1](/[N:2]=[C:3](\[O+:4]=[C-:5][O:6][H:11])[H:10])([H:7])([H:8])[H:9]"
C       -1.61031195       0.05271110      -1.13994617
N       -1.24224553       0.63908770       0.13042360
C       -0.08740383       0.55254471       0.58427570
O        0.93487631      -0.13513043      -0.08394403
C        2.12382999      -0.28734991       0.49440366
O        2.13845776      -0.30909167       1.75042501
H       -2.00130671       0.84456666      -1.78053394
H       -2.42560188      -0.65134979      -0.96678840
H       -0.79707161      -0.45924818      -1.65800204
H        0.20308599       1.02984624       1.51297031
H        2.76369147      -1.27658642       1.15671631
11
Frame=15 idx=002402 GeodesicLength=0.4128614444864307 rxn_smarts="[C:1](/[N:2]=[C:3](\[O:4][C:5](=[O:6])[H:11])[H:10])([H:7])([H:8])[H:9]>>[C:1](/[N:2]=[C:3](\[O+:4]=[C-:5][O:6][H:11])[H:10])([H:7])([H:8])[H:9]"
C       -1.60491728       0.04430690      -1.13477904
N       -1.23986254       0.64287804       0.13077735
C       -0.08278630       0.57137959       0.58152353
O        0.94977319      -0.09383279      -0.09291469
C        2.13045029      -0.26342943       0.49976651
O        2.11709231      -0.33770511       1.75210887
H       -2.00352186       0.82818508      -1.78048826
H       -2.41400745      -0.66528960      -0.95526314
H       -0.78818780      -0.46447062      -1.65050411
H        0.20241002       1.04258131       1.51508573
H        2.73355742      -1.30460336       1.13468726
11
Frame=16 idx=002402 GeodesicLength=0.441947809955903 rxn_smarts="[C:1](/[N:2]=[C:3](\[O:4][C:5](=[O:6])[H:11])[H:10])([H:7])([H:8])[H:9]>>[C:1](/[N:2]=[C:3](\[O+:4]=[C-:5][O:6][H:11])[H:10])([H:7])([H:8])[H:9]"
C       -1.59862879       0.03564181      -1.12932358
N       -1.23724522       0.64798737       0.13071523
C       -0.07851596       0.59105720       0.57928815
O        0.96409420      -0.05196542      -0.10052412
C        2.13615811      -0.24012172       0.50589655
O        2.09505843      -0.36637223       1.75179837
H       -2.00346641       0.81080695      -1.78166718
H       -2.40229304      -0.67835921      -0.94303128
H       -0.77843035      -0.47147413      -1.64120353
H        0.20080880       1.05421763       1.51876297
H        2.70246023      -1.33141825       1.10928842
