10
Frame=0 idx=005481 GeodesicLength=0.0 rxn_smarts="[O:1]=[C:2]([C@@:3]1([H:7])[C:4]([H:8])([H:9])[N:5]1[H:10])[H:6]>>[C:3](=[C:4]([H:8])[H:9])([N:5]([H:6])[H:10])[H:7].[O+:1]#[C-:2]"
O        1.43350002      -1.23563078       1.42018593
C        1.30994099      -0.47895168       0.54492838
C        0.10658985      -0.05895045      -0.55707913
C       -1.22664113      -0.39849638      -0.43260809
N        0.14631868       1.30520851      -0.05761875
H        1.49603297       0.80193594       0.47454897
H        0.53516586      -0.14604029      -1.55249751
H       -1.81362484      -0.81543145      -1.24360747
H       -1.71928971      -0.29113352       0.52663904
H       -0.26799268       1.31749009       0.87710862
10
Frame=1 idx=005481 GeodesicLength=0.08161843679890617 rxn_smarts="[O:1]=[C:2]([C@@:3]1([H:7])[C:4]([H:8])([H:9])[N:5]1[H:10])[H:6]>>[C:3](=[C:4]([H:8])[H:9])([N:5]([H:6])[H:10])[H:7].[O+:1]#[C-:2]"
O        1.41944378      -1.22723806       1.44574293
C        1.32603170      -0.49151799       0.54922273
C        0.10988995      -0.06344646      -0.56495456
C       -1.22857155      -0.38285332      -0.43427185
N        0.13212089       1.29649734      -0.06092851
H        1.50185083       0.80781157       0.45940060
H        0.53462387      -0.14073727      -1.56264373
H       -1.81822698      -0.79495038      -1.24555316
H       -1.70731051      -0.31672163       0.53562901
H       -0.26985198       1.31315619       0.87835653
10
Frame=2 idx=005481 GeodesicLength=0.16322888726093354 rxn_smarts="[O:1]=[C:2]([C@@:3]1([H:7])[C:4]([H:8])([H:9])[N:5]1[H:10])[H:6]>>[C:3](=[C:4]([H:8])[H:9])([N:5]([H:6])[H:10])[H:7].[O+:1]#[C-:2]"
O        1.40647482      -1.21893042       1.47017501
C        1.34193610      -0.50437150       0.55425547
C        0.11286240      -0.06781330      -0.57253088
C       -1.23034066      -0.36791130      -0.43519578
N        0.11820485       1.28777126      -0.06402826
H        1.50753554       0.81349819       0.44441878
H        0.53377895      -0.13540298      -1.57238403
H       -1.82257347      -0.77473359      -1.24703754
H       -1.69604256      -0.34137918       0.54288211
H       -0.27183596       1.30927282       0.87944512
10
Frame=3 idx=005481 GeodesicLength=0.24480536058757923 rxn_smarts="[O:1]=[C:2]([C@@:3]1([H:7])[C:4]([H:8])([H:9])[N:5]1[H:10])[H:6]>>[C:3](=[C:4]([H:8])[H:9])([N:5]([H:6])[H:10])[H:7].[O+:1]#[C-:2]"
O        1.39445210      -1.21049648       1.49371795
C        1.35771906      -0.51753263       0.55995373
C        0.11553687      -0.07208361      -0.57985613
C       -1.23193207      -0.35374777      -0.43546854
N        0.10454620       1.27898310      -0.06692726
H        1.51312148       0.81899551       0.42952321
H        0.53264119      -0.13004019      -1.58175447
H       -1.82679332      -0.75450578      -1.24822944
H       -1.68535321      -0.36530242       0.54865317
H       -0.27393830       1.30573027       0.88038777
10
Frame=4 idx=005481 GeodesicLength=0.3264504177392112 rxn_smarts="[O:1]=[C:2]([C@@:3]1([H:7])[C:4]([H:8])([H:9])[N:5]1[H:10])[H:6]>>[C:3](=[C:4]([H:8])[H:9])([N:5]([H:6])[H:10])[H:7].[O+:1]#[C-:2]"
O        1.38317121      -1.20206145       1.51651184
C        1.37344657      -0.53096256       0.56630066
C        0.11795278      -0.07621675      -0.58698947
C       -1.23333689      -0.34028160      -0.43514848
N        0.09111065       1.27018351      -0.06969093
H        1.51863219       0.82433842       0.41463851
H        0.53127484      -0.12462162      -1.59082708
H       -1.83088013      -0.73420330      -1.24907460
H       -1.67516808      -0.38871197       0.55315862
H       -0.27620313       1.30253733       0.88112092
10
Frame=5 idx=005481 GeodesicLength=0.40800579018127 rxn_smarts="[O:1]=[C:2]([C@@:3]1([H:7])[C:4]([H:8])([H:9])[N:5]1[H:10])[H:6]>>[C:3](=[C:4]([H:8])[H:9])([N:5]([H:6])[H:10])[H:7].[O+:1]#[C-:2]"
O        1.37275300      -1.19363044       1.53861470
C        1.38902766      -0.54469858       0.57325851
C        0.12011284      -0.08020221      -0.59398388
C       -1.23458892      -0.32757565      -0.43433795
N        0.07792859       1.26138026      -0.07225480
H        1.52404798       0.82955735       0.39984454
H        0.52966492      -0.11910087      -1.59966473
H       -1.83488993      -0.71405460      -1.24964624
H       -1.66548749      -0.41134867       0.55642865
H       -0.27856863       1.29967340       0.88174120
10
Frame=6 idx=005481 GeodesicLength=0.4895784672000178 rxn_smarts="[O:1]=[C:2]([C@@:3]1([H:7])[C:4]([H:8])([H:9])[N:5]1[H:10])[H:6]>>[C:3](=[C:4]([H:8])[H:9])([N:5]([H:6])[H:10])[H:7].[O+:1]#[C-:2]"
O        1.36285953      -1.18519584       1.56002910
C        1.40460726      -0.55873476       0.58077820
C        0.12205654      -0.08402130      -0.60083216
C       -1.23561151      -0.31549540      -0.43304057
N        0.06493948       1.25258585      -0.07469775
H        1.52937629       0.83462713       0.38501429
H        0.52784409      -0.11346580      -1.60822980
H       -1.83868706      -0.69392638      -1.24987830
H       -1.65627879      -0.43348302       0.55870243
H       -0.28110584       1.29710952       0.88215455
10
Frame=7 idx=005481 GeodesicLength=0.57123536984264 rxn_smarts="[O:1]=[C:2]([C@@:3]1([H:7])[C:4]([H:8])([H:9])[N:5]1[H:10])[H:6]>>[C:3](=[C:4]([H:8])[H:9])([N:5]([H:6])[H:10])[H:7].[O+:1]#[C-:2]"
O        1.35356338      -1.17673793       1.58097373
C        1.42017363      -0.57310523       0.58887425
C        0.12378679      -0.08765134      -0.60762127
C       -1.23652282      -0.30406268      -0.43136682
N        0.05218645       1.24382540      -0.07699958
H        1.53470839       0.83958600       0.37018093
H        0.52582524      -0.10765120      -1.61666897
H       -1.84244737      -0.67391562      -1.24988151
H       -1.64751234      -0.45511421       0.56006247
H       -0.28376135       1.29482680       0.88244676
10
Frame=8 idx=005481 GeodesicLength=0.6527832184995639 rxn_smarts="[O:1]=[C:2]([C@@:3]1([H:7])[C:4]([H:8])([H:9])[N:5]1[H:10])[H:6]>>[C:3](=[C:4]([H:8])[H:9])([N:5]([H:6])[H:10])[H:7].[O+:1]#[C-:2]"
O        1.34469426      -1.16820519       1.60144626
C        1.43561300      -0.58785791       0.59747231
C        0.12530368      -0.09107454      -0.61437071
C       -1.23728236      -0.29320257      -0.42935727
N        0.03964442       1.23510019      -0.07912899
H        1.53995481       0.84440402       0.35530775
H        0.52358751      -0.10164480      -1.62494127
H       -1.84606918      -0.65404947      -1.24958512
H       -1.63892297      -0.47628271       0.56056309
H       -0.28652317       1.29281296       0.88259395
10
Frame=9 idx=005481 GeodesicLength=0.7343951721475617 rxn_smarts="[O:1]=[C:2]([C@@:3]1([H:7])[C:4]([H:8])([H:9])[N:5]1[H:10])[H:6]>>[C:3](=[C:4]([H:8])[H:9])([N:5]([H:6])[H:10])[H:7].[O+:1]#[C-:2]"
O        1.33638395      -1.15973121       1.62145101
C        1.45104982      -0.60298029       0.60663815
C        0.12663916      -0.09427468      -0.62109683
C       -1.23793050      -0.28291169      -0.42703785
N        0.02731268       1.22643557      -0.08113579
H        1.54520029       0.84913404       0.34043430
H        0.52117834      -0.09540844      -1.63311713
H       -1.84959496      -0.63446818      -1.24901311
H       -1.63081636      -0.49686576       0.56025832
H       -0.28942242       1.29107064       0.88261893
10
Frame=10 idx=005481 GeodesicLength=0.8159922052189851 rxn_smarts="[O:1]=[C:2]([C@@:3]1([H:7])[C:4]([H:8])([H:9])[N:5]1[H:10])[H:6]>>[C:3](=[C:4]([H:8])[H:9])([N:5]([H:6])[H:10])[H:7].[O+:1]#[C-:2]"
O        1.32835224      -1.15121199       1.64101343
C        1.46647650      -0.61850870       0.61630995
C        0.12779409      -0.09724463      -0.62780780
C       -1.23841603      -0.27311410      -0.42443914
N        0.01518684       1.21784086      -0.08301640
H        1.55041540       0.85376104       0.32547435
H        0.51856658      -0.08893309      -1.64117078
H       -1.85295499      -0.61510092      -1.24814648
H       -1.62298372      -0.51706933       0.55927792
H       -0.29243691       1.28958085       0.88250495
10
Frame=11 idx=005481 GeodesicLength=0.8976488384992184 rxn_smarts="[O:1]=[C:2]([C@@:3]1([H:7])[C:4]([H:8])([H:9])[N:5]1[H:10])[H:6]>>[C:3](=[C:4]([H:8])[H:9])([N:5]([H:6])[H:10])[H:7].[O+:1]#[C-:2]"
O        1.32067254      -1.14265264       1.66025069
C        1.48189422      -0.63448130       0.62652358
C        0.12878022      -0.09996847      -0.63455020
C       -1.23880543      -0.26379615      -0.42160665
N        0.00326008       1.20932271      -0.08477843
H        1.55564923       0.85829794       0.31043183
H        0.51577831      -0.08217911      -1.64917690
H       -1.85624087      -0.59597724      -1.24701797
H       -1.61541550      -0.53689311       0.55764882
H       -0.29557280       1.28832737       0.88227523
10
Frame=12 idx=005481 GeodesicLength=0.9792391182554575 rxn_smarts="[O:1]=[C:2]([C@@:3]1([H:7])[C:4]([H:8])([H:9])[N:5]1[H:10])[H:6]>>[C:3](=[C:4]([H:8])[H:9])([N:5]([H:6])[H:10])[H:7].[O+:1]#[C-:2]"
O        1.31331247      -1.13408553       1.67912715
C        1.49723226      -0.65087827       0.63731729
C        0.12960700      -0.10243933      -0.64134052
C       -1.23910624      -0.25492030      -0.41853681
N       -0.00845166       1.20089249      -0.08642228
H        1.56088877       0.86277097       0.29530601
H        0.51281499      -0.07514704      -1.65714329
H       -1.85943784      -0.57714061      -1.24559356
H       -1.60807116      -0.55638141       0.55537169
H       -0.29878857       1.28732902       0.88191432
10
Frame=13 idx=005481 GeodesicLength=1.0608957669062224 rxn_smarts="[O:1]=[C:2]([C@@:3]1([H:7])[C:4]([H:8])([H:9])[N:5]1[H:10])[H:6]>>[C:3](=[C:4]([H:8])[H:9])([N:5]([H:6])[H:10])[H:7].[O+:1]#[C-:2]"
O        1.30616122      -1.12529121       1.69781933
C        1.51256217      -0.66785669       0.64859017
C        0.13026267      -0.10465319      -0.64819145
C       -1.23928797      -0.24648816      -0.41532321
N       -0.02000839       1.19250904      -0.08792865
H        1.56613973       0.86712250       0.28001715
H        0.50963418      -0.06778325      -1.66505998
H       -1.86255618      -0.55845363      -1.24394131
H       -1.60076409      -0.57558304       0.55256705
H       -0.30214335       1.28647763       0.88145091
10
Frame=14 idx=005481 GeodesicLength=1.1425558149975332 rxn_smarts="[O:1]=[C:2]([C@@:3]1([H:7])[C:4]([H:8])([H:9])[N:5]1[H:10])[H:6]>>[C:3](=[C:4]([H:8])[H:9])([N:5]([H:6])[H:10])[H:7].[O+:1]#[C-:2]"
O        1.29927219      -1.11645445       1.71620277
C        1.52786780      -0.68535113       0.66045199
C        0.13077486      -0.10660039      -0.65511483
C       -1.23937246      -0.23846415      -0.41192063
N       -0.03136638       1.18422881      -0.08933524
H        1.57142258       0.87143816       0.26460351
H        0.50627369      -0.06009680      -1.67297053
H       -1.86558362      -0.54008437      -1.24200955
H       -1.59369026      -0.59447214       0.54921202
H       -0.30559840       1.28585646       0.88088049
10
Frame=15 idx=005481 GeodesicLength=1.2242176401918636 rxn_smarts="[O:1]=[C:2]([C@@:3]1([H:7])[C:4]([H:8])([H:9])[N:5]1[H:10])[H:6]>>[C:3](=[C:4]([H:8])[H:9])([N:5]([H:6])[H:10])[H:7].[O+:1]#[C-:2]"
O        1.29262249      -1.10756459       1.73430434
C        1.54312877      -0.70342366       0.67289297
C        0.13114522      -0.10826120      -0.66212726
C       -1.23936507      -0.23081355      -0.40835990
N       -0.04254735       1.17605439      -0.09063778
H        1.57672730       0.87571891       0.24905903
H        0.50272610      -0.05205452      -1.68088048
H       -1.86850343      -0.52209207      -1.23978972
H       -1.58677388      -0.61301607       0.54533831
H       -0.30916015       1.28545237       0.88020047
10
Frame=16 idx=005481 GeodesicLength=1.3058798058381775 rxn_smarts="[O:1]=[C:2]([C@@:3]1([H:7])[C:4]([H:8])([H:9])[N:5]1[H:10])[H:6]>>[C:3](=[C:4]([H:8])[H:9])([N:5]([H:6])[H:10])[H:7].[O+:1]#[C-:2]"
O        1.28619123      -1.09863192       1.75213222
C        1.55834036      -0.72212233       0.68591892
C        0.13137731      -0.10961733      -0.66924408
C       -1.23927024      -0.22351008      -0.40466464
N       -0.05355817       1.16799704      -0.09184036
H        1.58205742       0.87998547       0.23338095
H        0.49898892      -0.04362828      -1.68880496
H       -1.87130556      -0.50454709      -1.23728644
H       -1.57999382      -0.63118956       0.54099266
H       -0.31282744       1.28526408       0.87941572
