14
Frame=0 idx=005508 GeodesicLength=0.0 rxn_smarts="[C:1]([C:2]1([O:3][H:10])[C:4]([H:11])([H:12])[O:5][C:6]1([H:13])[H:14])([H:7])([H:8])[H:9]>>[C:1]1([H:8])([H:9])[C:2]([O:3][H:10])([C:4]([O:5][H:7])([H:11])[H:12])[C:6]1([H:13])[H:14]"
C        1.47090804       0.22499097      -0.13446959
C        0.20144632      -0.18669120       0.46488677
O        0.21396243      -0.83602641       1.72653508
C       -0.62587714      -0.86633404      -0.63818359
O       -0.82373756       0.35060993      -1.40710781
C       -0.57435156       1.09696323       0.37345325
H        0.14289949       0.61345930      -1.53176155
H        2.11108179      -0.55824413      -0.53450557
H        1.98350553       1.05206939       0.34580349
H       -0.65231097      -1.21732770       1.90466658
H       -1.61349977      -1.20144744      -0.31369502
H       -0.12574590      -1.64139970      -1.21747644
H       -1.65240115       1.12369435       0.51485215
H       -0.05587949       2.04568343       0.44700222
14
Frame=1 idx=005508 GeodesicLength=0.09634553499983699 rxn_smarts="[C:1]([C:2]1([O:3][H:10])[C:4]([H:11])([H:12])[O:5][C:6]1([H:13])[H:14])([H:7])([H:8])[H:9]>>[C:1]1([H:8])([H:9])[C:2]([O:3][H:10])([C:4]([O:5][H:7])([H:11])[H:12])[C:6]1([H:13])[H:14]"
C        1.46098342       0.24005267      -0.13791072
C        0.19685502      -0.19456477       0.46080787
O        0.22016033      -0.84107319       1.72106510
C       -0.63441946      -0.87296685      -0.63952920
O       -0.82452090       0.34092169      -1.41309091
C       -0.56693886       1.09586322       0.36790771
H        0.16471193       0.60265791      -1.54336749
H        2.10481923      -0.52913449      -0.55809980
H        1.98369860       1.04124502       0.37451519
H       -0.65090327      -1.20279752       1.91503090
H       -1.62014646      -1.20869585      -0.30998993
H       -0.13411271      -1.65204486      -1.21373424
H       -1.64502884       1.13501764       0.50549777
H       -0.05515802       2.04551939       0.47089777
14
Frame=2 idx=005508 GeodesicLength=0.19249304411856433 rxn_smarts="[C:1]([C:2]1([O:3][H:10])[C:4]([H:11])([H:12])[O:5][C:6]1([H:13])[H:14])([H:7])([H:8])[H:9]>>[C:1]1([H:8])([H:9])[C:2]([O:3][H:10])([C:4]([O:5][H:7])([H:11])[H:12])[C:6]1([H:13])[H:14]"
C        1.45104003       0.25502307      -0.14107199
C        0.19227747      -0.20211799       0.45666679
O        0.22617756      -0.84597704       1.71541463
C       -0.64288389      -0.87937923      -0.64092426
O       -0.82559398       0.33136223      -1.41903678
C       -0.55961674       1.09496673       0.36231371
H        0.18710212       0.59175559      -1.55494519
H        2.09833406      -0.50010157      -0.58037875
H        1.98370076       1.02973758       0.40133839
H       -0.64900017      -1.18795548       1.92518635
H       -1.62658860      -1.21597293      -0.30627735
H       -0.14234860      -1.66233743      -1.21011195
H       -1.63762526       1.14626557       0.49603558
H       -0.05497475       2.04473091       0.49579083
14
Frame=3 idx=005508 GeodesicLength=0.28853358775210713 rxn_smarts="[C:1]([C:2]1([O:3][H:10])[C:4]([H:11])([H:12])[O:5][C:6]1([H:13])[H:14])([H:7])([H:8])[H:9]>>[C:1]1([H:8])([H:9])[C:2]([O:3][H:10])([C:4]([O:5][H:7])([H:11])[H:12])[C:6]1([H:13])[H:14]"
C        1.44108081       0.26989040      -0.14398841
C        0.18771010      -0.20934659       0.45245900
O        0.23202262      -0.85073458       1.70958073
C       -0.65128433      -0.88556344      -0.64236735
O       -0.82698990       0.32195103      -1.42493023
C       -0.55238352       1.09428509       0.35668286
H        0.21012498       0.58075312      -1.56646784
H        2.09167155      -0.47124423      -0.60131500
H        1.98351993       1.01766104       0.42629790
H       -0.64659100      -1.17281118       1.93512534
H       -1.63283420      -1.22327273      -0.30254638
H       -0.15047993      -1.67226726      -1.20662522
H       -1.63019677       1.15744193       0.48649045
H       -0.05537033       2.04325741       0.52160414
14
Frame=4 idx=005508 GeodesicLength=0.3845422148284403 rxn_smarts="[C:1]([C:2]1([O:3][H:10])[C:4]([H:11])([H:12])[O:5][C:6]1([H:13])[H:14])([H:7])([H:8])[H:9]>>[C:1]1([H:8])([H:9])[C:2]([O:3][H:10])([C:4]([O:5][H:7])([H:11])[H:12])[C:6]1([H:13])[H:14]"
C        1.43110832       0.28464632      -0.14668663
C        0.18314888      -0.21624657       0.44818201
O        0.23770388      -0.85534107       1.70356344
C       -0.65963512      -0.89150955      -0.64385629
O       -0.82874420       0.31271018      -1.43075327
C       -0.54523894       1.09382989       0.35103241
H        0.23383659       0.56965446      -1.57790606
H        2.08487686      -0.44265900      -0.62087622
H        1.98316062       1.00511922       0.44941310
H       -0.64366043      -1.15739146       1.94483424
H       -1.63889111      -1.23058848      -0.29878490
H       -0.15853199      -1.68182218      -1.20329011
H       -1.62275021       1.16855182       0.47689256
H       -0.05638315       2.04104643       0.54823572
14
Frame=5 idx=005508 GeodesicLength=0.48054508668658424 rxn_smarts="[C:1]([C:2]1([O:3][H:10])[C:4]([H:11])([H:12])[O:5][C:6]1([H:13])[H:14])([H:7])([H:8])[H:9]>>[C:1]1([H:8])([H:9])[C:2]([O:3][H:10])([C:4]([O:5][H:7])([H:11])[H:12])[C:6]1([H:13])[H:14]"
C        1.42112738       0.29928559      -0.14919495
C        0.17858811      -0.22281638       0.44383499
O        0.24322907      -0.85979899       1.69736075
C       -0.66795089      -0.89720868      -0.64538839
O       -0.83089385       0.30366595      -1.43648416
C       -0.53818262       1.09360825       0.34538483
H        0.25828410       0.55845890      -1.58922963
H        2.07800311      -0.41443975      -0.63904337
H        1.98262177       0.99221425       0.47072402
H       -0.64019537      -1.14171955       1.95430486
H       -1.64476576      -1.23791571      -0.29498336
H       -0.16652885      -1.69098756      -1.20012531
H       -1.61529337       1.17959961       0.46727761
H       -0.05804283       2.03805406       0.57556210
14
Frame=6 idx=005508 GeodesicLength=0.5766285267476304 rxn_smarts="[C:1]([C:2]1([O:3][H:10])[C:4]([H:11])([H:12])[O:5][C:6]1([H:13])[H:14])([H:7])([H:8])[H:9]>>[C:1]1([H:8])([H:9])[C:2]([O:3][H:10])([C:4]([O:5][H:7])([H:11])[H:12])[C:6]1([H:13])[H:14]"
C        1.41114065       0.31379974      -0.15153593
C        0.17402265      -0.22905522       0.43941480
O        0.24860879      -0.86411048       1.69097003
C       -0.67624746      -0.90265028      -0.64696311
O       -0.83349327       0.29484292      -1.44209617
C       -0.53121621       1.09362811       0.33976285
H        0.28352800       0.54717253      -1.60040404
H        2.07109990      -0.38667452      -0.65578657
H        1.98190309       0.97903637       0.49027430
H       -0.63617735      -1.12582844       1.96352549
H       -1.65046257      -1.24525628      -0.29112797
H       -0.17449513      -1.69974379      -1.19715632
H       -1.60783422       1.19059033       0.45769163
H       -0.06037685       2.03424900       0.60343101
14
Frame=7 idx=005508 GeodesicLength=0.6728104703337836 rxn_smarts="[C:1]([C:2]1([O:3][H:10])[C:4]([H:11])([H:12])[O:5][C:6]1([H:13])[H:14])([H:7])([H:8])[H:9]>>[C:1]1([H:8])([H:9])[C:2]([O:3][H:10])([C:4]([O:5][H:7])([H:11])[H:12])[C:6]1([H:13])[H:14]"
C        1.40114889       0.32818796      -0.15373692
C        0.16944597      -0.23496358       0.43492192
O        0.25385086      -0.86828071       1.68438964
C       -0.68454036      -0.90782510      -0.64857719
O       -0.83659248       0.28627210      -1.44755866
C       -0.52434142       1.09389394       0.33419578
H        0.30961839       0.53579599      -1.61139533
H        2.06421809      -0.35945782      -0.67108868
H        1.98099855       0.96567676       0.50812491
H       -0.63158691      -1.10975877       1.97248493
H       -1.65598446      -1.25261350      -0.28720880
H       -0.18245064      -1.70807057      -1.19440756
H       -1.60038039       1.20152876       0.44818379
H       -0.06340409       2.02961454       0.63167217
14
Frame=8 idx=005508 GeodesicLength=0.7691290565946693 rxn_smarts="[C:1]([C:2]1([O:3][H:10])[C:4]([H:11])([H:12])[O:5][C:6]1([H:13])[H:14])([H:7])([H:8])[H:9]>>[C:1]1([H:8])([H:9])[C:2]([O:3][H:10])([C:4]([O:5][H:7])([H:11])[H:12])[C:6]1([H:13])[H:14]"
C        1.39115559       0.34244356      -0.15580978
C        0.16485055      -0.24054591       0.43035397
O        0.25896670      -0.87231935       1.67761847
C       -0.69284523      -0.91272586      -0.65023196
O       -0.84025606       0.27798032      -1.45284503
C       -0.51756518       1.09440579       0.32871118
H        0.33661149       0.52433810      -1.62215778
H        2.05740573      -0.33286588      -0.68491822
H        1.97990252       0.95221236       0.52431694
H       -0.62640782      -1.09355106       1.98117634
H       -1.66133121      -1.25999769      -0.28321367
H       -0.19041432      -1.71594654      -1.19191361
H       -1.59294487       1.21241953       0.43880926
H       -0.06712790       2.02415263       0.66010390
14
Frame=9 idx=005508 GeodesicLength=0.8658102191802731 rxn_smarts="[C:1]([C:2]1([O:3][H:10])[C:4]([H:11])([H:12])[O:5][C:6]1([H:13])[H:14])([H:7])([H:8])[H:9]>>[C:1]1([H:8])([H:9])[C:2]([O:3][H:10])([C:4]([O:5][H:7])([H:11])[H:12])[C:6]1([H:13])[H:14]"
C        1.38116090       0.35655712      -0.15782183
C        0.16022138      -0.24582035       0.42569491
O        0.26397205      -0.87623841       1.67063410
C       -0.70118528      -0.91735988      -0.65193580
O       -0.84465428       0.26996951      -1.45787469
C       -0.51087334       1.09515511       0.32330434
H        0.36455063       0.51271554      -1.63273204
H        2.05071038      -0.30691338      -0.69727374
H        1.97857829       0.93875405       0.53911559
H       -0.62065457      -1.07722798       1.98957633
H       -1.66647653      -1.26748208      -0.27913475
H       -0.19841144      -1.72332903      -1.18973838
H       -1.58550236       1.22327942       0.42966614
H       -0.07143583       2.01794035       0.68851982
14
Frame=10 idx=005508 GeodesicLength=0.9626210809855867 rxn_smarts="[C:1]([C:2]1([O:3][H:10])[C:4]([H:11])([H:12])[O:5][C:6]1([H:13])[H:14])([H:7])([H:8])[H:9]>>[C:1]1([H:8])([H:9])[C:2]([O:3][H:10])([C:4]([O:5][H:7])([H:11])[H:12])[C:6]1([H:13])[H:14]"
C        1.37116635       0.37052650      -0.15975600
C        0.15555600      -0.25078078       0.42095598
O        0.26887629      -0.88004311       1.66344713
C       -0.70957185      -0.92171173      -0.65367893
O       -0.84975640       0.26229223      -1.46265334
C       -0.50429271       1.09614133       0.31802988
H        0.39350306       0.50100216      -1.64300811
H        2.04418263      -0.28175288      -0.70813280
H        1.97702729       0.92537088       0.55241340
H       -0.61428482      -1.06085059       1.99768914
H       -1.67144288      -1.27503244      -0.27496247
H       -0.20645352      -1.73021479      -1.18788807
H       -1.57809698       1.23409485       0.42077517
H       -0.07641249       2.01095837       0.71676902
14
Frame=11 idx=005508 GeodesicLength=1.0595315746439562 rxn_smarts="[C:1]([C:2]1([O:3][H:10])[C:4]([H:11])([H:12])[O:5][C:6]1([H:13])[H:14])([H:7])([H:8])[H:9]>>[C:1]1([H:8])([H:9])[C:2]([O:3][H:10])([C:4]([O:5][H:7])([H:11])[H:12])[C:6]1([H:13])[H:14]"
C        1.36117245       0.38434286      -0.16164016
C        0.15084514      -0.25543581       0.41613481
O        0.27368775      -0.88374156       1.65605041
C       -0.71802207      -0.92578126      -0.65546038
O       -0.85563337       0.25497399      -1.46713997
C       -0.49783105       1.09735609       0.31291036
H        0.42352476       0.48919386      -1.65295288
H        2.03787651      -0.25746812      -0.71749216
H        1.97521550       0.91215658       0.56429077
H       -0.60728613      -1.04446149       2.00550492
H       -1.67622729      -1.28267552      -0.27069021
H       -0.21455654      -1.73658099      -1.18639711
H       -1.57074035       1.24486627       0.41219797
H       -0.08202533       2.00325510       0.74468363
14
Frame=12 idx=005508 GeodesicLength=1.156511553008544 rxn_smarts="[C:1]([C:2]1([O:3][H:10])[C:4]([H:11])([H:12])[O:5][C:6]1([H:13])[H:14])([H:7])([H:8])[H:9]>>[C:1]1([H:8])([H:9])[C:2]([O:3][H:10])([C:4]([O:5][H:7])([H:11])[H:12])[C:6]1([H:13])[H:14]"
C        1.35117808       0.39799744      -0.16349623
C        0.14607977      -0.25979447       0.41122754
O        0.27841980      -0.88733989       1.64843871
C       -0.72655295      -0.92956973      -0.65727989
O       -0.86236362       0.24803821      -1.47129634
C       -0.49149777       1.09879057       0.30796484
H        0.45467927       0.47728721      -1.66252378
H        2.03183655      -0.23413509      -0.72533980
H        1.97311030       0.89919782       0.57480940
H       -0.59965344      -1.02810763       2.01301196
H       -1.68082269      -1.29044116      -0.26631003
H       -0.22273470      -1.74240707      -1.18530555
H       -1.56344191       1.25559289       0.40399740
H       -0.08823668       1.99489089       0.77210177
14
Frame=13 idx=005508 GeodesicLength=1.2535165941294697 rxn_smarts="[C:1]([C:2]1([O:3][H:10])[C:4]([H:11])([H:12])[O:5][C:6]1([H:13])[H:14])([H:7])([H:8])[H:9]>>[C:1]1([H:8])([H:9])[C:2]([O:3][H:10])([C:4]([O:5][H:7])([H:11])[H:12])[C:6]1([H:13])[H:14]"
C        1.34118290       0.41148050      -0.16535542
C        0.14124805      -0.26386632       0.40622671
O        0.28308388      -0.89084480       1.64060146
C       -0.73518332      -0.93308254      -0.65913837
O       -0.87003904       0.24150908      -1.47508292
C       -0.48530112       1.10043501       0.30320519
H        0.48702652       0.46526826      -1.67168670
H        2.02611423      -0.21182981      -0.73166945
H        1.97067288       0.88658555       0.58405925
H       -0.59137786      -1.01182726       2.02020088
H       -1.68522003      -1.29836923      -0.26181481
H       -0.23099979      -1.74767098      -1.18465848
H       -1.55621499       1.26627444       0.39623911
H       -0.09499232       1.98593808       0.79887356
14
Frame=14 idx=005508 GeodesicLength=1.3504778407157159 rxn_smarts="[C:1]([C:2]1([O:3][H:10])[C:4]([H:11])([H:12])[O:5][C:6]1([H:13])[H:14])([H:7])([H:8])[H:9]>>[C:1]1([H:8])([H:9])[C:2]([O:3][H:10])([C:4]([O:5][H:7])([H:11])[H:12])[C:6]1([H:13])[H:14]"
C        1.33118069       0.42478566      -0.16725490
C        0.13633805      -0.26766336       0.40112235
O        0.28769341      -0.89426146       1.63252777
C       -0.74393341      -0.93632706      -0.66103833
O       -0.87875102       0.23540427      -1.47846274
C       -0.47924899       1.10227878       0.29863489
H        0.52062528       0.45311418      -1.68041103
H        2.02075341      -0.19061161      -0.73646890
H        1.96786587       0.87440736       0.59212914
H       -0.58245245      -0.99565658       2.02706083
H       -1.68941144      -1.30650140      -0.25719691
H       -0.23936466      -1.75235410      -1.18450025
H       -1.54906790       1.27690976       0.38898012
H       -0.10222683       1.97647556       0.82487794
14
Frame=15 idx=005508 GeodesicLength=1.4473255350450582 rxn_smarts="[C:1]([C:2]1([O:3][H:10])[C:4]([H:11])([H:12])[O:5][C:6]1([H:13])[H:14])([H:7])([H:8])[H:9]>>[C:1]1([H:8])([H:9])[C:2]([O:3][H:10])([C:4]([O:5][H:7])([H:11])[H:12])[C:6]1([H:13])[H:14]"
C        1.32116749       0.43790583      -0.16923489
C        0.13133575      -0.27119624       0.39590163
O        0.29225736      -0.89759231       1.62420345
C       -0.75282356      -0.93931341      -0.66298306
O       -0.88860565       0.22974350      -1.48139617
C       -0.47334660       1.10431219       0.29425038
H        0.55553766       0.44078671      -1.68866965
H        2.01580147      -0.17053780      -0.73972408
H        1.96464446       0.86275353       0.59910800
H       -0.57287263      -0.97962176       2.03358038
H       -1.69338298      -1.31488933      -0.25245068
H       -0.24783853      -1.75643500      -1.18488269
H       -1.54200912       1.28749788       0.38228076
H       -0.10986513       1.96658619       0.85001661
14
Frame=16 idx=005508 GeodesicLength=1.5439810898277047 rxn_smarts="[C:1]([C:2]1([O:3][H:10])[C:4]([H:11])([H:12])[O:5][C:6]1([H:13])[H:14])([H:7])([H:8])[H:9]>>[C:1]1([H:8])([H:9])[C:2]([O:3][H:10])([C:4]([O:5][H:7])([H:11])[H:12])[C:6]1([H:13])[H:14]"
C        1.31113951       0.45083195      -0.17133750
C        0.12622743      -0.27447707       0.39054819
O        0.29678575      -0.90083918       1.61561214
C       -0.76187602      -0.94205397      -0.66497732
O       -0.89971893       0.22454338      -1.48384413
C       -0.46759653       1.10652598       0.29004013
H        0.59182787       0.42823818      -1.69643916
H        2.01130822      -0.15165675      -0.74141570
H        1.96095933       0.85171954       0.60508741
H       -0.56263558      -0.96374309       2.03974628
H       -1.69711882      -1.32358749      -0.24756877
H       -0.25643270      -1.75989335      -1.18586266
H       -1.53504523       1.29803917       0.37619991
H       -0.11782429       1.95635271       0.87421118
