14
Frame=0 idx=004320 GeodesicLength=0.0 rxn_smarts="[C:1]([C@@:2]1([C:3]([O:4][H:12])([H:10])[H:11])[C:5]([H:13])([H:14])[O:6]1)([H:7])([H:8])[H:9]>>[C:1]([C:2]1([O:6][H:12])[C:3]([H:10])([H:11])[O:4][C:5]1([H:13])[H:14])([H:7])([H:8])[H:9]"
C       -1.54363252      -0.52501273       0.18400225
C       -0.14836308       0.01918752       0.12897163
C        1.05629617      -0.80701366      -0.31031042
O        2.07078021       0.09785163      -0.06778902
C        0.14757551       1.30390356      -0.52079599
O        0.26395212       0.61368570       1.37573342
H       -1.58618484      -1.31900765       0.93052634
H       -1.82909108      -0.94031266      -0.78405350
H       -2.26318161       0.24590958       0.46352099
H        0.93541942      -1.07853472      -1.37373288
H        1.15638254      -1.74221985       0.26539098
H        1.27487204       0.53677492       1.20420839
H       -0.40874655       2.17326624      -0.18599494
H        0.87392165       1.42152218      -1.30967725
14
Frame=1 idx=004320 GeodesicLength=0.07565969331036562 rxn_smarts="[C:1]([C@@:2]1([C:3]([O:4][H:12])([H:10])[H:11])[C:5]([H:13])([H:14])[O:6]1)([H:7])([H:8])[H:9]>>[C:1]([C:2]1([O:6][H:12])[C:3]([H:10])([H:11])[O:4][C:5]1([H:13])[H:14])([H:7])([H:8])[H:9]"
C       -1.54402243      -0.52578406       0.17829094
C       -0.14885655       0.01705663       0.13604660
C        1.05364345      -0.80965488      -0.30894194
O        2.06287081       0.10923995      -0.08190246
C        0.15395942       1.30363456      -0.50829452
O        0.26019267       0.61721927       1.37908497
H       -1.59144568      -1.32474241       0.91929293
H       -1.82247865      -0.93328677      -0.79511617
H       -2.26306093       0.24519460       0.45879292
H        0.92848177      -1.09620045      -1.36688466
H        1.16707302      -1.73461841       0.27993409
H        1.28928504       0.53096033       1.21244199
H       -0.39211442       2.18049391      -0.17529444
H        0.84647249       1.42048772      -1.32745024
14
Frame=2 idx=004320 GeodesicLength=0.15134285056778768 rxn_smarts="[C:1]([C@@:2]1([C:3]([O:4][H:12])([H:10])[H:11])[C:5]([H:13])([H:14])[O:6]1)([H:7])([H:8])[H:9]>>[C:1]([C:2]1([O:6][H:12])[C:3]([H:10])([H:11])[O:4][C:5]1([H:13])[H:14])([H:7])([H:8])[H:9]"
C       -1.54435350      -0.52649452       0.17254842
C       -0.14935729       0.01492193       0.14309222
C        1.05095085      -0.81239936      -0.30751236
O        2.05478756       0.12016800      -0.09580653
C        0.16033835       1.30317271      -0.49621702
O        0.25642619       0.62089905       1.38230842
H       -1.59665720      -1.33033359       0.90801327
H       -1.81573571      -0.92623528      -0.80607628
H       -2.26288758       0.24456392       0.45395899
H        0.92183378      -1.11388763      -1.35978384
H        1.17763779      -1.72690966       0.29413839
H        1.30412195       0.52533058       1.22014151
H       -0.37535396       2.18744422      -0.16499723
H        0.81824877       1.41975962      -1.34380796
14
Frame=3 idx=004320 GeodesicLength=0.22703379644445998 rxn_smarts="[C:1]([C@@:2]1([C:3]([O:4][H:12])([H:10])[H:11])[C:5]([H:13])([H:14])[O:6]1)([H:7])([H:8])[H:9]>>[C:1]([C:2]1([O:6][H:12])[C:3]([H:10])([H:11])[O:4][C:5]1([H:13])[H:14])([H:7])([H:8])[H:9]"
C       -1.54462771      -0.52715700       0.16677861
C       -0.14987206       0.01278149       0.15010029
C        1.04820290      -0.81524236      -0.30602838
O        2.04654042       0.13063062      -0.10951227
C        0.16669061       1.30251343      -0.48456548
O        0.25262560       0.62473730       1.38538639
H       -1.60182042      -1.33575794       0.89672309
H       -1.80886636      -0.91922030      -0.81690794
H       -2.26267042       0.24400113       0.44899104
H        0.91544191      -1.13158358      -1.35243814
H        1.18805441      -1.71909837       0.30799192
H        1.31939658       0.51989374       1.22729059
H       -0.35849113       2.19410050      -0.15510805
H        0.78939566       1.41940135      -1.35870167
14
Frame=4 idx=004320 GeodesicLength=0.3027463627470098 rxn_smarts="[C:1]([C@@:2]1([C:3]([O:4][H:12])([H:10])[H:11])[C:5]([H:13])([H:14])[O:6]1)([H:7])([H:8])[H:9]>>[C:1]([C:2]1([O:6][H:12])[C:3]([H:10])([H:11])[O:4][C:5]1([H:13])[H:14])([H:7])([H:8])[H:9]"
C       -1.54484879      -0.52777471       0.16097150
C       -0.15040480       0.01063837       0.15708087
C        1.04539967      -0.81818824      -0.30447635
O        2.03814102       0.14063692      -0.12305364
C        0.17299717       1.30167716      -0.47331867
O        0.24876738       0.62873015       1.38833324
H       -1.60694121      -1.34104563       0.88539109
H       -1.80186483      -0.91221866      -0.82763850
H       -2.26242327       0.24349569       0.44389282
H        0.90929112      -1.14931257      -1.34483232
H        1.19833306      -1.71118598       0.32153833
H        1.33513517       0.51466855       1.23387769
H       -0.34152432       2.20048959      -0.14558344
H        0.75994264       1.41938936      -1.37218260
14
Frame=5 idx=004320 GeodesicLength=0.37849367681715784 rxn_smarts="[C:1]([C@@:2]1([C:3]([O:4][H:12])([H:10])[H:11])[C:5]([H:13])([H:14])[O:6]1)([H:7])([H:8])[H:9]>>[C:1]([C:2]1([O:6][H:12])[C:3]([H:10])([H:11])[O:4][C:5]1([H:13])[H:14])([H:7])([H:8])[H:9]"
C       -1.54502230      -0.52835678       0.15511819
C       -0.15096134       0.00849058       0.16404038
C        1.04253600      -0.82124022      -0.30284706
O        2.02959216       0.15020340      -0.13647044
C        0.17923853       1.30067429      -0.46246324
O        0.24482703       0.63288226       1.39115364
H       -1.61203191      -1.34622050       0.87399508
H       -1.79472938      -0.90523057      -0.83828528
H       -2.26215716       0.24303390       0.43865971
H        0.90335468      -1.16711319      -1.33694601
H        1.20848677      -1.70316479       0.33481604
H        1.35136168       0.50966706       1.23988639
H       -0.32443366       2.20663295      -0.13638181
H        0.72993892       1.41974159      -1.38427558
14
Frame=6 idx=004320 GeodesicLength=0.45426504906915044 rxn_smarts="[C:1]([C@@:2]1([C:3]([O:4][H:12])([H:10])[H:11])[C:5]([H:13])([H:14])[O:6]1)([H:7])([H:8])[H:9]>>[C:1]([C:2]1([O:6][H:12])[C:3]([H:10])([H:11])[O:4][C:5]1([H:13])[H:14])([H:7])([H:8])[H:9]"
C       -1.54515066      -0.52891232       0.14922275
C       -0.15154848       0.00633946       0.17097426
C        1.03960297      -0.82439595      -0.30114205
O        2.02089957       0.15932940      -0.14977596
C        0.18540127       1.29951007      -0.45199241
O        0.24077483       0.63720188       1.39384077
H       -1.61709053      -1.35127304       0.86255930
H       -1.78746599      -0.89829327      -0.84883331
H       -2.26188314       0.24260447       0.43327509
H        0.89761451      -1.18497800      -1.32878147
H        1.21850263      -1.69504114       0.34782111
H        1.36809509       0.50488237       1.24530784
H       -0.30725023       2.21252348      -0.12750903
H        0.69949816       1.42050261      -1.39496690
14
Frame=7 idx=004320 GeodesicLength=0.5300654391429269 rxn_smarts="[C:1]([C@@:2]1([C:3]([O:4][H:12])([H:10])[H:11])[C:5]([H:13])([H:14])[O:6]1)([H:7])([H:8])[H:9]>>[C:1]([C:2]1([O:6][H:12])[C:3]([H:10])([H:11])[O:4][C:5]1([H:13])[H:14])([H:7])([H:8])[H:9]"
C       -1.54523406      -0.52944327       0.14327086
C       -0.15216844       0.00418677       0.17789249
C        1.03659564      -0.82765166      -0.29934455
O        2.01206139       0.16803147      -0.16300048
C        0.19147600       1.29819400      -0.44187850
O        0.23659375       0.64168439       1.39640234
H       -1.62212222      -1.35622315       0.85104249
H       -1.78006671      -0.89138377      -0.85930717
H       -2.26160438       0.24219251       0.42773666
H        0.89204897      -1.20292323      -1.32030945
H        1.22838333      -1.68679642       0.36059144
H        1.38537050       0.50032605       1.25012181
H       -0.28995898       2.21816992      -0.11892339
H        0.66862520       1.42163638      -1.40429457
14
Frame=8 idx=004320 GeodesicLength=0.6059182205041705 rxn_smarts="[C:1]([C@@:2]1([C:3]([O:4][H:12])([H:10])[H:11])[C:5]([H:13])([H:14])[O:6]1)([H:7])([H:8])[H:9]>>[C:1]([C:2]1([O:6][H:12])[C:3]([H:10])([H:11])[O:4][C:5]1([H:13])[H:14])([H:7])([H:8])[H:9]"
C       -1.54528346      -0.52995896       0.13725462
C       -0.15282916       0.00203071       0.18480344
C        1.03351595      -0.83101275      -0.29744443
O        2.00307960       0.17632686      -0.17618482
C        0.19744612       1.29673940      -0.43211048
O        0.23225469       0.64633425       1.39885257
H       -1.62714243      -1.36110017       0.83942456
H       -1.77253374      -0.88449287      -0.86973170
H       -2.26134040       0.24178889       0.42204093
H        0.88663879      -1.22099455      -1.31150737
H        1.23815856      -1.67842209       0.37316636
H        1.40321936       0.49599880       1.25431745
H       -0.27253149       2.22360038      -0.11058440
H        0.63734759       1.42316208      -1.41229673
14
Frame=9 idx=004320 GeodesicLength=0.6818089582293334 rxn_smarts="[C:1]([C@@:2]1([C:3]([O:4][H:12])([H:10])[H:11])[C:5]([H:13])([H:14])[O:6]1)([H:7])([H:8])[H:9]>>[C:1]([C:2]1([O:6][H:12])[C:3]([H:10])([H:11])[O:4][C:5]1([H:13])[H:14])([H:7])([H:8])[H:9]"
C       -1.54528713      -0.53045940       0.13116175
C       -0.15353543      -0.00012960       0.19171120
C        1.03035221      -0.83447969      -0.29542686
O        1.99392726       0.18422192      -0.18936264
C        0.20328855       1.29515025      -0.42266681
O        0.22773199       0.65114349       1.40118248
H       -1.63214097      -1.36590737       0.82767876
H       -1.76484222      -0.87761477      -0.88011203
H       -2.26108147       0.24138997       0.41616318
H        0.88136224      -1.23921784      -1.30233176
H        1.24783260      -1.66989948       0.38557543
H        1.42166521       0.49189620       1.25785279
H       -0.25494833       2.22882281      -0.10245419
H        0.60567548       1.42508351      -1.41897129
14
Frame=10 idx=004320 GeodesicLength=0.7577657478024455 rxn_smarts="[C:1]([C@@:2]1([C:3]([O:4][H:12])([H:10])[H:11])[C:5]([H:13])([H:14])[O:6]1)([H:7])([H:8])[H:9]>>[C:1]([C:2]1([O:6][H:12])[C:3]([H:10])([H:11])[O:4][C:5]1([H:13])[H:14])([H:7])([H:8])[H:9]"
C       -1.54526590      -0.53095562       0.12498753
C       -0.15429425      -0.00229251       0.19862301
C        1.02710923      -0.83804913      -0.29328672
O        1.98462226       0.19173290      -0.20255800
C        0.20900665       1.29343950      -0.41353089
O        0.22300135       0.65611881       1.40341579
H       -1.63714552      -1.37065910       0.81580270
H       -1.75700874      -0.87076272      -0.89046739
H       -2.26085949       0.24098055       0.41009709
H        0.87621265      -1.25760191      -1.29278021
H        1.25741389      -1.66121907       0.39783556
H        1.44075788       0.48802205       1.26072483
H       -0.23719841       2.23384634      -0.09451177
H        0.57364841       1.42739991      -1.42435155
14
Frame=11 idx=004320 GeodesicLength=0.8337675229602075 rxn_smarts="[C:1]([C@@:2]1([C:3]([O:4][H:12])([H:10])[H:11])[C:5]([H:13])([H:14])[O:6]1)([H:7])([H:8])[H:9]>>[C:1]([C:2]1([O:6][H:12])[C:3]([H:10])([H:11])[O:4][C:5]1([H:13])[H:14])([H:7])([H:8])[H:9]"
C       -1.54520170      -0.53144796       0.11872430
C       -0.15510944      -0.00445671       0.20554103
C        1.02377383      -0.84172267      -0.29100841
O        1.97513277       0.19886213      -0.21579033
C        0.21458983       1.29161682      -0.40468159
O        0.21802848       0.66125888       1.40553974
H       -1.64213690      -1.37535970       0.80377699
H       -1.74900402      -0.86393265      -0.90079474
H       -2.26065582       0.24055931       0.40382299
H        0.87117039      -1.27615659      -1.28281190
H        1.26689575      -1.65237786       0.40995901
H        1.46051511       0.48436312       1.26289459
H       -0.21927759       2.23867751      -0.08674133
H        0.54127934       1.43011637      -1.42843035
14
Frame=12 idx=004320 GeodesicLength=0.9098354397517223 rxn_smarts="[C:1]([C@@:2]1([C:3]([O:4][H:12])([H:10])[H:11])[C:5]([H:13])([H:14])[O:6]1)([H:7])([H:8])[H:9]>>[C:1]([C:2]1([O:6][H:12])[C:3]([H:10])([H:11])[O:4][C:5]1([H:13])[H:14])([H:7])([H:8])[H:9]"
C       -1.54511271      -0.53194495       0.11236299
C       -0.15599129      -0.00662493       0.21247133
C        1.02034834      -0.84549740      -0.28858356
O        1.96545870       0.20562161      -0.22909911
C        0.22002052       1.28968290      -0.39610478
O        0.21278955       0.66656051       1.40756836
H       -1.64714019      -1.38001253       0.79159669
H       -1.74083611      -0.85714019      -0.91110996
H       -2.26050054       0.24011572       0.39731465
H        0.86622581      -1.29490880      -1.27240178
H        1.27629934      -1.64334760       0.42197510
H        1.48099325       0.48091815       1.26432851
H       -0.20115978       2.24331841      -0.07910793
H        0.50860510       1.43325910      -1.43121051
14
Frame=13 idx=004320 GeodesicLength=0.9859595930153914 rxn_smarts="[C:1]([C@@:2]1([C:3]([O:4][H:12])([H:10])[H:11])[C:5]([H:13])([H:14])[O:6]1)([H:7])([H:8])[H:9]>>[C:1]([C:2]1([O:6][H:12])[C:3]([H:10])([H:11])[O:4][C:5]1([H:13])[H:14])([H:7])([H:8])[H:9]"
C       -1.54499665      -0.53245281       0.10590272
C       -0.15694623      -0.00879367       0.21941432
C        1.01682596      -0.84937397      -0.28600477
O        1.95558769       0.21201310      -0.24249436
C        0.22530058       1.28765273      -0.38778386
O        0.20724402       0.67203104       1.40950276
H       -1.65215155      -1.38462094       0.77926725
H       -1.73249719      -0.85040428      -0.92140892
H       -2.26039596       0.23964327       0.39056319
H        0.86137394      -1.31385122      -1.26153644
H        1.28561062      -1.63413534       0.43388204
H        1.50222275       0.47767664       1.26499768
H       -0.18286054       2.24777305      -0.07161210
H        0.47568253       1.43684240      -1.43268951
14
Frame=14 idx=004320 GeodesicLength=1.0621287104198736 rxn_smarts="[C:1]([C@@:2]1([C:3]([O:4][H:12])([H:10])[H:11])[C:5]([H:13])([H:14])[O:6]1)([H:7])([H:8])[H:9]>>[C:1]([C:2]1([O:6][H:12])[C:3]([H:10])([H:11])[O:4][C:5]1([H:13])[H:14])([H:7])([H:8])[H:9]"
C       -1.54485590      -0.53297780       0.09934327
C       -0.15798250      -0.01096086       0.22636852
C        1.01320141      -0.85334819      -0.28326709
O        1.94550874       0.21803771      -0.25598730
C        0.23042480       1.28553336      -0.37970240
O        0.20135225       0.67767178       1.41134246
H       -1.65717273      -1.38917298       0.76680905
H       -1.72398304      -0.84375987      -0.93168175
H       -2.26035160       0.23913695       0.38354340
H        0.85661197      -1.33296871      -1.25020475
H        1.29481820      -1.62473912       0.44567726
H        1.52424251       0.47462187       1.26486490
H       -0.16439844       2.25203464      -0.06425100
H        0.44258433       1.44089122      -1.43285455
14
Frame=15 idx=004320 GeodesicLength=1.138332952292017 rxn_smarts="[C:1]([C@@:2]1([C:3]([O:4][H:12])([H:10])[H:11])[C:5]([H:13])([H:14])[O:6]1)([H:7])([H:8])[H:9]>>[C:1]([C:2]1([O:6][H:12])[C:3]([H:10])([H:11])[O:4][C:5]1([H:13])[H:14])([H:7])([H:8])[H:9]"
C       -1.54469316      -0.53352739       0.09268401
C       -0.15910885      -0.01312464       0.23333304
C        1.00946989      -0.85741677      -0.28036445
O        1.93520908       0.22369856      -0.26958974
C        0.23538912       1.28333366      -0.37184328
O        0.19507117       0.68348521       1.41308876
H       -1.66220706      -1.39366053       0.75424198
H       -1.71528968      -0.83724139      -0.94192130
H       -2.26037663       0.23859212       0.37623022
H        0.85193707      -1.35224946      -1.23839472
H        1.30391302      -1.61515751       0.45736074
H        1.54709397       0.47173657       1.26388989
H       -0.14578891       2.25610003      -0.05701757
H        0.40938099       1.44543153      -1.43169758
14
Frame=16 idx=004320 GeodesicLength=1.214562706247102 rxn_smarts="[C:1]([C@@:2]1([C:3]([O:4][H:12])([H:10])[H:11])[C:5]([H:13])([H:14])[O:6]1)([H:7])([H:8])[H:9]>>[C:1]([C:2]1([O:6][H:12])[C:3]([H:10])([H:11])[O:4][C:5]1([H:13])[H:14])([H:7])([H:8])[H:9]"
C       -1.54451118      -0.53410818       0.08592296
C       -0.16033398      -0.01528300       0.24030836
C        1.00562758      -0.86157588      -0.27728847
O        1.92467491       0.22899904      -0.28331326
C        0.24019059       1.28106235      -0.36418689
O        0.18835590       0.68947308       1.41474428
H       -1.66725897      -1.39807646       0.74158248
H       -1.70641243      -0.83087916      -0.95212322
H       -2.26047985       0.23800460       0.36859806
H        0.84734803      -1.37167997      -1.22609254
H        1.31288647      -1.60538748       0.46893585
H        1.57082403       0.46900304       1.26202634
H       -0.12704710       2.25996561      -0.04990127
H        0.37613597       1.45048243      -1.42921267
