13
Frame=0 idx=004987 GeodesicLength=0.0 rxn_smarts="[C:1]1([H:7])([H:8])[C:2]([H:9])([H:10])[O:3][C:4]([H:11])=[N:5][C:6]1([H:12])[H:13]>>[C:1]1([H:7])([H:8])[O:3][C:4]([H:11])=[N:5][C:6]1([H:12])[H:13].[C:2]([H:9])[H:10]"
C        0.77014147      -0.57978924       0.41488741
C       -1.23644420      -1.31029127       0.07750317
O       -0.85990015       0.16948787       0.48012025
C       -0.75875973       1.06378883      -0.52858642
N        0.39387216       1.48519033      -0.81679815
C        1.34014866       0.79676961       0.05842925
H        0.88302190      -0.93130123       1.43093580
H        1.00662619      -1.33668845      -0.31753597
H       -1.55062080      -1.23705575      -0.97136633
H       -2.10126055      -1.53644991       0.70635265
H       -1.67922825       1.33760999      -1.03886251
H        1.49610651       1.39308093       0.96057148
H        2.29629680       0.68564830      -0.45565063
13
Frame=1 idx=004987 GeodesicLength=0.04067591042708935 rxn_smarts="[C:1]1([H:7])([H:8])[C:2]([H:9])([H:10])[O:3][C:4]([H:11])=[N:5][C:6]1([H:12])[H:13]>>[C:1]1([H:7])([H:8])[O:3][C:4]([H:11])=[N:5][C:6]1([H:12])[H:13].[C:2]([H:9])[H:10]"
C        0.75756382      -0.57757420       0.42379103
C       -1.22612732      -1.30941145       0.06441911
O       -0.87551886       0.16911476       0.48033554
C       -0.76610039       1.07362552      -0.51934868
N        0.38734879       1.49018458      -0.80817573
C        1.33867014       0.78962017       0.05131445
H        0.86910415      -0.90963509       1.44714317
H        1.01702178      -1.34863394      -0.28667078
H       -1.53228137      -1.23871787      -0.98679829
H       -2.08774261      -1.55176827       0.69135169
H       -1.68689271       1.35772747      -1.02285972
H        1.52164118       1.38815528       0.94683240
H        2.28331340       0.66731304      -0.48133419
13
Frame=2 idx=004987 GeodesicLength=0.08147295512927707 rxn_smarts="[C:1]1([H:7])([H:8])[C:2]([H:9])([H:10])[O:3][C:4]([H:11])=[N:5][C:6]1([H:12])[H:13]>>[C:1]1([H:7])([H:8])[O:3][C:4]([H:11])=[N:5][C:6]1([H:12])[H:13].[C:2]([H:9])[H:10]"
C        0.74506483      -0.57523400       0.43288200
C       -1.21551663      -1.30843125       0.05113131
O       -0.89132511       0.16837681       0.48037552
C       -0.77355140       1.08354219      -0.50959838
N        0.38064392       1.49548650      -0.79888139
C        1.33700854       0.78223003       0.04391590
H        0.85484775      -0.88717988       1.46335991
H        1.02730453      -1.36033810      -0.25408482
H       -1.51283180      -1.24005547      -1.00256939
H       -2.07406074      -1.56708302       0.67547052
H       -1.69454603       1.37785054      -1.00630089
H        1.54782418       1.38238515       0.93212508
H        2.26913796       0.64845052      -0.50782537
13
Frame=3 idx=004987 GeodesicLength=0.12231540287090734 rxn_smarts="[C:1]1([H:7])([H:8])[C:2]([H:9])([H:10])[O:3][C:4]([H:11])=[N:5][C:6]1([H:12])[H:13]>>[C:1]1([H:7])([H:8])[O:3][C:4]([H:11])=[N:5][C:6]1([H:12])[H:13].[C:2]([H:9])[H:10]"
C        0.73265526      -0.57277707       0.44212608
C       -1.20462931      -1.30736552       0.03768192
O       -0.90731725       0.16727288       0.48020522
C       -0.78107745       1.09351150      -0.49938558
N        0.37382723       1.50116511      -0.78883620
C        1.33518453       0.77462452       0.03627384
H        0.84028847      -0.86399437       1.47951963
H        1.03737401      -1.37169194      -0.21989610
H       -1.49237066      -1.24107876      -1.01861682
H       -2.06019387      -1.58239188       0.65883395
H       -1.70213094       1.39787347      -0.98935212
H        1.57463436       1.37571616       0.91649210
H        2.25375561       0.62913590      -0.53504591
13
Frame=4 idx=004987 GeodesicLength=0.16318162002457123 rxn_smarts="[C:1]1([H:7])([H:8])[C:2]([H:9])([H:10])[O:3][C:4]([H:11])=[N:5][C:6]1([H:12])[H:13]>>[C:1]1([H:7])([H:8])[O:3][C:4]([H:11])=[N:5][C:6]1([H:12])[H:13].[C:2]([H:9])[H:10]"
C        0.72033702      -0.57021830       0.45148131
C       -1.19344586      -1.30620488       0.02412036
O       -0.92348160       0.16581673       0.47976455
C       -0.78864166       1.10350140      -0.48876365
N        0.36694286       1.50725074      -0.77794551
C        1.33319232       0.76681302       0.02843194
H        0.82544884      -0.84014365       1.49551626
H        1.04712747      -1.38258478      -0.18423946
H       -1.47096005      -1.24178949      -1.03483459
H       -2.04606448      -1.59765501       0.64155925
H       -1.70957315       1.41771181      -0.97216128
H        1.60198567       1.36808931       0.89996079
H        2.23713262       0.60941309      -0.56288999
13
Frame=5 idx=004987 GeodesicLength=0.20415196859845652 rxn_smarts="[C:1]1([H:7])([H:8])[C:2]([H:9])([H:10])[O:3][C:4]([H:11])=[N:5][C:6]1([H:12])[H:13]>>[C:1]1([H:7])([H:8])[O:3][C:4]([H:11])=[N:5][C:6]1([H:12])[H:13].[C:2]([H:9])[H:10]"
C        0.70810373      -0.56753716       0.46104006
C       -1.18189154      -1.30494487       0.01040758
O       -0.93982679       0.16397459       0.47903431
C       -0.79624966       1.11350853      -0.47769163
N        0.35998869       1.51374862      -0.76614273
C        1.33099665       0.75873495       0.02034993
H        0.81030320      -0.81550654       1.51144085
H        1.05655970      -1.39292474      -0.14696496
H       -1.44842895      -1.24212456      -1.05127751
H       -2.03164016      -1.61289006       0.62351494
H       -1.71690532       1.43741666      -0.95463450
H        1.62994039       1.35935809       0.88238622
H        2.21905006       0.58918648      -0.59146255
13
Frame=6 idx=004987 GeodesicLength=0.24514491133748467 rxn_smarts="[C:1]1([H:7])([H:8])[C:2]([H:9])([H:10])[O:3][C:4]([H:11])=[N:5][C:6]1([H:12])[H:13]>>[C:1]1([H:7])([H:8])[O:3][C:4]([H:11])=[N:5][C:6]1([H:12])[H:13].[C:2]([H:9])[H:10]"
C        0.69596787      -0.56474977       0.47072126
C       -1.16998764      -1.30357955      -0.00338521
O       -0.95632255       0.16177434       0.47795672
C       -0.80383643       1.12347798      -0.46624256
N        0.35305961       1.52067669      -0.75331419
C        1.32860793       0.75043975       0.01209528
H        0.79488725      -0.79019153       1.52714058
H        1.06555299      -1.40260149      -0.10834712
H       -1.42493680      -1.24213714      -1.06780743
H       -2.01686140      -1.62805048       0.60488642
H       -1.72402096       1.45686435      -0.93696501
H        1.65836444       1.34954112       0.86382622
H        2.19952570       0.56853574      -0.62056497
13
Frame=7 idx=004987 GeodesicLength=0.2862639057257854 rxn_smarts="[C:1]1([H:7])([H:8])[C:2]([H:9])([H:10])[O:3][C:4]([H:11])=[N:5][C:6]1([H:12])[H:13]>>[C:1]1([H:7])([H:8])[O:3][C:4]([H:11])=[N:5][C:6]1([H:12])[H:13].[C:2]([H:9])[H:10]"
C        0.68391605      -0.56184059       0.48063297
C       -1.15767425      -1.30212825      -0.01729387
O       -0.97300799       0.15918393       0.47650152
C       -0.81143361       1.13342146      -0.45438136
N        0.34615223       1.52804643      -0.73939093
C        1.32603200       0.74188377       0.00362883
H        0.77916693      -0.76408625       1.54272221
H        1.07407808      -1.41155846      -0.06824142
H       -1.40029797      -1.24178901      -1.08448265
H       -2.00172905      -1.64318682       0.58554773
H       -1.73097884       1.47613174      -0.91906340
H        1.68736624       1.33852157       0.84416138
H        2.17841018       0.54740046      -0.65034100
13
Frame=8 idx=004987 GeodesicLength=0.32761173624035633 rxn_smarts="[C:1]1([H:7])([H:8])[C:2]([H:9])([H:10])[O:3][C:4]([H:11])=[N:5][C:6]1([H:12])[H:13]>>[C:1]1([H:7])([H:8])[O:3][C:4]([H:11])=[N:5][C:6]1([H:12])[H:13].[C:2]([H:9])[H:10]"
C        0.67193672      -0.55878167       0.49086440
C       -1.14485628      -1.30059344      -0.03134990
O       -0.98987910       0.15618346       0.47463604
C       -0.81901944       1.14336176      -0.44206082
N        0.33928166       1.53588653      -0.72425457
C        1.32320028       0.73300559      -0.00508866
H        0.76310283      -0.73706011       1.55823037
H        1.08212708      -1.41969788      -0.02651433
H       -1.37430675      -1.24104378      -1.10132651
H       -1.98617600      -1.65833539       0.56536728
H       -1.73775540       1.49529455      -0.90084264
H        1.71695434       1.32614546       0.82318978
H        2.15539007       0.52563489      -0.68085043
13
Frame=9 idx=004987 GeodesicLength=0.36928653507858533 rxn_smarts="[C:1]1([H:7])([H:8])[C:2]([H:9])([H:10])[O:3][C:4]([H:11])=[N:5][C:6]1([H:12])[H:13]>>[C:1]1([H:7])([H:8])[O:3][C:4]([H:11])=[N:5][C:6]1([H:12])[H:13].[C:2]([H:9])[H:10]"
C        0.66001407      -0.55555551       0.50150031
C       -1.13150026      -1.29895587      -0.04559997
O       -1.00696198       0.15273039       0.47229155
C       -0.82660363       1.15323747      -0.42923213
N        0.33248094       1.54412037      -0.70776907
C        1.32014599       0.72381403      -0.01409070
H        0.74662462      -0.70903252       1.57374555
H        1.08963836      -1.42701956       0.01690787
H       -1.34684787      -1.23983380      -1.11836079
H       -1.97018878      -1.67352013       0.54421985
H       -1.74437507       1.51435676      -0.88219023
H        1.74721581       1.31245725       0.80073160
H        2.13035780       0.50320113      -0.71215383
13
Frame=10 idx=004987 GeodesicLength=0.4113719510454127 rxn_smarts="[C:1]1([H:7])([H:8])[C:2]([H:9])([H:10])[O:3][C:4]([H:11])=[N:5][C:6]1([H:12])[H:13]>>[C:1]1([H:7])([H:8])[O:3][C:4]([H:11])=[N:5][C:6]1([H:12])[H:13].[C:2]([H:9])[H:10]"
C        0.64812540      -0.55214013       0.51261155
C       -1.11751009      -1.29724321      -0.06001438
O       -1.02424941       0.14883441       0.46940612
C       -0.83413815       1.16305701      -0.41593142
N        0.32583289       1.55273058      -0.68986657
C        1.31679807       0.71422297      -0.02337546
H        0.72978967      -0.67989452       1.58925098
H        1.09645737      -1.43329026       0.06194277
H       -1.31773807      -1.23820574      -1.13554134
H       -1.95365172      -1.68873259       0.52211065
H       -1.75077304       1.53340182      -0.86311018
H        1.77803969       1.29715768       0.77672291
H        2.10301739       0.48010198      -0.74420563
13
Frame=11 idx=004987 GeodesicLength=0.4539399899536436 rxn_smarts="[C:1]1([H:7])([H:8])[C:2]([H:9])([H:10])[O:3][C:4]([H:11])=[N:5][C:6]1([H:12])[H:13]>>[C:1]1([H:7])([H:8])[O:3][C:4]([H:11])=[N:5][C:6]1([H:12])[H:13].[C:2]([H:9])[H:10]"
C        0.63631553      -0.54853570       0.52408378
C       -1.10287447      -1.29541120      -0.07450568
O       -1.04168276       0.14451775       0.46591491
C       -0.84159101       1.17280585      -0.40222318
N        0.31935986       1.56173297      -0.67044751
C        1.31313909       0.70424686      -0.03287205
H        0.71259880      -0.64978811       1.60452351
H        1.10267898      -1.43842393       0.10839260
H       -1.28709469      -1.23611766      -1.15272237
H       -1.93651883      -1.70390256       0.49920456
H       -1.75689176       1.55233502      -0.84377370
H        1.80922933       1.28022240       0.75115091
H        2.07333193       0.45631832      -0.77672578
13
Frame=12 idx=004987 GeodesicLength=0.49691589819672055 rxn_smarts="[C:1]1([H:7])([H:8])[C:2]([H:9])([H:10])[O:3][C:4]([H:11])=[N:5][C:6]1([H:12])[H:13]>>[C:1]1([H:7])([H:8])[O:3][C:4]([H:11])=[N:5][C:6]1([H:12])[H:13].[C:2]([H:9])[H:10]"
C        0.62459787      -0.54471154       0.53604912
C       -1.08766643      -1.29356759      -0.08911903
O       -1.05938719       0.13974037       0.46183688
C       -0.84887198       1.18248863      -0.38805567
N        0.31336893       1.57110230      -0.64952002
C        1.30919827       0.69390214      -0.04264459
H        0.69510231      -0.61853844       1.61976157
H        1.10835100      -1.44231367       0.15627286
H       -1.25481695      -1.23371811      -1.17007409
H       -1.91901399      -1.71918632       0.47542417
H       -1.76269420       1.57126772      -0.82399687
H        1.84077212       1.26153508       0.72379275
H        2.04106024       0.43199943      -0.80972709
13
Frame=13 idx=004987 GeodesicLength=0.5409298087943664 rxn_smarts="[C:1]1([H:7])([H:8])[C:2]([H:9])([H:10])[O:3][C:4]([H:11])=[N:5][C:6]1([H:12])[H:13]>>[C:1]1([H:7])([H:8])[O:3][C:4]([H:11])=[N:5][C:6]1([H:12])[H:13].[C:2]([H:9])[H:10]"
C        0.61285338      -0.54077497       0.54837895
C       -1.07160818      -1.29146922      -0.10364610
O       -1.07700816       0.13460944       0.45679160
C       -0.85601769       1.19194557      -0.37367288
N        0.30749075       1.58035563      -0.62704162
C        1.30486811       0.68313512      -0.05256104
H        0.67724750      -0.58659045       1.63457137
H        1.11290163      -1.44506478       0.20500548
H       -1.22082362      -1.23068247      -1.18694390
H       -1.90040448      -1.73413878       0.45102860
H       -1.76808728       1.59018604      -0.80399445
H        1.87218456       1.24125604       0.69486936
H        2.00640347       0.40723283      -0.84278538
13
Frame=14 idx=004987 GeodesicLength=0.5856250693928953 rxn_smarts="[C:1]1([H:7])([H:8])[C:2]([H:9])([H:10])[O:3][C:4]([H:11])=[N:5][C:6]1([H:12])[H:13]>>[C:1]1([H:7])([H:8])[O:3][C:4]([H:11])=[N:5][C:6]1([H:12])[H:13].[C:2]([H:9])[H:10]"
C        0.60120893      -0.53670685       0.56093921
C       -1.05497502      -1.28925513      -0.11802305
O       -1.09465047       0.12912930       0.45091414
C       -0.86289513       1.20120230      -0.35913952
N        0.30212860       1.58956781      -0.60325696
C        1.30024033       0.67205059      -0.06256616
H        0.65922421      -0.55401776       1.64887889
H        1.11668178      -1.44647671       0.25427952
H       -1.18550182      -1.22732331      -1.20349579
H       -1.88116055      -1.74888162       0.42631235
H       -1.77302753       1.60904609      -0.78381247
H        1.90322357       1.21934183       0.66450819
H        1.96950310       0.38232346      -0.87553835
13
Frame=15 idx=004987 GeodesicLength=0.6309803497563022 rxn_smarts="[C:1]1([H:7])([H:8])[C:2]([H:9])([H:10])[O:3][C:4]([H:11])=[N:5][C:6]1([H:12])[H:13]>>[C:1]1([H:7])([H:8])[O:3][C:4]([H:11])=[N:5][C:6]1([H:12])[H:13].[C:2]([H:9])[H:10]"
C        0.58970386      -0.53259966       0.57349275
C       -1.03789844      -1.28690755      -0.13205603
O       -1.11217614       0.12340482       0.44413043
C       -0.86941495       1.21019817      -0.34465834
N        0.29736355       1.59845163      -0.57853917
C        1.29534785       0.66073896      -0.07252344
H        0.64119180      -0.52124562       1.66239380
H        1.11964988      -1.44658407       0.30338662
H       -1.14923246      -1.22375991      -1.21944970
H       -1.86130392      -1.76321865       0.40173388
H       -1.77742658       1.62781587      -0.76358597
H        1.93332334       1.19604424       0.63309588
H        1.93087221       0.35766178      -0.90742071
13
Frame=16 idx=004987 GeodesicLength=0.6769126331374027 rxn_smarts="[C:1]1([H:7])([H:8])[C:2]([H:9])([H:10])[O:3][C:4]([H:11])=[N:5][C:6]1([H:12])[H:13]>>[C:1]1([H:7])([H:8])[O:3][C:4]([H:11])=[N:5][C:6]1([H:12])[H:13].[C:2]([H:9])[H:10]"
C        0.57838128      -0.52854587       0.58579911
C       -1.02055025      -1.28442204      -0.14557376
O       -1.12944980       0.11753676       0.43641045
C       -0.87550642       1.21888325      -0.33041682
N        0.29324856       1.60673192      -0.55337644
C        1.29024949       0.64930523      -0.08230861
H        0.62330523      -0.48870632       1.67486796
H        1.12181503      -1.44547437       0.35166026
H       -1.11244122      -1.22012434      -1.23458451
H       -1.84092920      -1.77697990       0.37773710
H       -1.78124422       1.64647297      -0.74338342
H        1.96196697       1.17170782       0.60108429
H        1.89115457       0.33361489      -0.93791561
