12
Frame=0 idx=011852 GeodesicLength=0.0 rxn_smarts="[C:1]([N:2]([C:3]([C:4]#[N:5])([C:6]#[N:7])[H:12])[H:11])([H:8])([H:9])[H:10]>>[C:1]([N:2]([C:3](=[C:4]=[N:5][C:6]#[N:7])[H:12])[H:11])([H:8])([H:9])[H:10]"
C       -1.79974120      -0.01596320       0.15661140
N       -0.40767279      -0.07228584      -0.23420981
C        0.42869931      -1.00570262       0.12260691
C        1.71233154      -0.98239210      -0.39440044
N        2.68725285      -0.35429555      -0.69160261
C        2.33857098       1.39007255       0.02544365
N        1.35701913       2.02130813       0.02701030
H       -2.03232896      -0.84336078       0.82554016
H       -2.44037538      -0.07334553      -0.72411134
H       -1.98484324       0.92654870       0.67039349
H        0.03152145       0.79655922      -0.58628028
H        0.10956631      -1.78714301       0.80299860
12
Frame=1 idx=011852 GeodesicLength=0.10274062816544888 rxn_smarts="[C:1]([N:2]([C:3]([C:4]#[N:5])([C:6]#[N:7])[H:12])[H:11])([H:8])([H:9])[H:10]>>[C:1]([N:2]([C:3](=[C:4]=[N:5][C:6]#[N:7])[H:12])[H:11])([H:8])([H:9])[H:10]"
C       -1.80240352      -0.02112579       0.15475331
N       -0.41967100      -0.07902895      -0.26774289
C        0.44496647      -0.97070707       0.14748596
C        1.70719706      -0.98455572      -0.42184149
N        2.69073465      -0.36265798      -0.70448758
C        2.32237624       1.34944963       0.09037457
N        1.38567528       2.04035893       0.01942738
H       -2.03045848      -0.85559817       0.81655946
H       -2.45896043      -0.06825130      -0.71474017
H       -1.97689842       0.91566870       0.68345660
H        0.00511159       0.79035639      -0.63200417
H        0.13233056      -1.75390867       0.82875901
12
Frame=2 idx=011852 GeodesicLength=0.20554148191878124 rxn_smarts="[C:1]([N:2]([C:3]([C:4]#[N:5])([C:6]#[N:7])[H:12])[H:11])([H:8])([H:9])[H:10]>>[C:1]([N:2]([C:3](=[C:4]=[N:5][C:6]#[N:7])[H:12])[H:11])([H:8])([H:9])[H:10]"
C       -1.80487307      -0.02629325       0.15316955
N       -0.43186668      -0.08762001      -0.29991496
C        0.45899277      -0.93772178       0.16544119
C        1.70296317      -0.98546539      -0.44307469
N        2.69510947      -0.37093277      -0.71259453
C        2.30322310       1.31212132       0.14396489
N        1.41686618       2.05792820       0.01786885
H       -2.02957860      -0.86905347       0.80573154
H       -2.47714780      -0.05979149      -0.70482115
H       -1.96665358       0.90367035       0.69865277
H       -0.02206234       0.78127337      -0.67840624
H        0.15502738      -1.71811509       0.85398277
12
Frame=3 idx=011852 GeodesicLength=0.30841571453098315 rxn_smarts="[C:1]([N:2]([C:3]([C:4]#[N:5])([C:6]#[N:7])[H:12])[H:11])([H:8])([H:9])[H:10]>>[C:1]([N:2]([C:3](=[C:4]=[N:5][C:6]#[N:7])[H:12])[H:11])([H:8])([H:9])[H:10]"
C       -1.80702117      -0.03118399       0.15218634
N       -0.44425491      -0.09792173      -0.33075778
C        0.47114238      -0.90675107       0.17807790
C        1.69970502      -0.98537004      -0.45997507
N        2.70026680      -0.37852498      -0.71661353
C        2.28140179       1.27781591       0.19039128
N        1.45028676       2.07540409       0.02059000
H       -2.02908501      -0.88191655       0.79544558
H       -2.49493448      -0.05007299      -0.69371152
H       -1.95433220       0.89189929       0.71411074
H       -0.04989325       0.76890586      -0.72623028
H        0.17671826      -1.68228381       0.87648634
12
Frame=4 idx=011852 GeodesicLength=0.4113644505394343 rxn_smarts="[C:1]([N:2]([C:3]([C:4]#[N:5])([C:6]#[N:7])[H:12])[H:11])([H:8])([H:9])[H:10]>>[C:1]([N:2]([C:3](=[C:4]=[N:5][C:6]#[N:7])[H:12])[H:11])([H:8])([H:9])[H:10]"
C       -1.80884868      -0.03566856       0.15177298
N       -0.45690638      -0.10995846      -0.36042517
C        0.48175969      -0.87758663       0.18665276
C        1.69733878      -0.98438534      -0.47385564
N        2.70591346      -0.38513134      -0.71770967
C        2.25736540       1.24632849       0.23132131
N        1.48585881       2.09322541       0.02819829
H       -2.02870366      -0.89309607       0.78709723
H       -2.51230005      -0.04053416      -0.68139135
H       -1.94028287       0.88129345       0.72835670
H       -0.07841891       0.75293172      -0.77579187
H        0.19722442      -1.64741851       0.89577443
12
Frame=5 idx=011852 GeodesicLength=0.5143860193930914 rxn_smarts="[C:1]([N:2]([C:3]([C:4]#[N:5])([C:6]#[N:7])[H:12])[H:11])([H:8])([H:9])[H:10]>>[C:1]([N:2]([C:3](=[C:4]=[N:5][C:6]#[N:7])[H:12])[H:11])([H:8])([H:9])[H:10]"
C       -1.81060410      -0.04002673       0.15134755
N       -0.46989758      -0.12372060      -0.38901257
C        0.49117622      -0.84945714       0.19246875
C        1.69551955      -0.98291554      -0.48549250
N        2.71104728      -0.39086174      -0.71885958
C        2.23277860       1.21715330       0.26632977
N        1.52364190       2.11114775       0.04367913
H       -2.02865574      -0.90274308       0.78035893
H       -2.52916512      -0.03187659      -0.66871559
H       -1.92530021       0.87173376       0.74046697
H       -0.10770732       0.73331151      -0.82676440
H        0.21716653      -1.61174490       0.91419354
12
Frame=6 idx=011852 GeodesicLength=0.6175125932513933 rxn_smarts="[C:1]([N:2]([C:3]([C:4]#[N:5])([C:6]#[N:7])[H:12])[H:11])([H:8])([H:9])[H:10]>>[C:1]([N:2]([C:3](=[C:4]=[N:5][C:6]#[N:7])[H:12])[H:11])([H:8])([H:9])[H:10]"
C       -1.81190717      -0.04368277       0.15145467
N       -0.48335445      -0.13989087      -0.41701095
C        0.49947480      -0.82300554       0.19535768
C        1.69455157      -0.98060627      -0.49555151
N        2.71630036      -0.39486371      -0.71837999
C        2.20614149       1.19055055       0.29787002
N        1.56323630       2.12982112       0.06532751
H       -2.02846059      -0.90942189       0.77711341
H       -2.54573738      -0.02428644      -0.65470692
H       -1.90831715       0.86466495       0.74990489
H       -0.13796633       0.70867080      -0.88049314
H        0.23603857      -1.57794993       0.92911431
12
Frame=7 idx=011852 GeodesicLength=0.7208517138872497 rxn_smarts="[C:1]([N:2]([C:3]([C:4]#[N:5])([C:6]#[N:7])[H:12])[H:11])([H:8])([H:9])[H:10]>>[C:1]([N:2]([C:3](=[C:4]=[N:5][C:6]#[N:7])[H:12])[H:11])([H:8])([H:9])[H:10]"
C       -1.81252744      -0.04626735       0.15241146
N       -0.49742936      -0.15897771      -0.44451424
C        0.50667019      -0.79877078       0.19528201
C        1.69455649      -0.97697616      -0.50471178
N        2.72210870      -0.39644429      -0.71494974
C        2.17597659       1.16681070       0.32730426
N        1.60504750       2.14972687       0.09176503
H       -2.02807816      -0.91249915       0.77803203
H       -2.56200945      -0.01724335      -0.63884192
H       -1.88855684       0.86071268       0.75667346
H       -0.16946781       0.67777293      -0.93764141
H        0.25370959      -1.54784439       0.93919084
12
Frame=8 idx=011852 GeodesicLength=0.8240959863949593 rxn_smarts="[C:1]([N:2]([C:3]([C:4]#[N:5])([C:6]#[N:7])[H:12])[H:11])([H:8])([H:9])[H:10]>>[C:1]([N:2]([C:3](=[C:4]=[N:5][C:6]#[N:7])[H:12])[H:11])([H:8])([H:9])[H:10]"
C       -1.81249383      -0.04771229       0.15374689
N       -0.51228590      -0.18156215      -0.47170396
C        0.51303641      -0.77618709       0.19282118
C        1.69540060      -0.97213645      -0.51342786
N        2.72766626      -0.39533288      -0.71118969
C        2.14358659       1.14570716       0.35374935
N        1.64825215       2.16977814       0.12704180
H       -2.02739254      -0.91124133       0.78365200
H       -2.57788255      -0.01145101      -0.62174801
H       -1.86629945       0.86060602       0.75923711
H       -0.20250621       0.63960651      -0.99825381
H        0.27091847      -1.52007463       0.94607499
12
Frame=9 idx=011852 GeodesicLength=0.9272130110150398 rxn_smarts="[C:1]([N:2]([C:3]([C:4]#[N:5])([C:6]#[N:7])[H:12])[H:11])([H:8])([H:9])[H:10]>>[C:1]([N:2]([C:3](=[C:4]=[N:5][C:6]#[N:7])[H:12])[H:11])([H:8])([H:9])[H:10]"
C       -1.81200187      -0.04825995       0.15483726
N       -0.52804961      -0.20798111      -0.49844636
C        0.51874965      -0.75444745       0.18850273
C        1.69674644      -0.96635531      -0.52197259
N        2.73195867      -0.39139124      -0.71007572
C        2.11056795       1.12679884       0.37620426
N        1.69302468       2.18907453       0.17474072
H       -2.02636411      -0.90544634       0.79382656
H       -2.59335977      -0.00758943      -0.60424839
H       -1.84229737       0.86434821       0.75632561
H       -0.23740216       0.59353493      -1.06162911
H        0.28842750      -1.49228568       0.95193503
12
Frame=10 idx=011852 GeodesicLength=1.0303673748054194 rxn_smarts="[C:1]([N:2]([C:3]([C:4]#[N:5])([C:6]#[N:7])[H:12])[H:11])([H:8])([H:9])[H:10]>>[C:1]([N:2]([C:3](=[C:4]=[N:5][C:6]#[N:7])[H:12])[H:11])([H:8])([H:9])[H:10]"
C       -1.81092394      -0.04759976       0.15583594
N       -0.54491124      -0.23871054      -0.52445386
C        0.52375991      -0.73388082       0.18210197
C        1.69857959      -0.95907213      -0.53101172
N        2.73522886      -0.38385599      -0.71080481
C        2.07561147       1.11056857       0.39530986
N        1.74041648       2.20741785       0.23460916
H       -2.02474405      -0.89433487       0.80910366
H       -2.60844320      -0.00549949      -0.58607933
H       -1.81623299       0.87248260       0.74745387
H       -0.27464784       0.53811416      -1.12782206
H        0.30630694      -1.46562959       0.95575732
12
Frame=11 idx=011852 GeodesicLength=1.1344628422927892 rxn_smarts="[C:1]([N:2]([C:3]([C:4]#[N:5])([C:6]#[N:7])[H:12])[H:11])([H:8])([H:9])[H:10]>>[C:1]([N:2]([C:3](=[C:4]=[N:5][C:6]#[N:7])[H:12])[H:11])([H:8])([H:9])[H:10]"
C       -1.80866813      -0.04499471       0.15721076
N       -0.56316436      -0.27467534      -0.54946881
C        0.52775726      -0.71627209       0.17278627
C        1.70117476      -0.94910995      -0.54142851
N        2.73812636      -0.37099188      -0.71011171
C        2.03380422       1.09841379       0.41164034
N        1.79275179       2.22523349       0.30517413
H       -2.02217447      -0.87650836       0.83017417
H       -2.62299366      -0.00373089      -0.56617844
H       -1.78621989       0.88567632       0.73253171
H       -0.31481169       0.47055532      -1.19742270
H        0.32441782      -1.44359570       0.95509280
12
Frame=12 idx=011852 GeodesicLength=1.2375389805496502 rxn_smarts="[C:1]([N:2]([C:3]([C:4]#[N:5])([C:6]#[N:7])[H:12])[H:11])([H:8])([H:9])[H:10]>>[C:1]([N:2]([C:3](=[C:4]=[N:5][C:6]#[N:7])[H:12])[H:11])([H:8])([H:9])[H:10]"
C       -1.80665124      -0.04185530       0.15747790
N       -0.58292950      -0.31511026      -0.57239302
C        0.53123449      -0.69725643       0.16257325
C        1.70321967      -0.93663658      -0.55303216
N        2.73885697      -0.35413474      -0.71480686
C        1.99246550       1.09011961       0.42205780
N        1.85124243       2.23754284       0.39239304
H       -2.01896214      -0.85336150       0.85512901
H       -2.63730790      -0.00511065      -0.54724626
H       -1.75678995       0.90221802       0.70971089
H       -0.35851654       0.39233642      -1.26689665
H        0.34413820      -1.41875143       0.95503305
12
Frame=13 idx=011852 GeodesicLength=1.3382511055876296 rxn_smarts="[C:1]([N:2]([C:3]([C:4]#[N:5])([C:6]#[N:7])[H:12])[H:11])([H:8])([H:9])[H:10]>>[C:1]([N:2]([C:3](=[C:4]=[N:5][C:6]#[N:7])[H:12])[H:11])([H:8])([H:9])[H:10]"
C       -1.80841023      -0.04187731       0.15553835
N       -0.60414425      -0.35569950      -0.59114622
C        0.53395603      -0.67005772       0.15390477
C        1.70246134      -0.92036912      -0.56490099
N        2.73772391      -0.33712237      -0.72571358
C        1.95949002       1.08691122       0.42558859
N        1.92742114       2.24024553       0.48937560
H       -2.01786585      -0.83333394       0.87700373
H       -2.65286049      -0.01218719      -0.53284489
H       -1.73688082       0.91504758       0.68368306
H       -0.40639197       0.31082123      -1.33011976
H        0.36550117      -1.38237840       0.95963135
12
Frame=14 idx=011852 GeodesicLength=1.436754455075305 rxn_smarts="[C:1]([N:2]([C:3]([C:4]#[N:5])([C:6]#[N:7])[H:12])[H:11])([H:8])([H:9])[H:10]>>[C:1]([N:2]([C:3](=[C:4]=[N:5][C:6]#[N:7])[H:12])[H:11])([H:8])([H:9])[H:10]"
C       -1.80961156      -0.03999791       0.15228343
N       -0.62680412      -0.40339276      -0.60721238
C        0.53653245      -0.64002290       0.14256933
C        1.70164595      -0.90027801      -0.57934204
N        2.73396155      -0.31343822      -0.74531084
C        1.92657024       1.09042430       0.42033400
N        2.00484268       2.22640869       0.61369656
H       -2.01446941      -0.80259979       0.90576966
H       -2.66853722      -0.02386312      -0.51829504
H       -1.71588329       0.93444007       0.64470665
H       -0.45858139       0.21156351      -1.39410655
H        0.39033412      -1.33924386       0.96490722
12
Frame=15 idx=011852 GeodesicLength=1.5340309030235948 rxn_smarts="[C:1]([N:2]([C:3]([C:4]#[N:5])([C:6]#[N:7])[H:12])[H:11])([H:8])([H:9])[H:10]>>[C:1]([N:2]([C:3](=[C:4]=[N:5][C:6]#[N:7])[H:12])[H:11])([H:8])([H:9])[H:10]"
C       -1.81906102      -0.04564361       0.14616879
N       -0.65001631      -0.44558222      -0.61728004
C        0.53727103      -0.59280603       0.13356549
C        1.69614269      -0.87237312      -0.59258045
N        2.73081930      -0.29255545      -0.76671294
C        1.90843843       1.10255314       0.41153614
N        2.11501873       2.19166592       0.73409316
H       -2.01616347      -0.78428891       0.92551373
H       -2.68798266      -0.04677503      -0.51147174
H       -1.71529978       0.94331180       0.60771465
H       -0.51452195       0.11722611      -1.44599680
H        0.41535501      -1.27473259       0.97545001
12
Frame=16 idx=011852 GeodesicLength=1.6288879654080133 rxn_smarts="[C:1]([N:2]([C:3]([C:4]#[N:5])([C:6]#[N:7])[H:12])[H:11])([H:8])([H:9])[H:10]>>[C:1]([N:2]([C:3](=[C:4]=[N:5][C:6]#[N:7])[H:12])[H:11])([H:8])([H:9])[H:10]"
C       -1.82954539      -0.05142909       0.13873126
N       -0.67222376      -0.49022654      -0.62230279
C        0.53806999      -0.53365116       0.12187663
C        1.68982820      -0.83884895      -0.60687423
N        2.72637957      -0.26861824      -0.79825948
C        1.90235325       1.12169576       0.39675696
N        2.21810767       2.12491555       0.87126725
H       -2.01670150      -0.76009487       0.94812579
H       -2.70760178      -0.07668380      -0.50599195
H       -1.72020949       0.95444102       0.56197308
H       -0.57163009       0.01074093      -1.49236808
H        0.44317333      -1.19224060       0.98706555
