11
Frame=0 idx=002307 GeodesicLength=0.0 rxn_smarts="[C:1]([N:2](/[C:3](=[N:4]/[H:11])[C:5]#[N:6])[H:10])([H:7])([H:8])[H:9]>>[C:1]([N:2]([C:3](=[N:4][H:11])[N+:6]#[C-:5])[H:10])([H:7])([H:8])[H:9]"
C       -1.57892960      -0.18334109      -0.18394650
N       -0.22335042      -0.63012215       0.05837017
C        0.78448022       0.25588386       0.06840200
N        0.70565330       1.49746341       0.00818976
C        2.29302300      -0.57225920      -0.24444243
N        2.21062462      -0.53382094       0.93564251
H       -1.85154449       0.57828998       0.54615104
H       -2.24727341      -1.03539592      -0.07768269
H       -1.68911957       0.24376096      -1.18371921
H        0.00994761      -1.60021165      -0.03300257
H        1.58648873       1.97975270       0.10603795
11
Frame=1 idx=002307 GeodesicLength=0.7988728725187079 rxn_smarts="[C:1]([N:2](/[C:3](=[N:4]/[H:11])[C:5]#[N:6])[H:10])([H:7])([H:8])[H:9]>>[C:1]([N:2]([C:3](=[N:4][H:11])[N+:6]#[C-:5])[H:10])([H:7])([H:8])[H:9]"
C       -1.57534741      -0.16845366      -0.19708511
N       -0.23140078      -0.60862606       0.10428567
C        0.78524726       0.26940651       0.06916190
N        0.67130968       1.51153818       0.02829958
C        2.43638739      -0.68142392      -0.42065056
N        2.20069287      -0.55315308       0.92472636
H       -1.89097607       0.59417297       0.51358600
H       -2.23814379      -1.02835201      -0.10431280
H       -1.66314994       0.22334160      -1.21280633
H       -0.01692864      -1.58730944       0.10831067
H        1.52230943       2.02885891       0.18648463
11
Frame=2 idx=002307 GeodesicLength=1.596246332693053 rxn_smarts="[C:1]([N:2](/[C:3](=[N:4]/[H:11])[C:5]#[N:6])[H:10])([H:7])([H:8])[H:9]>>[C:1]([N:2]([C:3](=[N:4][H:11])[N+:6]#[C-:5])[H:10])([H:7])([H:8])[H:9]"
C       -1.56619697      -0.15733023      -0.22144956
N       -0.24350773      -0.57622341       0.18164478
C        0.77830479       0.29662968       0.11066813
N        0.63436207       1.53787229       0.06617518
C        2.55438423      -0.83030687      -0.67896423
N        2.21071728      -0.57364952       0.88441952
H       -1.94588394       0.61816801       0.44153375
H       -2.21986973      -1.02761130      -0.14089621
H       -1.60353409       0.17831394      -1.26001310
H       -0.04588586      -1.54992499       0.31096051
H        1.44710994       2.08406239       0.30592123
11
Frame=3 idx=002307 GeodesicLength=2.4144311014749364 rxn_smarts="[C:1]([N:2](/[C:3](=[N:4]/[H:11])[C:5]#[N:6])[H:10])([H:7])([H:8])[H:9]>>[C:1]([N:2]([C:3](=[N:4][H:11])[N+:6]#[C-:5])[H:10])([H:7])([H:8])[H:9]"
C       -1.54446063      -0.15017715      -0.24584804
N       -0.25124556      -0.53069904       0.26868322
C        0.76511406       0.34883093       0.18563078
N        0.58696025       1.58574604       0.11755994
C        2.62545973      -1.09679257      -0.99218161
N        2.22350660      -0.55182474       0.87818378
H       -2.00320596       0.62233543       0.36872320
H       -2.17387028      -1.04194171      -0.19541714
H       -1.52274590       0.14126874      -1.29756702
H       -0.05795269      -1.48985159       0.48409656
H        1.35244038       2.16310568       0.42813634
11
Frame=4 idx=002307 GeodesicLength=3.184223828294431 rxn_smarts="[C:1]([N:2](/[C:3](=[N:4]/[H:11])[C:5]#[N:6])[H:10])([H:7])([H:8])[H:9]>>[C:1]([N:2]([C:3](=[N:4][H:11])[N+:6]#[C-:5])[H:10])([H:7])([H:8])[H:9]"
C       -1.49689933      -0.14843504      -0.27900437
N       -0.24026057      -0.47164262       0.34786304
C        0.75496805       0.43503810       0.28379697
N        0.52851588       1.66291258       0.18186823
C        2.60157639      -1.51911063      -1.38713867
N        2.23528902      -0.47337492       0.90093943
H       -2.05015468       0.60168943       0.28308042
H       -2.08128219      -1.07347443      -0.26583127
H       -1.40709006       0.11177261      -1.33539542
H       -0.04814789      -1.40320781       0.66250711
H        1.20348537       2.27783272       0.60731452
11
Frame=5 idx=002307 GeodesicLength=3.9010999943584186 rxn_smarts="[C:1]([N:2](/[C:3](=[N:4]/[H:11])[C:5]#[N:6])[H:10])([H:7])([H:8])[H:9]>>[C:1]([N:2]([C:3](=[N:4][H:11])[N+:6]#[C-:5])[H:10])([H:7])([H:8])[H:9]"
C       -1.37958442      -0.15866656      -0.33812816
N       -0.17657749      -0.38740756       0.41930396
C        0.74214842       0.59785757       0.44551930
N        0.41650222       1.80280368       0.31973513
C        2.26971431      -2.25677438      -1.90445438
N        2.27475227      -0.25825340       1.00257114
H       -2.06922223       0.51258749       0.16983591
H       -1.86274243      -1.14015648      -0.39755002
H       -1.20157102       0.11363770      -1.37912041
H        0.04602947      -1.29032366       0.79172252
H        0.94055091       2.46469559       0.87056501
11
Frame=6 idx=002307 GeodesicLength=4.592774281718002 rxn_smarts="[C:1]([N:2](/[C:3](=[N:4]/[H:11])[C:5]#[N:6])[H:10])([H:7])([H:8])[H:9]>>[C:1]([N:2]([C:3](=[N:4][H:11])[N+:6]#[C-:5])[H:10])([H:7])([H:8])[H:9]"
C       -1.00992790      -0.19675572      -0.48771323
N        0.14873676      -0.23808534       0.37620375
C        0.71621461       0.93784685       0.72616636
N        0.08828909       2.02569049       0.63100432
C        0.81546152      -3.73152572      -2.61760090
N        2.26000531       0.40402233       1.59445840
H       -1.90781898       0.14426524       0.02386518
H       -1.17925709      -1.25040376      -0.75101284
H       -0.81904554       0.28127664      -1.44875660
H        0.59003371      -1.10494968       0.62294981
H        0.29730853       2.72861868       1.33043575
11
Frame=7 idx=002307 GeodesicLength=4.883818128990929 rxn_smarts="[C:1]([N:2](/[C:3](=[N:4]/[H:11])[C:5]#[N:6])[H:10])([H:7])([H:8])[H:9]>>[C:1]([N:2]([C:3](=[N:4][H:11])[N+:6]#[C-:5])[H:10])([H:7])([H:8])[H:9]"
C       -0.68687600      -0.08774287      -0.72818551
N        0.49866503       0.00960461       0.09458863
C        0.60585353       1.06327965       0.93302472
N       -0.36027802       1.84500341       1.13917499
C       -0.43732008      -4.91147933      -2.10866899
N        2.25338675       0.78745696       1.73339618
H       -1.58211354      -0.31877963      -0.15670556
H       -0.49085962      -0.96041213      -1.36630679
H       -0.78946534       0.73596767      -1.43838649
H        1.29284581      -0.58132839      -0.06907811
H       -0.30383851       2.41843006       1.96714693
11
Frame=8 idx=002307 GeodesicLength=5.279079250081151 rxn_smarts="[C:1]([N:2](/[C:3](=[N:4]/[H:11])[C:5]#[N:6])[H:10])([H:7])([H:8])[H:9]>>[C:1]([N:2]([C:3](=[N:4][H:11])[N+:6]#[C-:5])[H:10])([H:7])([H:8])[H:9]"
C       -0.74623105       0.35995455      -1.10797618
N        0.46009382       0.12727690      -0.35566624
C        0.55317093       0.61789481       0.90007471
N       -0.39786527       1.25629243       1.42309752
C        0.18193670      -4.51212023       0.08605036
N        2.06752930      -0.22125463       1.55611418
H       -1.61921816      -0.12804469      -0.68007169
H       -0.56569321      -0.12539128      -2.07470013
H       -0.90180919       1.41149523      -1.35275135
H        1.27264645      -0.26035261      -0.79714026
H       -0.30456032       1.47424952       2.40296908
11
Frame=9 idx=002307 GeodesicLength=5.7855644103081785 rxn_smarts="[C:1]([N:2](/[C:3](=[N:4]/[H:11])[C:5]#[N:6])[H:10])([H:7])([H:8])[H:9]>>[C:1]([N:2]([C:3](=[N:4][H:11])[N+:6]#[C-:5])[H:10])([H:7])([H:8])[H:9]"
C       -0.76512775       0.59356452      -1.22175701
N        0.35631334       0.05427434      -0.49898531
C        0.44399604       0.25382354       0.83358788
N       -0.38087155       0.99337387       1.43450505
C        0.75018188      -3.91622883       1.05517976
N        1.88329343      -0.76873684       1.36737344
H       -1.72456340       0.19367325      -0.89630836
H       -0.62915308       0.26374229      -2.25738553
H       -0.75312795       1.68276280      -1.26303196
H        1.12011984      -0.36881558      -0.99153324
H       -0.30106080       1.01856663       2.43835529
11
Frame=10 idx=002307 GeodesicLength=6.323909157929297 rxn_smarts="[C:1]([N:2](/[C:3](=[N:4]/[H:11])[C:5]#[N:6])[H:10])([H:7])([H:8])[H:9]>>[C:1]([N:2]([C:3](=[N:4][H:11])[N+:6]#[C-:5])[H:10])([H:7])([H:8])[H:9]"
C       -0.75174775       0.68476959      -1.25524834
N        0.28307209      -0.03494457      -0.55926243
C        0.36842866       0.04343391       0.78746468
N       -0.37626318       0.83081580       1.43476858
C        0.97812490      -3.38671613       1.43931673
N        1.84845482      -0.94799332       1.26650330
H       -1.75784055       0.37645227      -0.97237024
H       -0.63399809       0.43660795      -2.31454026
H       -0.62193930       1.76482900      -1.18588341
H        0.99182855      -0.51663065      -1.07890631
H       -0.32812016       0.74937615       2.43815769
11
Frame=11 idx=002307 GeodesicLength=6.867885613825196 rxn_smarts="[C:1]([N:2](/[C:3](=[N:4]/[H:11])[C:5]#[N:6])[H:10])([H:7])([H:8])[H:9]>>[C:1]([N:2]([C:3](=[N:4][H:11])[N+:6]#[C-:5])[H:10])([H:7])([H:8])[H:9]"
C       -0.72856415       0.72849654      -1.26648901
N        0.21847009      -0.11847893      -0.58821991
C        0.30700924      -0.10218653       0.76203164
N       -0.38413904       0.71391736       1.43723043
C        1.09511246      -2.96457534       1.59423132
N        1.85832374      -0.99902950       1.21606556
H       -1.76358628       0.50618569      -1.00670452
H       -0.61691947       0.53114036      -2.33595119
H       -0.50510468       1.78562321      -1.12367315
H        0.86815480      -0.66145885      -1.12458739
H       -0.34875671       0.58036599       2.43606622
11
Frame=12 idx=002307 GeodesicLength=7.41736214516386 rxn_smarts="[C:1]([N:2](/[C:3](=[N:4]/[H:11])[C:5]#[N:6])[H:10])([H:7])([H:8])[H:9]>>[C:1]([N:2]([C:3](=[N:4][H:11])[N+:6]#[C-:5])[H:10])([H:7])([H:8])[H:9]"
C       -0.70787881       0.74028495      -1.26934284
N        0.18088529      -0.17501358      -0.59988261
C        0.26771108      -0.19565325       0.75209849
N       -0.40069611       0.62968922       1.44306843
C        1.12409642      -2.64217787       1.60713207
N        1.86505832      -1.01513284       1.20977497
H       -1.75595565       0.56382380      -1.02536967
H       -0.58891024       0.57983964      -2.34311643
H       -0.43985259       1.77812318      -1.07156225
H        0.78531378      -0.76132849      -1.14359424
H       -0.32977150       0.49754523       2.44079408
11
Frame=13 idx=002307 GeodesicLength=7.961142487693216 rxn_smarts="[C:1]([N:2](/[C:3](=[N:4]/[H:11])[C:5]#[N:6])[H:10])([H:7])([H:8])[H:9]>>[C:1]([N:2]([C:3](=[N:4][H:11])[N+:6]#[C-:5])[H:10])([H:7])([H:8])[H:9]"
C       -0.69079294       0.74159074      -1.27016415
N        0.15645645      -0.21552331      -0.60375028
C        0.24530440      -0.25441481       0.74892326
N       -0.40938015       0.57613708       1.45043396
C        1.12627839      -2.39641949       1.56556853
N        1.86896365      -1.01820226       1.22571998
H       -1.74588144       0.59756642      -1.03275912
H       -0.56652606       0.60215051      -2.34521196
H       -0.39381813       1.76356657      -1.03490509
H        0.72298818      -0.83634118      -1.14992477
H       -0.31359234       0.43988971       2.44606963
11
Frame=14 idx=002307 GeodesicLength=8.507647084798283 rxn_smarts="[C:1]([N:2](/[C:3](=[N:4]/[H:11])[C:5]#[N:6])[H:10])([H:7])([H:8])[H:9]>>[C:1]([N:2]([C:3](=[N:4][H:11])[N+:6]#[C-:5])[H:10])([H:7])([H:8])[H:9]"
C       -0.68747300       0.73086304      -1.27157854
N        0.17601051      -0.21501383      -0.60820151
C        0.25873086      -0.27190120       0.74511743
N       -0.39289517       0.55427650       1.45735910
C        1.05437116      -2.21617616       1.50529466
N        1.85628197      -1.06829357       1.26354267
H       -1.73939412       0.55966285      -1.03529741
H       -0.55270390       0.61565490      -2.34718738
H       -0.42038664       1.75325095      -1.00436496
H        0.71836490      -0.85655945      -1.15490968
H       -0.27090657       0.41423597       2.45022563
11
Frame=15 idx=002307 GeodesicLength=9.054467844185599 rxn_smarts="[C:1]([N:2](/[C:3](=[N:4]/[H:11])[C:5]#[N:6])[H:10])([H:7])([H:8])[H:9]>>[C:1]([N:2]([C:3](=[N:4][H:11])[N+:6]#[C-:5])[H:10])([H:7])([H:8])[H:9]"
C       -0.68556761       0.72058534      -1.27403665
N        0.20095639      -0.20662645      -0.61256996
C        0.28008199      -0.27446159       0.74116913
N       -0.37366959       0.54251975       1.46432814
C        0.98915404      -2.06390018       1.44453298
N        1.83667897      -1.12307496       1.30547046
H       -1.73212462       0.51580011      -1.03773399
H       -0.54113952       0.62806414      -2.34955521
H       -0.45468823       1.74403092      -0.97839820
H        0.71297652      -0.87456915      -1.15697437
H       -0.23265834       0.39163207       2.45376766
11
Frame=16 idx=002307 GeodesicLength=9.60161259833781 rxn_smarts="[C:1]([N:2](/[C:3](=[N:4]/[H:11])[C:5]#[N:6])[H:10])([H:7])([H:8])[H:9]>>[C:1]([N:2]([C:3](=[N:4][H:11])[N+:6]#[C-:5])[H:10])([H:7])([H:8])[H:9]"
C       -0.68287074       0.71248689      -1.27738336
N        0.22107421      -0.20039978      -0.61718555
C        0.30384261      -0.26930397       0.73686699
N       -0.35851998       0.53235131       1.47122929
C        0.94371907      -1.92659709       1.38879509
N        1.81340626      -1.17311835       1.34614564
H       -1.72421502       0.47943771      -1.04114285
H       -0.52983764       0.64116260      -2.35232390
H       -0.48324072       1.73454260      -0.95508696
H        0.69850195      -0.89756099      -1.15663768
H       -0.20186000       0.36699905       2.45672328
