19
Frame=0 idx=008010 GeodesicLength=0.0 rxn_smarts="[C:1]([O:2][C@@:3]([C:4]([H:12])([H:13])[H:14])([C:5]([C:6]([O:7][H:19])([H:17])[H:18])([H:15])[H:16])[H:11])([H:8])([H:9])[H:10]>>[C:1]([H:8])([H:9])([H:10])[H:13].[O:2]=[C:3]([C:4]([C:5]([C:6]([O:7][H:19])([H:17])[H:18])([H:15])[H:16])([H:12])[H:14])[H:11]"
C       -2.14838248       0.36127902       1.67692878
O       -0.31527169      -0.77438568       0.68868469
C       -0.16389560       0.07354075      -0.33775711
C       -0.48863503       1.46317171       0.12142972
C        1.31169652       0.11271434      -0.85096009
C        1.73517350      -1.28804776      -1.28569465
O        1.75815025      -2.18961794      -0.21745869
H       -2.80040955       1.21676080       1.84825857
H       -1.50439282       0.10488403       2.50254647
H       -2.62077470      -0.48129969       1.19617855
H       -0.79763355      -0.16692184      -1.21706923
H        0.14945148       1.82887909       0.92500599
H       -1.49295931       1.10478410       0.75326092
H       -0.76646484       2.23503563      -0.59885996
H        1.96144793       0.44520819      -0.03699832
H        1.40936426       0.80812257      -1.68942794
H        1.06366862      -1.63157808      -2.08863995
H        2.74467375      -1.24132311      -1.70537801
H        0.96519331      -1.98120621       0.31595029
19
Frame=1 idx=008010 GeodesicLength=0.12958012520042206 rxn_smarts="[C:1]([O:2][C@@:3]([C:4]([H:12])([H:13])[H:14])([C:5]([C:6]([O:7][H:19])([H:17])[H:18])([H:15])[H:16])[H:11])([H:8])([H:9])[H:10]>>[C:1]([H:8])([H:9])([H:10])[H:13].[O:2]=[C:3]([C:4]([C:5]([C:6]([O:7][H:19])([H:17])[H:18])([H:15])[H:16])([H:12])[H:14])[H:11]"
C       -2.14575327       0.36859620       1.68558102
O       -0.32684914      -0.77686141       0.71181217
C       -0.18357349       0.04984986      -0.32938749
C       -0.47380783       1.45672147       0.09658241
C        1.30830569       0.11969937      -0.84230713
C        1.74533684      -1.27302989      -1.28921167
O        1.77462510      -2.18129660      -0.22612916
H       -2.78670268       1.22752381       1.88136620
H       -1.51947460       0.09295601       2.51943643
H       -2.64303006      -0.45881568       1.20171740
H       -0.82353429      -0.20311881      -1.19976319
H        0.15656719       1.82766756       0.90364094
H       -1.50514013       1.13359825       0.74846313
H       -0.74624182       2.21021249      -0.64446936
H        1.95229086       0.44291321      -0.01988153
H        1.42167105       0.82144113      -1.67358319
H        1.08456316      -1.61575871      -2.10106835
H        2.75659136      -1.21501413      -1.70360820
H        0.95415607      -2.02728412       0.28080956
19
Frame=2 idx=008010 GeodesicLength=0.25914589500191487 rxn_smarts="[C:1]([O:2][C@@:3]([C:4]([H:12])([H:13])[H:14])([C:5]([C:6]([O:7][H:19])([H:17])[H:18])([H:15])[H:16])[H:11])([H:8])([H:9])[H:10]>>[C:1]([H:8])([H:9])([H:10])[H:13].[O:2]=[C:3]([C:4]([C:5]([C:6]([O:7][H:19])([H:17])[H:18])([H:15])[H:16])([H:12])[H:14])[H:11]"
C       -2.14309377       0.37586451       1.69404493
O       -0.33750381      -0.77837476       0.73570688
C       -0.20209146       0.02693979      -0.31981502
C       -0.45911683       1.44951747       0.07159558
C        1.30557660       0.12684165      -0.83387450
C        1.75471497      -1.25809817      -1.29281688
O        1.78886806      -2.17312443      -0.23493890
H       -2.77276719       1.23783149       1.91313732
H       -1.53659378       0.08018773       2.53650241
H       -2.66466672      -0.43566912       1.20693488
H       -0.84870404      -0.23900351      -1.18054416
H        0.16300808       1.82714995       0.88177494
H       -1.51678911       1.16237742       0.74381792
H       -0.72769957       2.18335377      -0.68986399
H        1.94423163       0.44039145      -0.00338932
H        1.43534106       0.83486030      -1.65750351
H        1.10406996      -1.59885613      -2.11336393
H        2.76772657      -1.19001623      -1.70169070
H        0.94548935      -2.07217320       0.24428604
19
Frame=3 idx=008010 GeodesicLength=0.3887381618190684 rxn_smarts="[C:1]([O:2][C@@:3]([C:4]([H:12])([H:13])[H:14])([C:5]([C:6]([O:7][H:19])([H:17])[H:18])([H:15])[H:16])[H:11])([H:8])([H:9])[H:10]>>[C:1]([H:8])([H:9])([H:10])[H:13].[O:2]=[C:3]([C:4]([C:5]([C:6]([O:7][H:19])([H:17])[H:18])([H:15])[H:16])([H:12])[H:14])[H:11]"
C       -2.14049690       0.38312405       1.70238767
O       -0.34730809      -0.77890273       0.76043832
C       -0.21949168       0.00474372      -0.30902794
C       -0.44454584       1.44153869       0.04648680
C        1.30355138       0.13412345      -0.82563034
C        1.76334781      -1.24325920      -1.29660503
O        1.80128678      -2.16517279      -0.24404583
H       -2.75869748       1.24781787       1.94362719
H       -1.55590723       0.06664526       2.55366069
H       -2.68577179      -0.41177073       1.21179811
H       -0.87312769      -0.27458238      -1.15940380
H        0.16880016       1.82724486       0.85939956
H       -1.52801519       1.19113505       0.73928384
H       -0.71076612       2.15446262      -0.73498423
H        1.93722863       0.43759435       0.01259201
H        1.45044206       0.84840698      -1.64107185
H        1.12210720      -1.58096837      -2.12551276
H        2.77805585      -1.16624679      -1.69996961
H        0.93930814      -2.11593391       0.20657719
19
Frame=4 idx=008010 GeodesicLength=0.5183561980679579 rxn_smarts="[C:1]([O:2][C@@:3]([C:4]([H:12])([H:13])[H:14])([C:5]([C:6]([O:7][H:19])([H:17])[H:18])([H:15])[H:16])[H:11])([H:8])([H:9])[H:10]>>[C:1]([H:8])([H:9])([H:10])[H:13].[O:2]=[C:3]([C:4]([C:5]([C:6]([O:7][H:19])([H:17])[H:18])([H:15])[H:16])([H:12])[H:14])[H:11]"
C       -2.13801472       0.39041560       1.71068848
O       -0.35628025      -0.77838023       0.78612258
C       -0.23580280      -0.01681089      -0.29698858
C       -0.43010217       1.43274653       0.02125524
C        1.30226455       0.14153703      -0.81752403
C        1.77130449      -1.22849537      -1.30063543
O        1.81217251      -2.15747413      -0.25357112
H       -2.74455381       1.25760340       1.97290355
H       -1.57749211       0.05250150       2.57083057
H       -2.70636361      -0.38707153       1.21633105
H       -0.89677240      -0.30992873      -1.13628983
H        0.17392851       1.82790899       0.83646722
H       -1.53894303       1.21987032       0.73479863
H       -0.69537755       2.12349104      -0.77980260
H        1.93122558       0.43450230       0.02818034
H        1.46699298       0.86209833      -1.62415480
H        1.13869792      -1.56213640      -2.13753665
H        2.78762192      -1.14360108      -1.69863002
H        0.93549401      -2.15877667       0.16755539
19
Frame=5 idx=008010 GeodesicLength=0.6480158296025536 rxn_smarts="[C:1]([O:2][C@@:3]([C:4]([H:12])([H:13])[H:14])([C:5]([C:6]([O:7][H:19])([H:17])[H:18])([H:15])[H:16])[H:11])([H:8])([H:9])[H:10]>>[C:1]([H:8])([H:9])([H:10])[H:13].[O:2]=[C:3]([C:4]([C:5]([C:6]([O:7][H:19])([H:17])[H:18])([H:15])[H:16])([H:12])[H:14])[H:11]"
C       -2.13570047       0.39777443       1.71902449
O       -0.36440948      -0.77672578       0.81290110
C       -0.25104007      -0.03779240      -0.28363878
C       -0.41578767       1.42309254      -0.00409980
C        1.30175195       0.14907910      -0.80951128
C        1.77865157      -1.21378175      -1.30495884
O        1.82172850      -2.15004467      -0.26361363
H       -2.73040440       1.26729491       2.00103014
H       -1.60141884       0.03793192       2.58793094
H       -2.72645171      -0.36153493       1.22055951
H       -0.91959695      -0.34512325      -1.11112025
H        0.17837445       1.82910256       0.81292123
H       -1.54969153       1.24858713       0.73030649
H       -0.68145885       2.09036140      -0.82430173
H        1.92618282       0.43110136       0.04347150
H        1.48498434       0.87594573      -1.60664085
H        1.15388356      -1.54236483      -2.14947518
H        2.79648567      -1.12198500      -1.69779903
H        0.93391711      -2.20091846       0.12701397
19
Frame=6 idx=008010 GeodesicLength=0.7777268437978831 rxn_smarts="[C:1]([O:2][C@@:3]([C:4]([H:12])([H:13])[H:14])([C:5]([C:6]([O:7][H:19])([H:17])[H:18])([H:15])[H:16])[H:11])([H:8])([H:9])[H:10]>>[C:1]([H:8])([H:9])([H:10])[H:13].[O:2]=[C:3]([C:4]([C:5]([C:6]([O:7][H:19])([H:17])[H:18])([H:15])[H:16])([H:12])[H:14])[H:11]"
C       -2.13360080       0.40522793       1.72746647
O       -0.37166904      -0.77384211       0.84091976
C       -0.26520967      -0.05826438      -0.26890591
C       -0.40160863       1.41251576      -0.02957600
C        1.30204739       0.15674948      -0.80154585
C        1.78545512      -1.19908860      -1.30960861
O        1.83005902      -2.14290192      -0.27426006
H       -2.71631524       1.27698289       2.02806977
H       -1.62771134       0.02315483       2.60487266
H       -2.74602527      -0.33515409       1.22451824
H       -0.94154686      -0.38025802      -1.08379442
H        0.18210508       1.83078747       0.78870008
H       -1.56038755       1.27728459       0.72574729
H       -0.66891797       2.05496959      -0.86846215
H        1.92206440       0.42738845       0.05854999
H        1.50436977       0.88994957      -1.58843089
H        1.16773640      -1.52162307      -2.16138087
H        2.80472627      -1.10131832      -1.69752463
H        0.93442892      -2.24256006       0.08464513
19
Frame=7 idx=008010 GeodesicLength=0.9074991218490729 rxn_smarts="[C:1]([O:2][C@@:3]([C:4]([H:12])([H:13])[H:14])([C:5]([C:6]([O:7][H:19])([H:17])[H:18])([H:15])[H:16])[H:11])([H:8])([H:9])[H:10]>>[C:1]([H:8])([H:9])([H:10])[H:13].[O:2]=[C:3]([C:4]([C:5]([C:6]([O:7][H:19])([H:17])[H:18])([H:15])[H:16])([H:12])[H:14])[H:11]"
C       -2.13176665       0.41279679       1.73607278
O       -0.37802855      -0.76962163       0.87032037
C       -0.27830927      -0.07828337      -0.25270649
C       -0.38756671       1.40094312      -0.05516310
C        1.30318356       0.16454831      -0.79358148
C        1.79177104      -1.18438420      -1.31460844
O        1.83719834      -2.13606410      -0.28558987
H       -2.70235389       1.28674450       2.05408184
H       -1.65636457       0.00839887       2.62155462
H       -2.76507037      -0.30793891       1.22823421
H       -0.96255419      -0.41542002      -1.05419843
H        0.18508162       1.83291521       0.76374313
H       -1.57115854       1.30596042       0.72105988
H       -0.65763986       2.01719025      -0.91225348
H        1.91884290       0.42336299       0.07348797
H        1.52507216       0.90409981      -1.56944431
H        1.18033051      -1.49985576      -2.17330567
H        2.81242116      -1.08153616      -1.69781555
H        0.93691132      -2.28385611       0.04011203
19
Frame=8 idx=008010 GeodesicLength=1.037351393999308 rxn_smarts="[C:1]([O:2][C@@:3]([C:4]([H:12])([H:13])[H:14])([C:5]([C:6]([O:7][H:19])([H:17])[H:18])([H:15])[H:16])[H:11])([H:8])([H:9])[H:10]>>[C:1]([H:8])([H:9])([H:10])[H:13].[O:2]=[C:3]([C:4]([C:5]([C:6]([O:7][H:19])([H:17])[H:18])([H:15])[H:16])([H:12])[H:14])[H:11]"
C       -2.13026075       0.42049598       1.74488983
O       -0.38345926      -0.76394624       0.90124107
C       -0.29032957      -0.09789765      -0.23494663
C       -0.37366010       1.38829154      -0.08084123
C        1.30519709       0.17247364      -0.78556826
C        1.79764823      -1.16963742      -1.31997728
O        1.84312056      -2.12956413      -0.29768821
H       -2.68860584       1.29664350       2.07911550
H       -1.68733106      -0.00607560       2.63787494
H       -2.78357429      -0.27992893       1.23173528
H       -0.98253847      -0.45069044      -1.02220937
H        0.18725911       1.83542709       0.73799435
H       -1.58214128       1.33461153       0.71617900
H       -0.64748397       1.97688344      -0.95563368
H        1.91650422       0.41901995       0.08835244
H        1.54699017       0.91837971      -1.54961736
H        1.19174152      -1.47698204      -2.18530577
H        2.81964857      -1.06259018      -1.69865207
H        0.94127512      -2.32491375      -0.00694255
19
Frame=9 idx=008010 GeodesicLength=1.1672946431548095 rxn_smarts="[C:1]([O:2][C@@:3]([C:4]([H:12])([H:13])[H:14])([C:5]([C:6]([O:7][H:19])([H:17])[H:18])([H:15])[H:16])[H:11])([H:8])([H:9])[H:10]>>[C:1]([H:8])([H:9])([H:10])[H:13].[O:2]=[C:3]([C:4]([C:5]([C:6]([O:7][H:19])([H:17])[H:18])([H:15])[H:16])([H:12])[H:14])[H:11]"
C       -2.12915687       0.42833403       1.75392734
O       -0.38792729      -0.75668052       0.93381470
C       -0.30124515      -0.11714346      -0.21551828
C       -0.35985905       1.37446983      -0.10657213
C        1.30812218       0.18051979      -0.77745754
C        1.80309487      -1.15482060      -1.32573995
O        1.84779329      -2.12341337      -0.31064262
H       -2.67513788       1.30673100       2.10322090
H       -1.72061783      -0.02011507       2.65369643
H       -2.80155530      -0.25112794       1.23496187
H       -1.00140288      -0.48613538      -0.98768535
H        0.18862124       1.83825373       0.71140042
H       -1.59343250       1.36325645       0.71105630
H       -0.63829736       1.93389125      -0.99852296
H        1.91505535       0.41435161       0.10319292
H        1.56999782       0.93276666      -1.52890990
H        1.20196558      -1.45293857      -2.19740227
H        2.82642701      -1.04444275      -1.70006398
H        0.94755475      -2.36575670      -0.05675590
19
Frame=10 idx=008010 GeodesicLength=1.2973563519456341 rxn_smarts="[C:1]([O:2][C@@:3]([C:4]([H:12])([H:13])[H:14])([C:5]([C:6]([O:7][H:19])([H:17])[H:18])([H:15])[H:16])[H:11])([H:8])([H:9])[H:10]>>[C:1]([H:8])([H:9])([H:10])[H:13].[O:2]=[C:3]([C:4]([C:5]([C:6]([O:7][H:19])([H:17])[H:18])([H:15])[H:16])([H:12])[H:14])[H:11]"
C       -2.12853940       0.43631789       1.76320553
O       -0.39141274      -0.74767129       0.96816721
C       -0.31103293      -0.13604560      -0.19430768
C       -0.34614858       1.35937653      -0.13230854
C        1.31200227       0.18867987      -0.76918931
C        1.80814849      -1.13990403      -1.33189931
O        1.85107466      -2.11766444      -0.32454093
H       -2.66209754       1.31703416       2.12640172
H       -1.75606986      -0.03337682       2.66892897
H       -2.81898267      -0.22166207       1.23795875
H       -1.01903431      -0.52181658      -0.95048505
H        0.18911369       1.84131107       0.68391724
H       -1.60518323       1.39188599       0.70561677
H       -0.62988565       1.88804672      -1.04084333
H        1.91450857       0.40935170       0.11806458
H        1.59394677       0.94722359      -1.50730473
H        1.21108653      -1.42760055      -2.20964471
H        2.83283564      -1.02708277      -1.70197389
H        0.95567030      -2.40640335      -0.10976329
19
Frame=11 idx=008010 GeodesicLength=1.4275572964287389 rxn_smarts="[C:1]([O:2][C@@:3]([C:4]([H:12])([H:13])[H:14])([C:5]([C:6]([O:7][H:19])([H:17])[H:18])([H:15])[H:16])[H:11])([H:8])([H:9])[H:10]>>[C:1]([H:8])([H:9])([H:10])[H:13].[O:2]=[C:3]([C:4]([C:5]([C:6]([O:7][H:19])([H:17])[H:18])([H:15])[H:16])([H:12])[H:14])[H:11]"
C       -2.12849796       0.44445322       1.77271109
O       -0.39389437      -0.73674376       1.00441193
C       -0.31965676      -0.15461424      -0.17119086
C       -0.33248948       1.34290257      -0.15798720
C        1.31687877       0.19694018      -0.76070178
C        1.81280980      -1.12486273      -1.33846390
O        1.85281285      -2.11235269      -0.33948080
H       -2.64961830       1.32757174       2.14866448
H       -1.79357040      -0.04562653       2.68346269
H       -2.83585245      -0.19162667       1.24068934
H       -1.03530035      -0.55778477      -0.91045530
H        0.18870621       1.84450647       0.65549810
H       -1.61750834       1.42051453       0.69980063
H       -0.62204899       1.83916200      -1.08248254
H        1.91489266       0.40400397       0.13301226
H        1.61867454       0.96171227      -1.48480231
H        1.21912031      -1.40085836      -2.22205106
H        2.83889755      -1.01051300      -1.70434827
H        0.96564471      -2.44678420      -0.16628649
19
Frame=12 idx=008010 GeodesicLength=1.5579347361422102 rxn_smarts="[C:1]([O:2][C@@:3]([C:4]([H:12])([H:13])[H:14])([C:5]([C:6]([O:7][H:19])([H:17])[H:18])([H:15])[H:16])[H:11])([H:8])([H:9])[H:10]>>[C:1]([H:8])([H:9])([H:10])[H:13].[O:2]=[C:3]([C:4]([C:5]([C:6]([O:7][H:19])([H:17])[H:18])([H:15])[H:16])([H:12])[H:14])[H:11]"
C       -2.12913122       0.45274362       1.78241838
O       -0.39536973      -0.72370943       1.04263802
C       -0.32708069      -0.17284192      -0.14604573
C       -0.31883191       1.32493490      -0.18353334
C        1.32279718       0.20528184      -0.75193061
C        1.81706999      -1.10967555      -1.34543917
O        1.85281509      -2.10751927      -0.35556527
H       -2.63786068       1.33834729       2.17000408
H       -1.83295557      -0.05663352       2.69720131
H       -2.85216714      -0.16114881       1.24311860
H       -1.05005801      -0.59407138      -0.86744902
H        0.18737361       1.84773246       0.62609571
H       -1.63052411       1.44916142       0.69354458
H       -0.61456836       1.78704678      -1.12330760
H        1.91625026       0.39828101       0.14807787
H        1.64401737       0.97619316      -1.46142731
H        1.22607395      -1.37259294      -2.23462914
H        2.84462858      -0.99475607      -1.70714755
H        0.97752137      -2.48677360      -0.22662379
19
Frame=13 idx=008010 GeodesicLength=1.688538019654489 rxn_smarts="[C:1]([O:2][C@@:3]([C:4]([H:12])([H:13])[H:14])([C:5]([C:6]([O:7][H:19])([H:17])[H:18])([H:15])[H:16])[H:11])([H:8])([H:9])[H:10]>>[C:1]([H:8])([H:9])([H:10])[H:13].[O:2]=[C:3]([C:4]([C:5]([C:6]([O:7][H:19])([H:17])[H:18])([H:15])[H:16])([H:12])[H:14])[H:11]"
C       -2.13054285       0.46118662       1.79227891
O       -0.39584710      -0.70836317       1.08290642
C       -0.33326603      -0.19069936      -0.11875111
C       -0.30510681       1.30536347      -0.20885432
C        1.32980267       0.21368095      -0.74282295
C        1.82089460      -1.09433216      -1.35283661
O        1.85089465      -2.10318812      -0.37289589
H       -2.62697049       1.34934927       2.19043723
H       -1.87410679      -0.06629017       2.71002405
H       -2.86795744      -0.13031826       1.24514118
H       -1.06315480      -0.63068749      -0.82132395
H        0.18511836       1.85087090       0.59566440
H       -1.64431486       1.47787737       0.68681233
H       -0.60721885       1.73151897      -1.16314659
H        1.91864566       0.39215155       0.16327904
H        1.66980541       0.99062939      -1.43724145
H        1.23189772      -1.34271966      -2.24735457
H        2.85000304      -0.97985222      -1.71038006
H        0.99142391      -2.52617788      -0.29093608
19
Frame=14 idx=008010 GeodesicLength=1.8194187546625722 rxn_smarts="[C:1]([O:2][C@@:3]([C:4]([H:12])([H:13])[H:14])([C:5]([C:6]([O:7][H:19])([H:17])[H:18])([H:15])[H:16])[H:11])([H:8])([H:9])[H:10]>>[C:1]([H:8])([H:9])([H:10])[H:13].[O:2]=[C:3]([C:4]([C:5]([C:6]([O:7][H:19])([H:17])[H:18])([H:15])[H:16])([H:12])[H:14])[H:11]"
C       -2.13282523       0.46977881       1.80223724
O       -0.39536424      -0.69048244       1.12523850
C       -0.33818068      -0.20813448      -0.08919815
C       -0.29123471       1.28406784      -0.23384755
C        1.33793647       0.22210615      -0.73331515
C        1.82424755      -1.07881571      -1.36064974
O        1.84675602      -2.09939157      -0.39158464
H       -2.61716578       1.36053552       2.20991552
H       -1.91675737      -0.07438165       2.72186480
H       -2.88320432      -0.09934276       1.24672743
H       -1.07442209      -0.66761652      -0.77195398
H        0.18192978       1.85377565       0.56415852
H       -1.65898337       1.50668611       0.67953470
H       -0.59973480       1.67238072      -1.20181488
H        1.92212953       0.38556528       0.17864587
H        1.69587821       1.00497122      -1.41231583
H        1.23658815      -1.31110669      -2.26020739
H        2.85500585      -0.96586444      -1.71398482
H        1.00740103      -2.56473104      -0.35945043
19
Frame=15 idx=008010 GeodesicLength=1.9506572154458899 rxn_smarts="[C:1]([O:2][C@@:3]([C:4]([H:12])([H:13])[H:14])([C:5]([C:6]([O:7][H:19])([H:17])[H:18])([H:15])[H:16])[H:11])([H:8])([H:9])[H:10]>>[C:1]([H:8])([H:9])([H:10])[H:13].[O:2]=[C:3]([C:4]([C:5]([C:6]([O:7][H:19])([H:17])[H:18])([H:15])[H:16])([H:12])[H:14])[H:11]"
C       -2.13606790       0.47850963       1.81222159
O       -0.39397625      -0.66983850       1.16960850
C       -0.34179839      -0.22506764      -0.05729140
C       -0.27711899       1.26094130      -0.25839280
C        1.34723557       0.23052069      -0.72336959
C        1.82707017      -1.06312596      -1.36888230
O        1.84012700      -2.09613049      -0.41173296
H       -2.60863040       1.37185188       2.22843959
H       -1.96071859      -0.08087139       2.73262395
H       -2.89792680      -0.06836051       1.24776354
H       -1.08369314      -0.70481518      -0.71923323
H        0.17783283       1.85629356       0.53153404
H       -1.67459184       1.53565895       0.67168768
H       -0.59185646       1.60946125      -1.23908409
H        1.92677157       0.37846885       0.19417191
H        1.72207641       1.01917617      -1.38676526
H        1.24008481      -1.27768293      -2.27313305
H        2.85958050      -0.95287681      -1.71796301
H        1.02559994      -2.60211288      -0.43220312
19
Frame=16 idx=008010 GeodesicLength=2.0823593684506827 rxn_smarts="[C:1]([O:2][C@@:3]([C:4]([H:12])([H:13])[H:14])([C:5]([C:6]([O:7][H:19])([H:17])[H:18])([H:15])[H:16])[H:11])([H:8])([H:9])[H:10]>>[C:1]([H:8])([H:9])([H:10])[H:13].[O:2]=[C:3]([C:4]([C:5]([C:6]([O:7][H:19])([H:17])[H:18])([H:15])[H:16])([H:12])[H:14])[H:11]"
C       -2.14034593       0.48736798       1.82215808
O       -0.39177718      -0.64620660       1.21592458
C       -0.34411254      -0.24139320      -0.02296575
C       -0.26265725       1.23588495      -0.28235879
C        1.35772735       0.23888075      -0.71296042
C        1.82929962      -1.04726907      -1.37753359
O        1.83068586      -2.09339058      -0.43344376
H       -2.60156400       1.38322832       2.24600929
H       -2.00574520      -0.08574262       2.74222033
H       -2.91213476      -0.03753747       1.24815625
H       -1.09080790      -0.74221047      -0.66309407
H        0.17285607       1.85825451       0.49774995
H       -1.69120043       1.56487967       0.66325448
H       -0.58330638       1.54260868      -1.27470036
H        1.93263097       0.37079545       0.20984129
H        1.74825453       1.03320172      -1.36072089
H        1.24234468      -1.24239063      -2.28607087
H        2.86366831      -0.94099522      -1.72229786
H        1.04618419      -2.63796617      -0.50916788
