13
Frame=0 idx=002868 GeodesicLength=0.0 rxn_smarts="[C:1]([C@@:2]([C:3]([O:4][H:13])([H:11])[H:12])([C:5]#[N:6])[H:10])([H:7])([H:8])[H:9]>>[C:1]([C@@:2]([C:3]([O:4][H:13])([H:11])[H:12])([N+:6]#[C-:5])[H:10])([H:7])([H:8])[H:9]"
C       -0.64247153       1.29363905       0.25438390
C       -0.38096835      -0.01572792      -0.43857885
C        0.78212184      -0.81663427       0.13134562
O        1.93622979      -0.08243067      -0.23399159
C       -1.97750162      -0.76205556      -0.75052542
N       -1.63087896      -1.33716706       0.21891237
H       -1.43286868       1.85484077      -0.24082237
H       -0.92668547       1.12958402       1.29405402
H        0.28054951       1.87651149       0.23091475
H       -0.19793591       0.10439083      -1.50415491
H        0.79013865      -1.81897057      -0.30493813
H        0.69077263      -0.90755180       1.21778030
H        2.70949809      -0.51842825       0.12562028
13
Frame=1 idx=002868 GeodesicLength=0.07812219247974453 rxn_smarts="[C:1]([C@@:2]([C:3]([O:4][H:13])([H:11])[H:12])([C:5]#[N:6])[H:10])([H:7])([H:8])[H:9]>>[C:1]([C@@:2]([C:3]([O:4][H:13])([H:11])[H:12])([N+:6]#[C-:5])[H:10])([H:7])([H:8])[H:9]"
C       -0.63625215       1.29360948       0.25038461
C       -0.39273902      -0.02752566      -0.43128404
C        0.78296750      -0.81496925       0.13348881
O        1.93350485      -0.07769272      -0.23540267
C       -2.02401852      -0.72867569      -0.71047394
N       -1.62097520      -1.39819655       0.16725848
H       -1.40931998       1.87378488      -0.25050487
H       -0.92468218       1.13783785       1.29021908
H        0.28996392       1.87120404       0.22773107
H       -0.20499883       0.09468332      -1.49664646
H        0.80522661      -1.81783408      -0.30154035
H        0.69332112      -0.90521618       1.22031898
H        2.70800188      -0.50100945       0.13645130
13
Frame=2 idx=002868 GeodesicLength=0.15525505650843877 rxn_smarts="[C:1]([C@@:2]([C:3]([O:4][H:13])([H:11])[H:12])([C:5]#[N:6])[H:10])([H:7])([H:8])[H:9]>>[C:1]([C@@:2]([C:3]([O:4][H:13])([H:11])[H:12])([N+:6]#[C-:5])[H:10])([H:7])([H:8])[H:9]"
C       -0.62937079       1.29433957       0.24593192
C       -0.40459684      -0.03875694      -0.42363412
C        0.78318257      -0.81348471       0.13565016
O        1.93050261      -0.07312036      -0.23558485
C       -2.06866598      -0.69789659      -0.66025781
N       -1.61094131      -1.45813583       0.10422510
H       -1.38709800       1.89100399      -0.25924280
H       -0.91882830       1.14812909       1.28693495
H        0.29965331       1.86710042       0.22130778
H       -0.21372829       0.08461442      -1.48913735
H        0.82053878      -1.81640436      -0.29869849
H        0.69380759      -0.90436526       1.22264407
H        2.70554465      -0.48302343       0.14986145
13
Frame=3 idx=002868 GeodesicLength=0.23114546349843282 rxn_smarts="[C:1]([C@@:2]([C:3]([O:4][H:13])([H:11])[H:12])([C:5]#[N:6])[H:10])([H:7])([H:8])[H:9]>>[C:1]([C@@:2]([C:3]([O:4][H:13])([H:11])[H:12])([N+:6]#[C-:5])[H:10])([H:7])([H:8])[H:9]"
C       -0.62199356       1.29594850       0.24094770
C       -0.41630741      -0.04912594      -0.41574683
C        0.78267709      -0.81222364       0.13796125
O        1.92732774      -0.06886098      -0.23408104
C       -2.11008579      -0.67165977      -0.59844743
N       -1.60109411      -1.51498440       0.02837290
H       -1.36733417       1.90597997      -0.26692779
H       -0.90855907       1.16071635       1.28431272
H        0.30931060       1.86451796       0.21098276
H       -0.22366129       0.07479365      -1.48168632
H        0.83556896      -1.81473087      -0.29622014
H        0.69203424      -0.90506489       1.22487957
H        2.70211676      -0.46530594       0.16565265
13
Frame=4 idx=002868 GeodesicLength=0.3052129417796719 rxn_smarts="[C:1]([C@@:2]([C:3]([O:4][H:13])([H:11])[H:12])([C:5]#[N:6])[H:10])([H:7])([H:8])[H:9]>>[C:1]([C@@:2]([C:3]([O:4][H:13])([H:11])[H:12])([N+:6]#[C-:5])[H:10])([H:7])([H:8])[H:9]"
C       -0.61448384       1.29847304       0.23541592
C       -0.42739319      -0.05830923      -0.40785503
C        0.78143281      -0.81122201       0.14072018
O        1.92411243      -0.06504906      -0.23036825
C       -2.14604093      -0.65245733      -0.52447515
N       -1.59245027      -1.56552890      -0.06097746
H       -1.35166862       1.91789540      -0.27323435
H       -0.89355138       1.17558811       1.28241731
H        0.31827324       1.86384952       0.19609469
H       -0.23370747       0.06610330      -1.47435845
H        0.84950633      -1.81300227      -0.29352280
H        0.68799149      -0.90706107       1.22732841
H        2.69797940      -0.44927951       0.18281497
13
Frame=5 idx=002868 GeodesicLength=0.37717005323620073 rxn_smarts="[C:1]([C@@:2]([C:3]([O:4][H:13])([H:11])[H:12])([C:5]#[N:6])[H:10])([H:7])([H:8])[H:9]>>[C:1]([C@@:2]([C:3]([O:4][H:13])([H:11])[H:12])([N+:6]#[C-:5])[H:10])([H:7])([H:8])[H:9]"
C       -0.60725765       1.30183411       0.22928454
C       -0.43732606      -0.06601897      -0.40059225
C        0.77954050      -0.81061412       0.14393661
O        1.92117351      -0.06196833      -0.22427373
C       -2.17409009      -0.64317789      -0.43857946
N       -1.58659577      -1.60563420      -0.16260479
H       -1.34165797       1.92603360      -0.27788262
H       -0.87392418       1.19234408       1.28107221
H        0.32590306       1.86529016       0.17638544
H       -0.24260684       0.05953835      -1.46757630
H        0.86129425      -1.81161256      -0.29033696
H        0.68204740      -0.91010427       1.23004721
H        2.69349986      -0.43590996       0.20112008
13
Frame=6 idx=002868 GeodesicLength=0.44672147915545035 rxn_smarts="[C:1]([C@@:2]([C:3]([O:4][H:13])([H:11])[H:12])([C:5]#[N:6])[H:10])([H:7])([H:8])[H:9]>>[C:1]([C@@:2]([C:3]([O:4][H:13])([H:11])[H:12])([N+:6]#[C-:5])[H:10])([H:7])([H:8])[H:9]"
C       -0.60117681       1.30579797       0.22259473
C       -0.44551412      -0.07168631      -0.39481670
C        0.77698160      -0.80989559       0.14766638
O        1.91871880      -0.05974374      -0.21544876
C       -2.19139889      -0.64718936      -0.34294482
N       -1.58399106      -1.63049333      -0.27221374
H       -1.33788660       1.92989125      -0.28135974
H       -0.85178762       1.21015699       1.27972877
H        0.33124807       1.86832542       0.15342171
H       -0.24853862       0.05624213      -1.46187782
H        0.86984870      -1.81023101      -0.28624074
H        0.67453252      -0.91303136       1.23317125
H        2.68896404      -0.42814305       0.21831948
13
Frame=7 idx=002868 GeodesicLength=0.5147983038226647 rxn_smarts="[C:1]([C@@:2]([C:3]([O:4][H:13])([H:11])[H:12])([C:5]#[N:6])[H:10])([H:7])([H:8])[H:9]>>[C:1]([C@@:2]([C:3]([O:4][H:13])([H:11])[H:12])([N+:6]#[C-:5])[H:10])([H:7])([H:8])[H:9]"
C       -0.59658436       1.30983661       0.21549268
C       -0.45140464      -0.07568848      -0.39121292
C        0.77441599      -0.80951091       0.15161990
O        1.91721450      -0.05841343      -0.20475752
C       -2.19620125      -0.66457198      -0.24325276
N       -1.58843313      -1.63733361      -0.38254712
H       -1.34064307       1.92927707      -0.28350128
H       -0.82892882       1.22756345       1.27796532
H        0.33393767       1.87274558       0.12846890
H       -0.25010257       0.05610583      -1.45776919
H        0.87445511      -1.80963366      -0.28156794
H        0.66700042      -0.91553524       1.23657587
H        2.68527414      -0.42484123       0.23448606
13
Frame=8 idx=002868 GeodesicLength=0.5823280753451109 rxn_smarts="[C:1]([C@@:2]([C:3]([O:4][H:13])([H:11])[H:12])([C:5]#[N:6])[H:10])([H:7])([H:8])[H:9]>>[C:1]([C@@:2]([C:3]([O:4][H:13])([H:11])[H:12])([N+:6]#[C-:5])[H:10])([H:7])([H:8])[H:9]"
C       -0.59367385       1.31339365       0.20830972
C       -0.45486876      -0.07843188      -0.38989180
C        0.77229845      -0.80932739       0.15559727
O        1.91674659      -0.05791548      -0.19337265
C       -2.18869067      -0.69364837      -0.14631950
N       -1.60125596      -1.62614690      -0.48609197
H       -1.34835849       1.92467875      -0.28484450
H       -0.80800989       1.24325094       1.27546740
H        0.33405992       1.87764662       0.10399942
H       -0.24684920       0.05828812      -1.45530764
H        0.87521546      -1.80979138      -0.27647891
H        0.66066156      -0.91675986       1.24020762
H        2.68272485      -0.42523681       0.24872554
13
Frame=9 idx=002868 GeodesicLength=0.6491157777184817 rxn_smarts="[C:1]([C@@:2]([C:3]([O:4][H:13])([H:11])[H:12])([C:5]#[N:6])[H:10])([H:7])([H:8])[H:9]>>[C:1]([C@@:2]([C:3]([O:4][H:13])([H:11])[H:12])([N+:6]#[C-:5])[H:10])([H:7])([H:8])[H:9]"
C       -0.59267015       1.31628428       0.20148124
C       -0.45620070      -0.08025985      -0.39022919
C        0.77099895      -0.80881709       0.15999450
O        1.91733905      -0.05753151      -0.18163995
C       -2.17164605      -0.73124593      -0.05923736
N       -1.62131965      -1.60007624      -0.57693434
H       -1.35894301       1.91738396      -0.28633319
H       -0.79186898       1.25644231       1.27222968
H        0.33191303       1.88250202       0.08264146
H       -0.23921007       0.06176247      -1.45394148
H        0.87330230      -1.81018680      -0.27043129
H        0.65619504      -0.91587861       1.24454042
H        2.68211024      -0.43037901       0.25785950
13
Frame=10 idx=002868 GeodesicLength=0.7167464002958018 rxn_smarts="[C:1]([C@@:2]([C:3]([O:4][H:13])([H:11])[H:12])([C:5]#[N:6])[H:10])([H:7])([H:8])[H:9]>>[C:1]([C@@:2]([C:3]([O:4][H:13])([H:11])[H:12])([N+:6]#[C-:5])[H:10])([H:7])([H:8])[H:9]"
C       -0.59303131       1.31846418       0.19498039
C       -0.45585589      -0.08170236      -0.39167257
C        0.77062592      -0.80816909       0.16462672
O        1.91886538      -0.05727198      -0.17015426
C       -2.14734685      -0.77502601       0.01783450
N       -1.64820135      -1.56190581      -0.65563886
H       -1.37096008       1.90809036      -0.28842306
H       -0.78025111       1.26729405       1.26838158
H        0.32832232       1.88700479       0.06428885
H       -0.22863423       0.06544406      -1.45334829
H        0.86969821      -1.81086822      -0.26380390
H        0.65371938      -0.91333840       1.24938232
H        2.68304962      -0.43801555       0.26354658
13
Frame=11 idx=002868 GeodesicLength=0.785782852721835 rxn_smarts="[C:1]([C@@:2]([C:3]([O:4][H:13])([H:11])[H:12])([C:5]#[N:6])[H:10])([H:7])([H:8])[H:9]>>[C:1]([C@@:2]([C:3]([O:4][H:13])([H:11])[H:12])([N+:6]#[C-:5])[H:10])([H:7])([H:8])[H:9]"
C       -0.59407331       1.31973534       0.18856632
C       -0.45413951      -0.08330966      -0.39405730
C        0.77127850      -0.80776002       0.16887368
O        1.92122160      -0.05710277      -0.15932965
C       -2.11735032      -0.82291134       0.08552291
N       -1.68226308      -1.51350023      -0.72207184
H       -1.38324772       1.89719282      -0.29134728
H       -0.77233124       1.27576586       1.26385317
H        0.32409977       1.89082915       0.04849885
H       -0.21652155       0.06826794      -1.45360434
H        0.86541632      -1.81180578      -0.25788904
H        0.65309994      -0.91028931       1.25400822
H        2.68481058      -0.44511200       0.26897630
13
Frame=12 idx=002868 GeodesicLength=0.8564981927452202 rxn_smarts="[C:1]([C@@:2]([C:3]([O:4][H:13])([H:11])[H:12])([C:5]#[N:6])[H:10])([H:7])([H:8])[H:9]>>[C:1]([C@@:2]([C:3]([O:4][H:13])([H:11])[H:12])([N+:6]#[C-:5])[H:10])([H:7])([H:8])[H:9]"
C       -0.59533870       1.32001242       0.18212518
C       -0.45130306      -0.08544780      -0.39713583
C        0.77301898      -0.80778216       0.17245633
O        1.92432488      -0.05694169      -0.14940070
C       -2.08306052      -0.87375730       0.14399751
N       -1.72342194      -1.45591789      -0.77633133
H       -1.39505786       1.88497430      -0.29526950
H       -0.76745205       1.28190738       1.25869759
H        0.31978166       1.89379626       0.03481086
H       -0.20394182       0.06950708      -1.45472094
H        0.86131171      -1.81295393      -0.25329455
H        0.65417226      -0.90744014       1.25808331
H        2.68696645      -0.44995653       0.27598208
13
Frame=13 idx=002868 GeodesicLength=0.9278200890447317 rxn_smarts="[C:1]([C@@:2]([C:3]([O:4][H:13])([H:11])[H:12])([C:5]#[N:6])[H:10])([H:7])([H:8])[H:9]>>[C:1]([C@@:2]([C:3]([O:4][H:13])([H:11])[H:12])([N+:6]#[C-:5])[H:10])([H:7])([H:8])[H:9]"
C       -0.59724325       1.31964890       0.17608989
C       -0.44750663      -0.08785072      -0.39999727
C        0.77574362      -0.80753238       0.17672503
O        1.92793177      -0.05646469      -0.13998153
C       -2.04676449      -0.92713527       0.19050534
N       -1.76825074      -1.39077678      -0.81929280
H       -1.40638394       1.87196418      -0.30030955
H       -0.76659874       1.28599596       1.25326807
H        0.31500697       1.89616887       0.02373366
H       -0.19099860       0.06943496      -1.45574569
H        0.85786221      -1.81414183      -0.24718413
H        0.65670005      -0.90317294       1.26293845
H        2.69050177      -0.45613827       0.27925052
13
Frame=14 idx=002868 GeodesicLength=1.0003882545133242 rxn_smarts="[C:1]([C@@:2]([C:3]([O:4][H:13])([H:11])[H:12])([C:5]#[N:6])[H:10])([H:7])([H:8])[H:9]>>[C:1]([C@@:2]([C:3]([O:4][H:13])([H:11])[H:12])([N+:6]#[C-:5])[H:10])([H:7])([H:8])[H:9]"
C       -0.59932089       1.31863883       0.17025079
C       -0.44295779      -0.09075260      -0.40277254
C        0.77938829      -0.80729542       0.18119792
O        1.93208656      -0.05569446      -0.13114069
C       -2.00915475      -0.98287898       0.22606645
N       -1.81693479      -1.31835587      -0.85096000
H       -1.41690742       1.85825132      -0.30640599
H       -0.76873082       1.28821439       1.24756308
H        0.31028801       1.89791407       0.01444829
H       -0.17848460       0.06753434      -1.45706277
H        0.85553954      -1.81544119      -0.24057869
H        0.66021663      -0.89836596       1.26806625
H        2.69497202      -0.46176848       0.28132790
13
Frame=15 idx=002868 GeodesicLength=1.0747625950101225 rxn_smarts="[C:1]([C@@:2]([C:3]([O:4][H:13])([H:11])[H:12])([C:5]#[N:6])[H:10])([H:7])([H:8])[H:9]>>[C:1]([C@@:2]([C:3]([O:4][H:13])([H:11])[H:12])([N+:6]#[C-:5])[H:10])([H:7])([H:8])[H:9]"
C       -0.60102068       1.31693050       0.16427506
C       -0.43786458      -0.09433073      -0.40582184
C        0.78386218      -0.80738859       0.18508888
O        1.93666663      -0.05464117      -0.12290280
C       -1.97034446      -1.04077680       0.25142228
N       -1.86981641      -1.23878482      -0.87004225
H       -1.42615157       1.84400094      -0.31355682
H       -0.77276305       1.28858410       1.24134397
H        0.30615759       1.89888807       0.00627275
H       -0.16739025       0.06327148      -1.45926695
H        0.85489547      -1.81679942      -0.23501506
H        0.66423469      -0.89427642       1.27254978
H        2.69953444      -0.46467714       0.28565298
13
Frame=16 idx=002868 GeodesicLength=1.1507646026956009 rxn_smarts="[C:1]([C@@:2]([C:3]([O:4][H:13])([H:11])[H:12])([C:5]#[N:6])[H:10])([H:7])([H:8])[H:9]>>[C:1]([C@@:2]([C:3]([O:4][H:13])([H:11])[H:12])([N+:6]#[C-:5])[H:10])([H:7])([H:8])[H:9]"
C       -0.60207989       1.31468093       0.15811295
C       -0.43249028      -0.09848355      -0.40921348
C        0.78893865      -0.80781531       0.18817708
O        1.94143150      -0.05337165      -0.11534505
C       -1.93110870      -1.10035076       0.26573090
N       -1.92538074      -1.15337064      -0.87524122
H       -1.43381729       1.82967036      -0.32158900
H       -0.77810085       1.28727651       1.23456115
H        0.30288739       1.89908074      -0.00109261
H       -0.15848999       0.05651685      -1.46254176
H        0.85620849      -1.81815729      -0.23075485
H        0.66820961      -0.89126240       1.27605807
H        2.70379211      -0.46441379       0.29313782
