9
Frame=0 idx=003177 GeodesicLength=0.0 rxn_smarts="[O:1]([c:2]1[c:3]([H:8])[o:4][c:5]([H:9])[n:6]1)[H:7]>>[O:1]([C:2](=[C:3]([O-:4])[H:8])[N+:6]#[C:5][H:9])[H:7]"
O        1.91743944      -0.20384170       0.15807427
C        0.57641079      -0.06099226       0.04968244
C       -0.02610708       1.23766861      -0.17687027
O       -1.23904001       1.32993963      -0.24230470
C       -1.49982442      -1.07316821      -0.19811811
N       -0.28966568      -1.00873777       0.07529337
H        2.15333880      -1.12830426       0.04950254
H        0.64115165       2.09801841      -0.31858643
H       -2.23370353      -1.19058243       0.60332685
9
Frame=1 idx=003177 GeodesicLength=0.04229135809174816 rxn_smarts="[O:1]([c:2]1[c:3]([H:8])[o:4][c:5]([H:9])[n:6]1)[H:7]>>[O:1]([C:2](=[C:3]([O-:4])[H:8])[N+:6]#[C:5][H:9])[H:7]"
O        1.92072256      -0.20519883       0.14771955
C        0.57849760      -0.05661563       0.06941551
C       -0.02319262       1.23853051      -0.16530103
O       -1.23977592       1.31336011      -0.25794443
C       -1.49703657      -1.05437522      -0.19522994
N       -0.28745191      -1.00803327       0.08911399
H        2.14922707      -1.13153071       0.03871617
H        0.63776506       2.10047834      -0.32080978
H       -2.23875527      -1.19661529       0.59431998
9
Frame=2 idx=003177 GeodesicLength=0.08458858055638813 rxn_smarts="[O:1]([c:2]1[c:3]([H:8])[o:4][c:5]([H:9])[n:6]1)[H:7]>>[O:1]([C:2](=[C:3]([O-:4])[H:8])[N+:6]#[C:5][H:9])[H:7]"
O        1.92339953      -0.20654500       0.13764560
C        0.58072581      -0.05245396       0.08615445
C       -0.02030708       1.23908933      -0.15664769
O       -1.24003966       1.29694809      -0.27304061
C       -1.49428561      -1.03625074      -0.19140826
N       -0.28534925      -1.00726085       0.10258722
H        2.14491645      -1.13470238       0.02918404
H        0.63431052       2.10349413      -0.32034226
H       -2.24337072      -1.20231862       0.58586749
9
Frame=3 idx=003177 GeodesicLength=0.12687035816072556 rxn_smarts="[O:1]([c:2]1[c:3]([H:8])[o:4][c:5]([H:9])[n:6]1)[H:7]>>[O:1]([C:2](=[C:3]([O-:4])[H:8])[N+:6]#[C:5][H:9])[H:7]"
O        1.92557699      -0.20790977       0.12811596
C        0.58303833      -0.04848638       0.10026693
C       -0.01741597       1.23945323      -0.15016668
O       -1.23999693       1.28090796      -0.28676822
C       -1.49170035      -1.01856304      -0.18695435
N       -0.28335662      -1.00647540       0.11512401
H        2.14048586      -1.13785609       0.02112579
H        0.63081852       2.10689456      -0.31859077
H       -2.24744984      -1.20796508       0.57784733
9
Frame=4 idx=003177 GeodesicLength=0.16915294571524264 rxn_smarts="[O:1]([c:2]1[c:3]([H:8])[o:4][c:5]([H:9])[n:6]1)[H:7]>>[O:1]([C:2](=[C:3]([O-:4])[H:8])[N+:6]#[C:5][H:9])[H:7]"
O        1.92740845      -0.20931275       0.11900092
C        0.58542803      -0.04460740       0.11270829
C       -0.01450432       1.23971524      -0.14503647
O       -1.23973454       1.26521489      -0.29930085
C       -1.48911373      -1.00133541      -0.18199948
N       -0.28145249      -1.00561040       0.12736288
H        2.13595619      -1.14098628       0.01387941
H        0.62730762       2.11051362      -0.31632565
H       -2.25129520      -1.21359152       0.56971095
9
Frame=5 idx=003177 GeodesicLength=0.21141347391574644 rxn_smarts="[O:1]([c:2]1[c:3]([H:8])[o:4][c:5]([H:9])[n:6]1)[H:7]>>[O:1]([C:2](=[C:3]([O-:4])[H:8])[N+:6]#[C:5][H:9])[H:7]"
O        1.92894680      -0.21075321       0.11052503
C        0.58785263      -0.04081195       0.12366094
C       -0.01153457       1.23994557      -0.14097169
O       -1.23939320       1.25007944      -0.30983510
C       -1.48664933      -0.98437365      -0.17673924
N       -0.27963489      -1.00471048       0.13878497
H        2.13138533      -1.14409820       0.00770427
H        0.62383422       2.11417317      -0.31450654
H       -2.25480699      -1.21945069       0.56137736
9
Frame=6 idx=003177 GeodesicLength=0.25366557366317605 rxn_smarts="[O:1]([c:2]1[c:3]([H:8])[o:4][c:5]([H:9])[n:6]1)[H:7]>>[O:1]([C:2](=[C:3]([O-:4])[H:8])[N+:6]#[C:5][H:9])[H:7]"
O        1.93024225      -0.21221368       0.10275857
C        0.59028355      -0.03707816       0.13331172
C       -0.00845340       1.24020707      -0.13773504
O       -1.23918585       1.23576567      -0.31734779
C       -1.48434522      -0.96752021      -0.17136488
N       -0.27790166      -1.00378495       0.14908443
H        2.12682211      -1.14720249       0.00292410
H        0.62049598       2.11764331      -0.31417774
H       -2.25795777      -1.22581656       0.55254662
9
Frame=7 idx=003177 GeodesicLength=0.29588406171030535 rxn_smarts="[O:1]([c:2]1[c:3]([H:8])[o:4][c:5]([H:9])[n:6]1)[H:7]>>[O:1]([C:2](=[C:3]([O-:4])[H:8])[N+:6]#[C:5][H:9])[H:7]"
O        1.93135775      -0.21371930       0.09547956
C        0.59272434      -0.03339278       0.14190343
C       -0.00527856       1.24047340      -0.13529576
O       -1.23907000       1.22209187      -0.32278538
C       -1.48216043      -0.95086092      -0.16571366
N       -0.27623571      -1.00282876       0.15864992
H        2.12227153      -1.15031565      -0.00086372
H        0.61723505       2.12105832      -0.31465706
H       -2.26084397      -1.23250619       0.54328268
9
Frame=8 idx=003177 GeodesicLength=0.3381026434849728 rxn_smarts="[O:1]([c:2]1[c:3]([H:8])[o:4][c:5]([H:9])[n:6]1)[H:7]>>[O:1]([C:2](=[C:3]([O-:4])[H:8])[N+:6]#[C:5][H:9])[H:7]"
O        1.93233532      -0.21530175       0.08816253
C        0.59521828      -0.02969139       0.14985352
C       -0.00206578       1.24069504      -0.13351916
O       -1.23889028       1.20862876      -0.32801710
C       -1.47986621      -0.93466745      -0.15952458
N       -0.27462057      -1.00174095       0.16862889
H        2.11763333      -1.15346308      -0.00452786
H        0.61394840       2.12465162      -0.31462765
H       -2.26369249      -1.23911080       0.53357142
9
Frame=9 idx=003177 GeodesicLength=0.38030823990395096 rxn_smarts="[O:1]([c:2]1[c:3]([H:8])[o:4][c:5]([H:9])[n:6]1)[H:7]>>[O:1]([C:2](=[C:3]([O-:4])[H:8])[N+:6]#[C:5][H:9])[H:7]"
O        1.93318446      -0.21697083       0.08082642
C        0.59776328      -0.02596157       0.15726405
C        0.00117933       1.24088966      -0.13230051
O       -1.23862016       1.19535221      -0.33314399
C       -1.47748296      -0.91889483      -0.15279966
N       -0.27305154      -1.00050912       0.17904427
H        2.11288842      -1.15664802      -0.00815572
H        0.61062586       2.12841102      -0.31414260
H       -2.26648670      -1.24566853       0.52340775
9
Frame=10 idx=003177 GeodesicLength=0.42251528483074874 rxn_smarts="[O:1]([c:2]1[c:3]([H:8])[o:4][c:5]([H:9])[n:6]1)[H:7]>>[O:1]([C:2](=[C:3]([O-:4])[H:8])[N+:6]#[C:5][H:9])[H:7]"
O        1.93390592      -0.21875773       0.07324500
C        0.60039091      -0.02215173       0.16441197
C        0.00441528       1.24103133      -0.13153541
O       -1.23807616       1.18192087      -0.33948822
C       -1.47486578      -0.90370240      -0.14537948
N       -0.27152347      -0.99903948       0.19067777
H        2.10791670      -1.15988458      -0.01242835
H        0.60716724       2.13250298      -0.31233776
H       -2.26933064      -1.25191926       0.51283448
9
Frame=11 idx=003177 GeodesicLength=0.46472656378619914 rxn_smarts="[O:1]([c:2]1[c:3]([H:8])[o:4][c:5]([H:9])[n:6]1)[H:7]>>[O:1]([C:2](=[C:3]([O-:4])[H:8])[N+:6]#[C:5][H:9])[H:7]"
O        1.93448719      -0.22067997       0.06540540
C        0.60310948      -0.01822969       0.17142179
C        0.00763741       1.24114030      -0.13112601
O       -1.23719933       1.16827241      -0.34719275
C       -1.47199834      -0.88905657      -0.13727457
N       -0.27003208      -0.99727458       0.20366711
H        2.10264034      -1.16319290      -0.01747479
H        0.60354698       2.13692486      -0.30923858
H       -2.27219166      -1.25790385       0.50181239
9
Frame=12 idx=003177 GeodesicLength=0.5069409142261005 rxn_smarts="[O:1]([c:2]1[c:3]([H:8])[o:4][c:5]([H:9])[n:6]1)[H:7]>>[O:1]([C:2](=[C:3]([O-:4])[H:8])[N+:6]#[C:5][H:9])[H:7]"
O        1.93493002      -0.22270142       0.05781970
C        0.60585498      -0.01422400       0.17804404
C        0.01098637       1.24134034      -0.13106107
O       -1.23647568       1.15523898      -0.35289152
C       -1.46913713      -0.87449084      -0.12889814
N       -0.26860566      -0.99529088       0.21666426
H        2.09720916      -1.16657949      -0.02199396
H        0.60004949       2.14117950      -0.30741852
H       -2.27481156      -1.26447218       0.48973521
9
Frame=13 idx=003177 GeodesicLength=0.5491498600396094 rxn_smarts="[O:1]([c:2]1[c:3]([H:8])[o:4][c:5]([H:9])[n:6]1)[H:7]>>[O:1]([C:2](=[C:3]([O-:4])[H:8])[N+:6]#[C:5][H:9])[H:7]"
O        1.93523590      -0.22485201       0.05033599
C        0.60864639      -0.01010797       0.18439256
C        0.01443870       1.24160980      -0.13135553
O       -1.23582299       1.14264261      -0.35735753
C       -1.46622306      -0.86008584      -0.12009819
N       -0.26723871      -0.99302822       0.23011453
H        2.09155156      -1.17006887      -0.02633438
H        0.59662360       2.14538576      -0.30631097
H       -2.27721140      -1.27149525       0.47661352
9
Frame=14 idx=003177 GeodesicLength=0.5913703932948303 rxn_smarts="[O:1]([c:2]1[c:3]([H:8])[o:4][c:5]([H:9])[n:6]1)[H:7]>>[O:1]([C:2](=[C:3]([O-:4])[H:8])[N+:6]#[C:5][H:9])[H:7]"
O        1.93538629      -0.22716941       0.04282453
C        0.61150761      -0.00582759       0.19063894
C        0.01798428       1.24194627      -0.13198035
O       -1.23516619       1.13033123      -0.36115036
C       -1.46316123      -0.84590423      -0.11075935
N       -0.26593595      -0.99037300       0.24456621
H        2.08553926      -1.17369506      -0.03086626
H        0.59323548       2.14961755      -0.30558042
H       -2.27938955      -1.27892575       0.46230707
9
Frame=15 idx=003177 GeodesicLength=0.6336117665017492 rxn_smarts="[O:1]([c:2]1[c:3]([H:8])[o:4][c:5]([H:9])[n:6]1)[H:7]>>[O:1]([C:2](=[C:3]([O-:4])[H:8])[N+:6]#[C:5][H:9])[H:7]"
O        1.93536479      -0.22968417       0.03532281
C        0.61444269      -0.00133776       0.19687274
C        0.02165233       1.24238237      -0.13293212
O       -1.23456027       1.11840896      -0.36388928
C       -1.45995914      -0.83186200      -0.10083879
N       -0.26471448      -0.98723332       0.26016260
H        2.07908448      -1.17749227      -0.03560558
H        0.58994721       2.15381744      -0.30559074
H       -2.28125760      -1.28699926       0.44649836
9
Frame=16 idx=003177 GeodesicLength=0.6758595832706015 rxn_smarts="[O:1]([c:2]1[c:3]([H:8])[o:4][c:5]([H:9])[n:6]1)[H:7]>>[O:1]([C:2](=[C:3]([O-:4])[H:8])[N+:6]#[C:5][H:9])[H:7]"
O        1.93515242      -0.23241686       0.02779684
C        0.61743764       0.00334337       0.20300004
C        0.02543693       1.24290911      -0.13425220
O       -1.23406831       1.10693409      -0.36542454
C       -1.45667537      -0.81790755      -0.09027094
N       -0.26356910      -0.98361375       0.27673706
H        2.07218919      -1.18149139      -0.04036324
H        0.58675887       2.15797505      -0.30637772
H       -2.28266226      -1.29573208       0.42915470
