11
Frame=0 idx=006127 GeodesicLength=0.0 rxn_smarts="[N:1]#[C:2][C:3]1([H:7])[C:4]([H:8])([H:9])[O:5][C:6]1([H:10])[H:11]>>[N:1]#[C:2][C:3](=[C:4]([H:8])[H:9])[H:7].[O:5]=[C:6]([H:10])[H:11]"
N        2.58783229      -0.33250626       0.85314712
C        1.61587267      -0.64800574       0.30723979
C        0.39272073      -0.87704633      -0.34480146
C       -0.84556703      -0.59439721       0.40166056
O       -1.36750807       0.75067030      -0.10782950
C       -0.36410048       1.42679027      -0.49346331
H        0.37008863      -1.64321969      -1.10763230
H       -0.72581674      -0.47275482       1.47728728
H       -1.68704219      -1.24843377       0.18801348
H        0.62564363       1.34511153      -0.06591325
H       -0.60212347       2.29379169      -1.10770840
11
Frame=1 idx=006127 GeodesicLength=0.07808377676493627 rxn_smarts="[N:1]#[C:2][C:3]1([H:7])[C:4]([H:8])([H:9])[O:5][C:6]1([H:10])[H:11]>>[N:1]#[C:2][C:3](=[C:4]([H:8])[H:9])[H:7].[O:5]=[C:6]([H:10])[H:11]"
N        2.59122223      -0.32980785       0.84050263
C        1.61386303      -0.65134663       0.30931032
C        0.38810711      -0.87592547      -0.34438765
C       -0.84969312      -0.61039398       0.40374202
O       -1.36776187       0.76713708      -0.09676611
C       -0.35774940       1.42626958      -0.50201741
H        0.37119790      -1.64538901      -1.10468518
H       -0.73459318      -0.47727721       1.47828517
H       -1.68835573      -1.26717890       0.18782658
H        0.62518930       1.37049934      -0.05268734
H       -0.59142626       2.29341305      -1.11912303
11
Frame=2 idx=006127 GeodesicLength=0.15622606085115126 rxn_smarts="[N:1]#[C:2][C:3]1([H:7])[C:4]([H:8])([H:9])[O:5][C:6]1([H:10])[H:11]>>[N:1]#[C:2][C:3](=[C:4]([H:8])[H:9])[H:7].[O:5]=[C:6]([H:10])[H:11]"
N        2.59424438      -0.32658719       0.82741316
C        1.61162298      -0.65479628       0.31158511
C        0.38324705      -0.87473626      -0.34384406
C       -0.85399083      -0.62676127       0.40590013
O       -1.36753310       0.78418503      -0.08501780
C       -0.35109594       1.42621990      -0.50897217
H        0.37220464      -1.64688490      -1.10220307
H       -0.74386071      -0.48222806       1.47926114
H       -1.68959331      -1.28654180       0.18758961
H        0.62480922       1.39647758      -0.03988448
H       -0.58005437       2.29165326      -1.13182758
11
Frame=3 idx=006127 GeodesicLength=0.23438631955211003 rxn_smarts="[N:1]#[C:2][C:3]1([H:7])[C:4]([H:8])([H:9])[O:5][C:6]1([H:10])[H:11]>>[N:1]#[C:2][C:3](=[C:4]([H:8])[H:9])[H:7].[O:5]=[C:6]([H:10])[H:11]"
N        2.59683994      -0.32289346       0.81396176
C        1.60916818      -0.65836877       0.31406200
C        0.37815850      -0.87355789      -0.34315220
C       -0.85844454      -0.64349426       0.40808637
O       -1.36679808       0.80174699      -0.07281597
C       -0.34411374       1.42652996      -0.51470555
H        0.37312581      -1.64790034      -1.10004082
H       -0.75363052      -0.48739201       1.48013414
H       -1.69069016      -1.30661453       0.18738749
H        0.62457898       1.42303144      -0.02776305
H       -0.56819436       2.28891286      -1.14515416
11
Frame=4 idx=006127 GeodesicLength=0.31258488370960624 rxn_smarts="[N:1]#[C:2][C:3]1([H:7])[C:4]([H:8])([H:9])[O:5][C:6]1([H:10])[H:11]>>[N:1]#[C:2][C:3](=[C:4]([H:8])[H:9])[H:7].[O:5]=[C:6]([H:10])[H:11]"
N        2.59896315      -0.31879753       0.80021844
C        1.60650794      -0.66207135       0.31672677
C        0.37284831      -0.87241733      -0.34230892
C       -0.86304102      -0.66060458       0.41028248
O       -1.36555278       0.81980753      -0.06025440
C       -0.33679073       1.42714567      -0.51940844
H        0.37396748      -1.64850376      -1.09814655
H       -0.76391258      -0.49265989       1.48086054
H       -1.69158807      -1.32748498       0.18728754
H        0.62455767       1.45017937      -0.01643131
H       -0.55595936       2.28540686      -1.15882616
11
Frame=5 idx=006127 GeodesicLength=0.39078136704125943 rxn_smarts="[N:1]#[C:2][C:3]1([H:7])[C:4]([H:8])([H:9])[O:5][C:6]1([H:10])[H:11]>>[N:1]#[C:2][C:3](=[C:4]([H:8])[H:9])[H:7].[O:5]=[C:6]([H:10])[H:11]"
N        2.60055504      -0.31436141       0.78626925
C        1.60364698      -0.66589688       0.31954533
C        0.36731019      -0.87131341      -0.34132491
C       -0.86777414      -0.67809093       0.41246946
O       -1.36377501       0.83837276      -0.04736994
C       -0.32912177       1.42804716      -0.52322341
H        0.37471192      -1.64870486      -1.09650259
H       -0.77471454      -0.49794688       1.48139139
H       -1.69222181      -1.34923741       0.18734606
H        0.62479891       1.47796329      -0.00597362
H       -0.54341577       2.28116856      -1.17262702
11
Frame=6 idx=006127 GeodesicLength=0.4690048831212942 rxn_smarts="[N:1]#[C:2][C:3]1([H:7])[C:4]([H:8])([H:9])[O:5][C:6]1([H:10])[H:11]>>[N:1]#[C:2][C:3](=[C:4]([H:8])[H:9])[H:7].[O:5]=[C:6]([H:10])[H:11]"
N        2.60155933      -0.30965185       0.77222300
C        1.60059339      -0.66985306       0.32248635
C        0.36153899      -0.87024565      -0.34021125
C       -0.87263121      -0.69597391       0.41464444
O       -1.36144507       0.85746522      -0.03414768
C       -0.32109186       1.42921601      -0.52621921
H        0.37534051      -1.64849648      -1.09512678
H       -0.78603853      -0.50322152       1.48169702
H       -1.69253194      -1.37195458       0.18761915
H        0.62535225       1.50642288       0.00354191
H       -0.53064585       2.27629295      -1.18650696
11
Frame=7 idx=006127 GeodesicLength=0.5472418228731271 rxn_smarts="[N:1]#[C:2][C:3]1([H:7])[C:4]([H:8])([H:9])[O:5][C:6]1([H:10])[H:11]>>[N:1]#[C:2][C:3](=[C:4]([H:8])[H:9])[H:7].[O:5]=[C:6]([H:10])[H:11]"
N        2.60192284      -0.30473150       0.75818709
C        1.59735047      -0.67394673       0.32551317
C        0.35552489      -0.86920806      -0.33897905
C       -0.87760514      -0.71426478       0.41680077
O       -1.35852826       0.87711185      -0.02056476
C       -0.31269316       1.43064110      -0.52846113
H        0.37583306      -1.64785198      -1.09404033
H       -0.79789912      -0.50844870       1.48174075
H       -1.69245085      -1.39572263       0.18816290
H        0.62626469       1.53559696       0.01204627
H       -0.51771942       2.27082448      -1.20040569
11
Frame=8 idx=006127 GeodesicLength=0.6254555177505547 rxn_smarts="[N:1]#[C:2][C:3]1([H:7])[C:4]([H:8])([H:9])[O:5][C:6]1([H:10])[H:11]>>[N:1]#[C:2][C:3](=[C:4]([H:8])[H:9])[H:7].[O:5]=[C:6]([H:10])[H:11]"
N        2.60157149      -0.29963473       0.74427304
C        1.59391620      -0.67817310       0.32857674
C        0.34924815      -0.86817512      -0.33765031
C       -0.88269623      -0.73296394       0.41892246
O       -1.35497619       0.89736170      -0.00657531
C       -0.30391052       1.43234083      -0.52998210
H        0.37615409      -1.64672683      -1.09328543
H       -0.81031625      -0.51359725       1.48147409
H       -1.69190481      -1.42062510       0.18902604
H        0.62757731       1.56554841       0.01945214
H       -0.50466324       2.26464512      -1.21423137
11
Frame=9 idx=006127 GeodesicLength=0.7036357322850764 rxn_smarts="[N:1]#[C:2][C:3]1([H:7])[C:4]([H:8])([H:9])[O:5][C:6]1([H:10])[H:11]>>[N:1]#[C:2][C:3](=[C:4]([H:8])[H:9])[H:7].[O:5]=[C:6]([H:10])[H:11]"
N        2.60044391      -0.29438878       0.73056367
C        1.59029467      -0.68255020       0.33167070
C        0.34270059      -0.86716891      -0.33622443
C       -0.88789915      -0.75208833       0.42100527
O       -1.35074573       0.91824048       0.00781107
C       -0.29472408       1.43428624      -0.53081693
H        0.37630192      -1.64512740      -1.09288417
H       -0.82331326      -0.51863880       1.48086925
H       -1.69083798      -1.44672949       0.19025520
H        0.62931223       1.59631594       0.02560320
H       -0.49153312       2.25784925      -1.22785283
11
Frame=10 idx=006127 GeodesicLength=0.7818330850382942 rxn_smarts="[N:1]#[C:2][C:3]1([H:7])[C:4]([H:8])([H:9])[O:5][C:6]1([H:10])[H:11]>>[N:1]#[C:2][C:3](=[C:4]([H:8])[H:9])[H:7].[O:5]=[C:6]([H:10])[H:11]"
N        2.59849999      -0.28904286       0.71718207
C        1.58646827      -0.68708434       0.33473829
C        0.33584754      -0.86611925      -0.33472739
C       -0.89321905      -0.77165866       0.42304310
O       -1.34578944       0.93983345       0.02276088
C       -0.28511672       1.43652744      -0.53094163
H        0.37620669      -1.64290078      -1.09292272
H       -0.83693812      -0.52359862       1.47987727
H       -1.68914774      -1.47415338       0.19189675
H        0.63153955       1.62796757       0.03053283
H       -0.47835096       2.25022943      -1.24143947
11
Frame=11 idx=006127 GeodesicLength=0.8600619986375478 rxn_smarts="[N:1]#[C:2][C:3]1([H:7])[C:4]([H:8])([H:9])[O:5][C:6]1([H:10])[H:11]>>[N:1]#[C:2][C:3](=[C:4]([H:8])[H:9])[H:7].[O:5]=[C:6]([H:10])[H:11]"
N        2.59571328      -0.28360514       0.70420713
C        1.58242103      -0.69180458       0.33776880
C        0.32866490      -0.86500987      -0.33316103
C       -0.89866239      -0.79169992       0.42502629
O       -1.34005159       0.96219309       0.03836162
C       -0.27506036       1.43906764      -0.53035218
H        0.37583436      -1.63998996      -1.09344217
H       -0.85125510      -0.52848164       1.47845082
H       -1.68674875      -1.50298979       0.19399047
H        0.63430461       1.66053946       0.03416031
H       -0.46515998       2.24178069      -1.25501004
11
Frame=12 idx=006127 GeodesicLength=0.9383445602636102 rxn_smarts="[N:1]#[C:2][C:3]1([H:7])[C:4]([H:8])([H:9])[O:5][C:6]1([H:10])[H:11]>>[N:1]#[C:2][C:3](=[C:4]([H:8])[H:9])[H:7].[O:5]=[C:6]([H:10])[H:11]"
N        2.59203596      -0.27809574       0.69172548
C        1.57813455      -0.69673210       0.34075214
C        0.32112531      -0.86382131      -0.33152595
C       -0.90424002      -0.81223428       0.42693526
O       -1.33345132       0.98539165       0.05470108
C       -0.26452552       1.44191632      -0.52904526
H        0.37515055      -1.63632152      -1.09449052
H       -0.86634404      -0.53328099       1.47653195
H       -1.68353271      -1.53334742       0.19658252
H        0.63766154       1.69407924       0.03637014
H       -0.45201431       2.23244614      -1.26853683
11
Frame=13 idx=006127 GeodesicLength=1.0166976796948293 rxn_smarts="[N:1]#[C:2][C:3]1([H:7])[C:4]([H:8])([H:9])[O:5][C:6]1([H:10])[H:11]>>[N:1]#[C:2][C:3](=[C:4]([H:8])[H:9])[H:7].[O:5]=[C:6]([H:10])[H:11]"
N        2.58742622      -0.27251976       0.67983227
C        1.57358717      -0.70188580       0.34366409
C        0.31319516      -0.86250635      -0.32983167
C       -0.90996294      -0.83328307       0.42875583
O       -1.32591781       1.00950072       0.07192373
C       -0.25347400       1.44510573      -0.52698061
H        0.37409874      -1.63177791      -1.09613973
H       -0.88228145      -0.53801811       1.47405510
H       -1.67938988      -1.56531783       0.19971414
H        0.64165510       1.72863087       0.03709978
H       -0.43893630       2.22207152      -1.28209293
11
Frame=14 idx=006127 GeodesicLength=1.0951272260395577 rxn_smarts="[N:1]#[C:2][C:3]1([H:7])[C:4]([H:8])([H:9])[O:5][C:6]1([H:10])[H:11]>>[N:1]#[C:2][C:3](=[C:4]([H:8])[H:9])[H:7].[O:5]=[C:6]([H:10])[H:11]"
N        2.58183708      -0.26687491       0.66860629
C        1.56875055      -0.70729894       0.34650388
C        0.30484189      -0.86104460      -0.32807365
C       -0.91585044      -0.85486838       0.43045450
O       -1.31732878       1.03459598       0.09013578
C       -0.24186314       1.44864924      -0.52414135
H        0.37264129      -1.62628999      -1.09843016
H       -0.89920417      -0.54267372       1.47092147
H       -1.67417406      -1.59902153       0.20344301
H        0.64634883       1.76423178       0.03618533
H       -0.42599904       2.21059509      -1.29560509
11
Frame=15 idx=006127 GeodesicLength=1.1736635634826555 rxn_smarts="[N:1]#[C:2][C:3]1([H:7])[C:4]([H:8])([H:9])[O:5][C:6]1([H:10])[H:11]>>[N:1]#[C:2][C:3](=[C:4]([H:8])[H:9])[H:7].[O:5]=[C:6]([H:10])[H:11]"
N        2.57521898      -0.26115668       0.65813455
C        1.56359645      -0.71300278       0.34926571
C        0.29602956      -0.85940112      -0.32624880
C       -0.92191819      -0.87702010       0.43200303
O       -1.30756681       1.06075678       0.10949095
C       -0.22964021       1.45256725      -0.52048558
H        0.37072803      -1.61974707      -1.10142062
H       -0.91725061      -0.54725052       1.46702603
H       -1.66773247      -1.63456388       0.20782474
H        0.65179546       1.80091336       0.03348779
H       -0.41326020       2.19790476      -1.30907779
11
Frame=16 idx=006127 GeodesicLength=1.2523342470811782 rxn_smarts="[N:1]#[C:2][C:3]1([H:7])[C:4]([H:8])([H:9])[O:5][C:6]1([H:10])[H:11]>>[N:1]#[C:2][C:3](=[C:4]([H:8])[H:9])[H:7].[O:5]=[C:6]([H:10])[H:11]"
N        2.56751085      -0.25535556       0.64851341
C        1.55809331      -0.71903546       0.35194946
C        0.28671921      -0.85754022      -0.32435408
C       -0.92818913      -0.89976518       0.43335780
O       -1.29647939       1.08806674       0.13014969
C       -0.21674260       1.45688497      -0.51596646
H        0.36830309      -1.61204900      -1.10517281
H       -0.93658724      -0.55173829       1.46223587
H       -1.65987893      -1.67205864       0.21292910
H        0.65804987       1.83871013       0.02882649
H       -0.40079904       2.18388051      -1.32246846
