16
Frame=0 idx=004014 GeodesicLength=0.0 rxn_smarts="[C:1]([C:2]([O:3][C:4]1([H:12])[C:5]([H:13])([H:14])[C:6]1([H:15])[H:16])([H:10])[H:11])([H:7])([H:8])[H:9]>>[C:1]([C:2]([O:3][C:6]([C:4](=[C:5]([H:13])[H:14])[H:12])([H:15])[H:16])([H:10])[H:11])([H:7])([H:8])[H:9]"
C        2.42512767       0.24192828      -0.49027034
C        1.33726327      -0.27491028       0.43434894
O        0.17865092       0.50140593       0.33913493
C       -1.36934633      -0.32367702       0.29185767
C       -2.40736629       0.25339394       1.01387663
C       -1.43506181       0.02837314      -1.06101308
H        3.34147296      -0.34520346      -0.39143627
H        2.65282190       1.28363287      -0.25898358
H        2.09266128       0.19241671      -1.52974570
H        1.12200986      -1.33183460       0.19237423
H        1.69803241      -0.26307299       1.47296754
H       -1.06046499      -1.33316186       0.54709247
H       -2.77879930      -0.18389919       1.93110483
H       -2.82762166       1.19681783       0.69330361
H       -1.17703970      -0.65706150      -1.86018874
H       -1.79234015       1.01485227      -1.32442309
16
Frame=1 idx=004014 GeodesicLength=0.07073054022457938 rxn_smarts="[C:1]([C:2]([O:3][C:4]1([H:12])[C:5]([H:13])([H:14])[C:6]1([H:15])[H:16])([H:10])[H:11])([H:7])([H:8])[H:9]>>[C:1]([C:2]([O:3][C:6]([C:4](=[C:5]([H:13])[H:14])[H:12])([H:15])[H:16])([H:10])[H:11])([H:7])([H:8])[H:9]"
C        2.42841688       0.25012839      -0.49789535
C        1.34701200      -0.28120088       0.42575514
O        0.17930031       0.48031196       0.32499613
C       -1.36834594      -0.33840789       0.31575006
C       -2.42422118       0.25392049       0.99706304
C       -1.43099223       0.02922067      -1.03692330
H        3.35331525      -0.32235658      -0.39350291
H        2.64070435       1.29562834      -0.26894851
H        2.10081182       0.19237765      -1.53838842
H        1.14544481      -1.34102210       0.18668721
H        1.70184752      -0.25713125       1.46591138
H       -1.07574361      -1.35277242       0.56850146
H       -2.84803830      -0.19551603       1.88540446
H       -2.78688873       1.23121404       0.70918067
H       -1.20856693      -0.66989794      -1.83541328
H       -1.75405602       1.02550356      -1.30817779
16
Frame=2 idx=004014 GeodesicLength=0.14127214062232646 rxn_smarts="[C:1]([C:2]([O:3][C:4]1([H:12])[C:5]([H:13])([H:14])[C:6]1([H:15])[H:16])([H:10])[H:11])([H:7])([H:8])[H:9]>>[C:1]([C:2]([O:3][C:6]([C:4](=[C:5]([H:13])[H:14])[H:12])([H:15])[H:16])([H:10])[H:11])([H:7])([H:8])[H:9]"
C        2.43160309       0.25832919      -0.50545953
C        1.35692036      -0.28788109       0.41708987
O        0.18032715       0.45885443       0.31140240
C       -1.36728963      -0.35168449       0.34034698
C       -2.43983505       0.25590223       0.98011820
C       -1.42664117       0.02989460      -1.01267704
H        3.36478286      -0.29951914      -0.39596402
H        2.62851444       1.30728043      -0.27827099
H        2.10889441       0.19309919      -1.54696678
H        1.16891275      -1.35027578       0.18028556
H        1.70569632      -0.25242793       1.45870518
H       -1.09187517      -1.37098566       0.59070090
H       -2.91576077      -0.20430212       1.83616891
H       -2.74784350       1.26124039       0.72676963
H       -1.23943892      -0.68163035      -1.80977228
H       -1.71696716       1.03410613      -1.29247700
16
Frame=3 idx=004014 GeodesicLength=0.21168048287602542 rxn_smarts="[C:1]([C:2]([O:3][C:4]1([H:12])[C:5]([H:13])([H:14])[C:6]1([H:15])[H:16])([H:10])[H:11])([H:7])([H:8])[H:9]>>[C:1]([C:2]([O:3][C:6]([C:4](=[C:5]([H:13])[H:14])[H:12])([H:15])[H:16])([H:10])[H:11])([H:7])([H:8])[H:9]"
C        2.43455292       0.26643405      -0.51285160
C        1.36691973      -0.29487399       0.40840499
O        0.18166934       0.43696082       0.29832083
C       -1.36617166      -0.36356775       0.36544899
C       -2.45398661       0.25902413       0.96305392
C       -1.42205046       0.03051285      -0.98828106
H        3.37570685      -0.27673438      -0.39864723
H        2.61617611       1.31841075      -0.28696861
H        2.11668941       0.19433637      -1.55526615
H        1.19233221      -1.35945087       0.17337054
H        1.70958005      -0.24871283       1.45131284
H       -1.10883636      -1.38770844       0.61329013
H       -2.98056136      -0.21024519       1.78384698
H       -2.71126288       1.28676594       0.74533241
H       -1.26989471      -0.69208188      -1.78327983
H       -1.68086257       1.04093044      -1.27708715
16
Frame=4 idx=004014 GeodesicLength=0.2818411676795596 rxn_smarts="[C:1]([C:2]([O:3][C:4]1([H:12])[C:5]([H:13])([H:14])[C:6]1([H:15])[H:16])([H:10])[H:11])([H:7])([H:8])[H:9]>>[C:1]([C:2]([O:3][C:6]([C:4](=[C:5]([H:13])[H:14])[H:12])([H:15])[H:16])([H:10])[H:11])([H:7])([H:8])[H:9]"
C        2.43722921       0.27465788      -0.52002123
C        1.37689311      -0.30235045       0.39963503
O        0.18309579       0.41448325       0.28571680
C       -1.36517127      -0.37434992       0.39099946
C       -2.46677868       0.26323136       0.94606201
C       -1.41724832       0.03079521      -0.96400775
H        3.38610593      -0.25387981      -0.40160743
H        2.60354485       1.32929942      -0.29462614
H        2.12427951       0.19665275      -1.56339917
H        1.21574739      -1.36880966       0.16558075
H        1.71323521      -0.24642083       1.44383828
H       -1.12670690      -1.40328539       0.63640069
H       -3.04195288      -0.21294223       1.72954113
H       -2.67703979       1.30868146       0.76453939
H       -1.29940878      -0.70170745      -1.75625116
H       -1.64582437       1.04594442      -1.26240068
16
Frame=5 idx=004014 GeodesicLength=0.3518523718116354 rxn_smarts="[C:1]([C:2]([O:3][C:4]1([H:12])[C:5]([H:13])([H:14])[C:6]1([H:15])[H:16])([H:10])[H:11])([H:7])([H:8])[H:9]>>[C:1]([C:2]([O:3][C:6]([C:4](=[C:5]([H:13])[H:14])[H:12])([H:15])[H:16])([H:10])[H:11])([H:7])([H:8])[H:9]"
C        2.43953416       0.28303724      -0.52689545
C        1.38680830      -0.31032585       0.39075023
O        0.18455465       0.39128891       0.27356204
C       -1.36431177      -0.38412674       0.41690349
C       -2.47806630       0.26841982       0.92920325
C       -1.41229054       0.03068866      -0.93986903
H        3.39591713      -0.23079960      -0.40471865
H        2.59045668       1.33994121      -0.30119207
H        2.13153951       0.20003506      -1.57125315
H        1.23914287      -1.37830773       0.15686583
H        1.71667404      -0.24556496       1.43621822
H       -1.14549862      -1.41768693       0.65995017
H       -3.09952805      -0.21256506       1.67351740
H       -2.64510178       1.32740249       0.78398724
H       -1.32814288      -0.71063710      -1.72867021
H       -1.61168740       1.04920059      -1.24835931
16
Frame=6 idx=004014 GeodesicLength=0.42166075005026643 rxn_smarts="[C:1]([C:2]([O:3][C:4]1([H:12])[C:5]([H:13])([H:14])[C:6]1([H:15])[H:16])([H:10])[H:11])([H:7])([H:8])[H:9]>>[C:1]([C:2]([O:3][C:6]([C:4](=[C:5]([H:13])[H:14])[H:12])([H:15])[H:16])([H:10])[H:11])([H:7])([H:8])[H:9]"
C        2.44138250       0.29146882      -0.53349323
C        1.39661625      -0.31870625       0.38189953
O        0.18596380       0.36741708       0.26187056
C       -1.36358907      -0.39300118       0.44297536
C       -2.48785488       0.27433448       0.91256179
C       -1.40715196       0.03036328      -0.91600997
H        3.40504599      -0.20762921      -0.40791256
H        2.57683410       1.35031645      -0.30690676
H        2.13833493       0.20414623      -1.57885845
H        1.26252935      -1.38795388       0.14762224
H        1.71986250      -0.24579081       1.42863071
H       -1.16514963      -1.43102728       0.68360904
H       -3.15274415      -0.20954331       1.61647408
H       -2.61574970       1.34321862       0.80330775
H       -1.35599861      -0.71867502      -1.70085030
H       -1.57833142       1.05106195      -1.23491980
16
Frame=7 idx=004014 GeodesicLength=0.4913377416750999 rxn_smarts="[C:1]([C:2]([O:3][C:4]1([H:12])[C:5]([H:13])([H:14])[C:6]1([H:15])[H:16])([H:10])[H:11])([H:7])([H:8])[H:9]>>[C:1]([C:2]([O:3][C:6]([C:4](=[C:5]([H:13])[H:14])[H:12])([H:15])[H:16])([H:10])[H:11])([H:7])([H:8])[H:9]"
C        2.44270397       0.30010267      -0.53969971
C        1.40625939      -0.32760594       0.37295470
O        0.18722637       0.34267872       0.25056820
C       -1.36307614      -0.40110484       0.46913524
C       -2.49615854       0.28097853       0.89610690
C       -1.40188698       0.02960460      -0.89251658
H        3.41346696      -0.18414530      -0.41109897
H        2.56248580       1.36050355      -0.31141340
H        2.14466907       0.20934343      -1.58611852
H        1.28593887      -1.39778397       0.13747082
H        1.72268140      -0.24743315       1.42096822
H       -1.18570345      -1.44333448       0.70745484
H       -3.20129843      -0.20371144       1.55918813
H       -2.58872675       1.35669427       0.82206303
H       -1.38296347      -0.72616938      -1.67284220
H       -1.54561806       1.05138273      -1.22222068
16
Frame=8 idx=004014 GeodesicLength=0.5608791273292082 rxn_smarts="[C:1]([C:2]([O:3][C:4]1([H:12])[C:5]([H:13])([H:14])[C:6]1([H:15])[H:16])([H:10])[H:11])([H:7])([H:8])[H:9]>>[C:1]([C:2]([O:3][C:6]([C:4](=[C:5]([H:13])[H:14])[H:12])([H:15])[H:16])([H:10])[H:11])([H:7])([H:8])[H:9]"
C        2.44345411       0.30888639      -0.54549374
C        1.41568192      -0.33695323       0.36397548
O        0.18827733       0.31705265       0.23958550
C       -1.36279334      -0.40853546       0.49519388
C       -2.50301739       0.28816916       0.87983441
C       -1.39649533       0.02850050      -0.86951214
H        3.42112741      -0.16036725      -0.41415729
H        2.54735052       1.37045663      -0.31484306
H        2.15051897       0.21541901      -1.59299699
H        1.30936325      -1.40774092       0.12663438
H        1.72503693      -0.25026101       1.41328753
H       -1.20715884      -1.45466614       0.73121546
H       -3.24488873      -0.19543139       1.50248604
H       -2.56401921       1.36812554       0.83993401
H       -1.40901567      -0.73300436      -1.64488860
H       -1.51342193       1.05034988      -1.21025487
16
Frame=9 idx=004014 GeodesicLength=0.6303310574092431 rxn_smarts="[C:1]([C:2]([O:3][C:4]1([H:12])[C:5]([H:13])([H:14])[C:6]1([H:15])[H:16])([H:10])[H:11])([H:7])([H:8])[H:9]>>[C:1]([C:2]([O:3][C:6]([C:4](=[C:5]([H:13])[H:14])[H:12])([H:15])[H:16])([H:10])[H:11])([H:7])([H:8])[H:9]"
C        2.44357482       0.31800796      -0.55080692
C        1.42490133      -0.34688265       0.35483281
O        0.18909687       0.29034864       0.22885296
C       -1.36275231      -0.41537463       0.52118019
C       -2.50832929       0.29604779       0.86382579
C       -1.39106557       0.02681128      -0.84700986
H        3.42802437      -0.13601870      -0.41702360
H        2.53123157       1.38035468      -0.31690840
H        2.15584969       0.22274974      -1.59949335
H        1.33288284      -1.41793402       0.11472423
H        1.72695949      -0.25464740       1.40552513
H       -1.22951609      -1.46501448       0.75520492
H       -3.28400529      -0.18467725       1.44628367
H       -2.54087169       1.37815233       0.85688621
H       -1.43423303      -0.73965182      -1.61689291
H       -1.48174770       1.04772851      -1.19918088
16
Frame=10 idx=004014 GeodesicLength=0.6997489620807619 rxn_smarts="[C:1]([C:2]([O:3][C:4]1([H:12])[C:5]([H:13])([H:14])[C:6]1([H:15])[H:16])([H:10])[H:11])([H:7])([H:8])[H:9]>>[C:1]([C:2]([O:3][C:6]([C:4](=[C:5]([H:13])[H:14])[H:12])([H:15])[H:16])([H:10])[H:11])([H:7])([H:8])[H:9]"
C        2.44302304       0.32746692      -0.55563270
C        1.43394017      -0.35739762       0.34550470
O        0.18970000       0.26251439       0.21838332
C       -1.36290363      -0.42161277       0.54712055
C       -2.51212172       0.30457892       0.84812664
C       -1.38554721       0.02454869      -0.82500016
H        3.43411819      -0.11107715      -0.41971544
H        2.51406458       1.39014641      -0.31758388
H        2.16058359       0.23135784      -1.60557474
H        1.35655194      -1.42832454       0.10170638
H        1.72849904      -0.26062386       1.39764345
H       -1.25271784      -1.47432071       0.77948623
H       -3.31874569      -0.17179461       1.39083323
H       -2.51935639       1.38710457       0.87254766
H       -1.45875626      -0.74615758      -1.58888309
H       -1.45033181       1.04359110      -1.18896214
16
Frame=11 idx=004014 GeodesicLength=0.7691030568738432 rxn_smarts="[C:1]([C:2]([O:3][C:4]1([H:12])[C:5]([H:13])([H:14])[C:6]1([H:15])[H:16])([H:10])[H:11])([H:7])([H:8])[H:9]>>[C:1]([C:2]([O:3][C:6]([C:4](=[C:5]([H:13])[H:14])[H:12])([H:15])[H:16])([H:10])[H:11])([H:7])([H:8])[H:9]"
C        2.44173157       0.33726672      -0.55993368
C        1.44275332      -0.36846536       0.33602639
O        0.19001476       0.23345423       0.20804325
C       -1.36326818      -0.42737796       0.57281051
C       -2.51440558       0.31366526       0.83268567
C       -1.37998683       0.02172500      -0.80362575
H        3.43935489      -0.08544802      -0.42204253
H        2.49566968       1.39986724      -0.31696761
H        2.16471501       0.24109381      -1.61122604
H        1.38042840      -1.43891208       0.08773286
H        1.72954789      -0.26802030       1.38970815
H       -1.27676437      -1.48267567       0.80386688
H       -3.34914127      -0.15688251       1.33665183
H       -2.49892888       1.39524487       0.88702043
H       -1.48249960      -0.75251850      -1.56108069
H       -1.41922079       1.03798326      -1.17966967
16
Frame=12 idx=004014 GeodesicLength=0.8384594817664303 rxn_smarts="[C:1]([C:2]([O:3][C:4]1([H:12])[C:5]([H:13])([H:14])[C:6]1([H:15])[H:16])([H:10])[H:11])([H:7])([H:8])[H:9]>>[C:1]([C:2]([O:3][C:6]([C:4](=[C:5]([H:13])[H:14])[H:12])([H:15])[H:16])([H:10])[H:11])([H:7])([H:8])[H:9]"
C        2.43966604       0.34751116      -0.56363427
C        1.45136578      -0.38016831       0.32627023
O        0.19006103       0.20301758       0.19776745
C       -1.36380259      -0.43264226       0.59832208
C       -2.51515624       0.32338865       0.81752046
C       -1.37438307       0.01819565      -0.78286686
H        3.44370581      -0.05898435      -0.42397315
H        2.47595847       1.40951685      -0.31477125
H        2.16821673       0.25227046      -1.61636940
H        1.40458344      -1.44968281       0.07247288
H        1.73012782      -0.27712679       1.38159601
H       -1.30163460      -1.48996500       0.82858568
H       -3.37537994      -0.14001474       1.28392791
H       -2.47941080       1.40294622       0.89992522
H       -1.50569801      -0.75899398      -1.53339050
H       -1.38821987       1.03073168      -1.17138249
16
Frame=13 idx=004014 GeodesicLength=0.9078144223171752 rxn_smarts="[C:1]([C:2]([O:3][C:4]1([H:12])[C:5]([H:13])([H:14])[C:6]1([H:15])[H:16])([H:10])[H:11])([H:7])([H:8])[H:9]>>[C:1]([C:2]([O:3][C:6]([C:4](=[C:5]([H:13])[H:14])[H:12])([H:15])[H:16])([H:10])[H:11])([H:7])([H:8])[H:9]"
C        2.43673474       0.35813704      -0.56673346
C        1.45975830      -0.39242448       0.31630335
O        0.18979957       0.17113646       0.18745925
C       -1.36447105      -0.43747761       0.62347076
C       -2.51437162       0.33363750       0.80258447
C       -1.36873322       0.01405168      -0.76279639
H        3.44707455      -0.03168031      -0.42539161
H        2.45475455       1.41903417      -0.31121001
H        2.17099968       0.26462713      -1.62097479
H        1.42910317      -1.46056659       0.05621403
H        1.73019642      -0.28766424       1.37335372
H       -1.32726650      -1.49620432       0.85342485
H       -3.39762759      -0.12138881       1.23284666
H       -2.46035005       1.41030952       0.91146939
H       -1.52824038      -0.76545453      -1.50595955
H       -1.35736056       1.02192741      -1.16406067
16
Frame=14 idx=004014 GeodesicLength=0.9771920217789037 rxn_smarts="[C:1]([C:2]([O:3][C:4]1([H:12])[C:5]([H:13])([H:14])[C:6]1([H:15])[H:16])([H:10])[H:11])([H:7])([H:8])[H:9]>>[C:1]([C:2]([O:3][C:6]([C:4](=[C:5]([H:13])[H:14])[H:12])([H:15])[H:16])([H:10])[H:11])([H:7])([H:8])[H:9]"
C        2.43288325       0.36929083      -0.56912840
C        1.46795140      -0.40535580       0.30598707
O        0.18924813       0.13760501       0.17701840
C       -1.36522145      -0.44185651       0.64834422
C       -2.51198920       0.34453815       0.78788015
C       -1.36305071       0.00910069      -0.74344196
H        3.44941217      -0.00332703      -0.42620267
H        2.43192124       1.42847444      -0.30592017
H        2.17303003       0.27855789      -1.62498008
H        1.45407141      -1.47160232       0.03856122
H        1.72976551      -0.30000956       1.36488931
H       -1.35365101      -1.50130414       0.87868775
H       -3.41604008      -0.10095292       1.18362220
H       -2.44145746       1.41772979       0.92129166
H       -1.55039436      -0.77222738      -1.47872483
H       -1.32647887       1.01133886      -1.15788384
16
Frame=15 idx=004014 GeodesicLength=1.04659310402536 rxn_smarts="[C:1]([C:2]([O:3][C:4]1([H:12])[C:5]([H:13])([H:14])[C:6]1([H:15])[H:16])([H:10])[H:11])([H:7])([H:8])[H:9]>>[C:1]([C:2]([O:3][C:6]([C:4](=[C:5]([H:13])[H:14])[H:12])([H:15])[H:16])([H:10])[H:11])([H:7])([H:8])[H:9]"
C        2.42798957       0.38084325      -0.57086754
C        1.47594399      -0.41883449       0.29547607
O        0.18838725       0.10234344       0.16640204
C       -1.36599834      -0.44588160       0.67274564
C       -2.50799651       0.35593924       0.77336568
C       -1.35728220       0.00353645      -0.72486839
H        3.45059166       0.02606095      -0.42631880
H        2.40723877       1.43773237      -0.29931797
H        2.17415569       0.29357709      -1.62838083
H        1.47960804      -1.48269770       0.02003753
H        1.72883201      -0.31368781       1.35631210
H       -1.38074558      -1.50534724       0.90399625
H       -3.43075956      -0.07899915       1.13638095
H       -2.42237958       1.42518650       0.92965963
H       -1.57208454      -0.77897559      -1.45192058
H       -1.29550066       0.99920428      -1.15270177
16
Frame=16 idx=004014 GeodesicLength=1.1161087818380178 rxn_smarts="[C:1]([C:2]([O:3][C:4]1([H:12])[C:5]([H:13])([H:14])[C:6]1([H:15])[H:16])([H:10])[H:11])([H:7])([H:8])[H:9]>>[C:1]([C:2]([O:3][C:6]([C:4](=[C:5]([H:13])[H:14])[H:12])([H:15])[H:16])([H:10])[H:11])([H:7])([H:8])[H:9]"
C        2.42195263       0.39298526      -0.57180176
C        1.48375702      -0.43302095       0.28457028
O        0.18722154       0.06500389       0.15542953
C       -1.36673229      -0.44951346       0.69675052
C       -2.50224665       0.36803206       0.75903715
C       -1.35145063      -0.00291137      -0.70708393
H        3.45053087       0.05685081      -0.42554344
H        2.38038070       1.44684970      -0.29099765
H        2.17436883       0.31013431      -1.63105575
H        1.50587427      -1.49386482       0.00014079
H        1.72737102      -0.32917715       1.34745054
H       -1.40857618      -1.50816236       0.92972510
H       -3.44197553      -0.05524216       1.09109093
H       -2.40255082       1.43301886       0.93637476
H       -1.59361258      -0.78609573      -1.42535234
H       -1.26431220       0.98511311      -1.14873473
