13
Frame=0 idx=002257 GeodesicLength=0.0 rxn_smarts="[C:1]1([H:7])([H:8])[C:2]([H:9])=[C:3]([H:10])[C@@:4]2([H:11])[N:5]([H:12])[C@@:6]12[H:13]>>[C:1](=[C:6](/[C:4](=[N:5]\[H:12])[H:11])[H:13])([H:7])[H:8].[C:2](#[C:3][H:10])[H:9]"
C        0.38528175      -1.33777825       0.24093594
C        1.46016640       0.23733749      -0.67291793
C        0.62177057       1.16263470      -0.76473059
C       -0.80370209       0.78490403       0.30438677
N       -1.99978575       0.59231818      -0.24601779
C       -0.32985785      -0.44362110       0.97257659
H        0.85121021      -2.19479641       0.71604827
H        0.16861256      -1.47188722      -0.81308100
H        2.41250072      -0.22653251      -0.82794764
H        0.53786310       2.12880358      -1.22719357
H       -0.73807653       1.68315406       0.92594896
H       -2.03639354      -0.34653368      -0.63827075
H       -0.52958958      -0.56800281       2.03026270
13
Frame=1 idx=002257 GeodesicLength=0.08360720902241023 rxn_smarts="[C:1]1([H:7])([H:8])[C:2]([H:9])=[C:3]([H:10])[C@@:4]2([H:11])[N:5]([H:12])[C@@:6]12[H:13]>>[C:1](=[C:6](/[C:4](=[N:5]\[H:12])[H:11])[H:13])([H:7])[H:8].[C:2](#[C:3][H:10])[H:9]"
C        0.38377509      -1.33352823       0.24854005
C        1.47052588       0.23817892      -0.67848895
C        0.63467457       1.16718030      -0.76527223
C       -0.79823013       0.79633671       0.32527615
N       -1.99101105       0.58250081      -0.22565155
C       -0.35447741      -0.45086175       0.97775713
H        0.85491314      -2.18382348       0.73111432
H        0.16279008      -1.48516304      -0.80242786
H        2.41855220      -0.22197561      -0.86871522
H        0.52120211       2.11746615      -1.25329472
H       -0.74269275       1.68763123       0.95643893
H       -2.00148452      -0.32872611      -0.67885960
H       -0.55853723      -0.58521591       2.03358355
13
Frame=2 idx=002257 GeodesicLength=0.16717693858646235 rxn_smarts="[C:1]1([H:7])([H:8])[C:2]([H:9])=[C:3]([H:10])[C@@:4]2([H:11])[N:5]([H:12])[C@@:6]12[H:13]>>[C:1](=[C:6](/[C:4](=[N:5]\[H:12])[H:11])[H:13])([H:7])[H:8].[C:2](#[C:3][H:10])[H:9]"
C        0.38242410      -1.32904853       0.25621299
C        1.48090631       0.23853557      -0.68570489
C        0.64828737       1.17202772      -0.76571246
C       -0.79274469       0.80713896       0.34588654
N       -1.98089619       0.57228884      -0.20814812
C       -0.37882798      -0.45787035       0.98238587
H        0.85912810      -2.17194525       0.74683038
H        0.15706835      -1.49926799      -0.79122383
H        2.42385245      -0.21717882      -0.91030733
H        0.50514719       2.10574702      -1.27714708
H       -0.74906175       1.69120809       0.98684269
H       -1.96720081      -0.30923334      -0.71595390
H       -0.58808246      -0.60240194       2.03603917
13
Frame=3 idx=002257 GeodesicLength=0.25074629173040974 rxn_smarts="[C:1]1([H:7])([H:8])[C:2]([H:9])=[C:3]([H:10])[C@@:4]2([H:11])[N:5]([H:12])[C@@:6]12[H:13]>>[C:1](=[C:6](/[C:4](=[N:5]\[H:12])[H:11])[H:13])([H:7])[H:8].[C:2](#[C:3][H:10])[H:9]"
C        0.38128634      -1.32425080       0.26411095
C        1.49138365       0.23853792      -0.69420870
C        0.66267097       1.17720360      -0.76589700
C       -0.78727554       0.81736143       0.36632377
N       -1.96946917       0.56194245      -0.19339056
C       -0.40297051      -0.46461325       0.98656113
H        0.86391672      -2.15897335       0.76341131
H        0.15161355      -1.51414254      -0.77928556
H        2.42789280      -0.21249887      -0.95380179
H        0.48991365       2.09377355      -1.29864461
H       -0.75722208       1.69389715       1.01723636
H       -1.93317476      -0.28857492      -0.75005046
H       -0.61856561      -0.61966236       2.03763517
13
Frame=4 idx=002257 GeodesicLength=0.3341421753791197 rxn_smarts="[C:1]1([H:7])([H:8])[C:2]([H:9])=[C:3]([H:10])[C@@:4]2([H:11])[N:5]([H:12])[C@@:6]12[H:13]>>[C:1](=[C:6](/[C:4](=[N:5]\[H:12])[H:11])[H:13])([H:7])[H:8].[C:2](#[C:3][H:10])[H:9]"
C        0.38025661      -1.31921134       0.27210007
C        1.50153224       0.23784806      -0.70476953
C        0.67741999       1.18228686      -0.76664702
C       -0.78182251       0.82697275       0.38645497
N       -1.95698345       0.55158220      -0.18100555
C       -0.42673601      -0.47103694       0.99019045
H        0.86920982      -2.14489017       0.78071876
H        0.14602878      -1.53002842      -0.76654673
H        2.43113846      -0.20756741      -0.99786569
H        0.47591153       2.08238478      -1.31700740
H       -0.76682621       1.69571609       1.04723348
H       -1.89961078      -0.26730206      -0.78114249
H       -0.64951846      -0.63675439       2.03828668
13
Frame=5 idx=002257 GeodesicLength=0.4177954812162398 rxn_smarts="[C:1]1([H:7])([H:8])[C:2]([H:9])=[C:3]([H:10])[C@@:4]2([H:11])[N:5]([H:12])[C@@:6]12[H:13]>>[C:1](=[C:6](/[C:4](=[N:5]\[H:12])[H:11])[H:13])([H:7])[H:8].[C:2](#[C:3][H:10])[H:9]"
C        0.37943528      -1.31396007       0.28035895
C        1.51158744       0.23664638      -0.71694339
C        0.69273097       1.18746237      -0.76765385
C       -0.77648182       0.83607745       0.40644743
N       -1.94349735       0.54143640      -0.17084681
C       -0.45028516      -0.47721462       0.99343179
H        0.87510297      -2.12971478       0.79899398
H        0.14066071      -1.54690469      -0.75284397
H        2.43314402      -0.20280941      -1.04375173
H        0.46321647       2.07173948      -1.33258442
H       -0.77811088       1.69675405       1.07701738
H       -1.86613440      -0.24561620      -0.80974401
H       -0.68136825      -0.65389635       2.03811865
13
Frame=6 idx=002257 GeodesicLength=0.5010184029683966 rxn_smarts="[C:1]1([H:7])([H:8])[C:2]([H:9])=[C:3]([H:10])[C@@:4]2([H:11])[N:5]([H:12])[C@@:6]12[H:13]>>[C:1](=[C:6](/[C:4](=[N:5]\[H:12])[H:11])[H:13])([H:7])[H:8].[C:2](#[C:3][H:10])[H:9]"
C        0.37871557      -1.30838290       0.28875252
C        1.52119883       0.23473562      -0.73097389
C        0.70838781       1.19238809      -0.76915297
C       -0.77114861       0.84458328       0.42624115
N       -1.92904404       0.53158539      -0.16268060
C       -0.47348886      -0.48309318       0.99614195
H        0.88151359      -2.11315121       0.81804081
H        0.13522679      -1.56467364      -0.73811448
H        2.43404021      -0.19800699      -1.09048995
H        0.45188598       2.06198775      -1.34514439
H       -0.79069527       1.69681246       1.10636953
H       -1.83285789      -0.22382365      -0.83587844
H       -0.71373409      -0.67096100       2.03688877
13
Frame=7 idx=002257 GeodesicLength=0.5845302016205014 rxn_smarts="[C:1]1([H:7])([H:8])[C:2]([H:9])=[C:3]([H:10])[C@@:4]2([H:11])[N:5]([H:12])[C@@:6]12[H:13]>>[C:1](=[C:6](/[C:4](=[N:5]\[H:12])[H:11])[H:13])([H:7])[H:8].[C:2](#[C:3][H:10])[H:9]"
C        0.37818420      -1.30260653       0.29743446
C        1.53055654       0.23224064      -0.74669948
C        0.72458753       1.19728262      -0.77099416
C       -0.76594497       0.85262568       0.44599386
N       -1.91369807       0.52215613      -0.15634231
C       -0.49649430      -0.48875410       0.99849761
H        0.88850697      -2.09533492       0.83809130
H        0.13004192      -1.58347795      -0.72222577
H        2.43350417      -0.19346715      -1.13909161
H        0.44208981       2.05350362      -1.35493312
H       -0.80485582       1.69609384       1.13544674
H       -1.79944427      -0.20211517      -0.85995771
H       -0.74703370      -0.68814670       2.03478017
13
Frame=8 idx=002257 GeodesicLength=0.6680530205752809 rxn_smarts="[C:1]1([H:7])([H:8])[C:2]([H:9])=[C:3]([H:10])[C@@:4]2([H:11])[N:5]([H:12])[C@@:6]12[H:13]>>[C:1](=[C:6](/[C:4](=[N:5]\[H:12])[H:11])[H:13])([H:7])[H:8].[C:2](#[C:3][H:10])[H:9]"
C        0.37775894      -1.29661074       0.30630481
C        1.53957593       0.22916024      -0.76399200
C        0.74128764       1.20202772      -0.77318405
C       -0.76086452       0.86017646       0.46571427
N       -1.89752466       0.51318355      -0.15160997
C       -0.51927367      -0.49421050       1.00043756
H        0.89589820      -2.07624194       0.85894944
H        0.12505916      -1.60317388      -0.70519584
H        2.43153365      -0.18911457      -1.18909873
H        0.43378283       2.04624610      -1.36209883
H       -0.82045590       1.69453100       1.16413455
H       -1.76589327      -0.18064550      -0.88211402
H       -0.78088434      -0.70532794       2.03175283
13
Frame=9 idx=002257 GeodesicLength=0.7515526557941721 rxn_smarts="[C:1]1([H:7])([H:8])[C:2]([H:9])=[C:3]([H:10])[C@@:4]2([H:11])[N:5]([H:12])[C@@:6]12[H:13]>>[C:1](=[C:6](/[C:4](=[N:5]\[H:12])[H:11])[H:13])([H:7])[H:8].[C:2](#[C:3][H:10])[H:9]"
C        0.37734245      -1.29045367       0.31520611
C        1.54820009       0.22548117      -0.78282673
C        0.75841659       1.20651609      -0.77587849
C       -0.75592274       0.86724906       0.48543256
N       -1.88066275       0.50474621      -0.14816059
C       -0.54180864      -0.49948994       1.00193500
H        0.90349851      -2.05599744       0.88033404
H        0.12020196      -1.62365726      -0.68713162
H        2.42851950      -0.18475661      -1.23974382
H        0.42681879       2.04013823      -1.36700129
H       -0.83732534       1.69214143       1.19235970
H       -1.73234845      -0.15949522      -0.90238111
H       -0.81492998      -0.72242205       2.02785623
13
Frame=10 idx=002257 GeodesicLength=0.8349880303468161 rxn_smarts="[C:1]1([H:7])([H:8])[C:2]([H:9])=[C:3]([H:10])[C@@:4]2([H:11])[N:5]([H:12])[C@@:6]12[H:13]>>[C:1](=[C:6](/[C:4](=[N:5]\[H:12])[H:11])[H:13])([H:7])[H:8].[C:2](#[C:3][H:10])[H:9]"
C        0.37691590      -1.28412853       0.32413134
C        1.55626885       0.22112756      -0.80330154
C        0.77599334       1.21070243      -0.77903656
C       -0.75111186       0.87385330       0.50520427
N       -1.86311970       0.49687521      -0.14583310
C       -0.56409045      -0.50459170       1.00299188
H        0.91132589      -2.03446633       0.90223328
H        0.11544616      -1.64492273      -0.66792932
H        2.42448198      -0.18034949      -1.29096915
H        0.42120357       2.03520046      -1.36969108
H       -0.85538166       1.68890431       1.22010570
H       -1.69871590      -0.13870806      -0.92092569
H       -0.84921611      -0.73949644       2.02301996
13
Frame=11 idx=002257 GeodesicLength=0.9184617949585647 rxn_smarts="[C:1]1([H:7])([H:8])[C:2]([H:9])=[C:3]([H:10])[C@@:4]2([H:11])[N:5]([H:12])[C@@:6]12[H:13]>>[C:1](=[C:6](/[C:4](=[N:5]\[H:12])[H:11])[H:13])([H:7])[H:8].[C:2](#[C:3][H:10])[H:9]"
C        0.37645103      -1.27768918       0.33302907
C        1.56392749       0.21623265      -0.82510339
C        0.79406430       1.21460101      -0.78263344
C       -0.74650479       0.88002285       0.52507490
N       -1.84500195       0.48957705      -0.14442075
C       -0.58613888      -0.50954161       1.00363700
H        0.91920308      -2.01182153       0.92449462
H        0.11090172      -1.66682943      -0.64765154
H        2.41941760      -0.17591392      -1.34277389
H        0.41688420       2.03132266      -1.37045558
H       -0.87463626       1.68489341       1.24731823
H       -1.66499181      -0.11834608      -0.93785790
H       -0.88357574      -0.75650788       2.01734267
13
Frame=12 idx=002257 GeodesicLength=1.0017890088813308 rxn_smarts="[C:1]1([H:7])([H:8])[C:2]([H:9])=[C:3]([H:10])[C@@:4]2([H:11])[N:5]([H:12])[C@@:6]12[H:13]>>[C:1](=[C:6](/[C:4](=[N:5]\[H:12])[H:11])[H:13])([H:7])[H:8].[C:2](#[C:3][H:10])[H:9]"
C        0.37599974      -1.27104110       0.34198065
C        1.57114089       0.21083255      -0.84804237
C        0.81275973       1.21820942      -0.78638186
C       -0.74210418       0.88572631       0.54507987
N       -1.82622245       0.48278046      -0.14392447
C       -0.60793699      -0.51431761       1.00384172
H        0.92716549      -1.98780739       0.94722241
H        0.10669215      -1.68926678      -0.62612109
H        2.41268736      -0.17163434      -1.39569347
H        0.41395904       2.02842280      -1.36912244
H       -0.89512290       1.68001984       1.27392917
H       -1.63089726      -0.09841975      -0.95342733
H       -0.91812061      -0.77350441       2.01065922
13
Frame=13 idx=002257 GeodesicLength=1.085245540771555 rxn_smarts="[C:1]1([H:7])([H:8])[C:2]([H:9])=[C:3]([H:10])[C@@:4]2([H:11])[N:5]([H:12])[C@@:6]12[H:13]>>[C:1](=[C:6](/[C:4](=[N:5]\[H:12])[H:11])[H:13])([H:7])[H:8].[C:2](#[C:3][H:10])[H:9]"
C        0.37549987      -1.26431989       0.35087716
C        1.57791045       0.20492174      -0.87218911
C        0.83204294       1.22150131      -0.79049304
C       -0.73798069       0.89103250       0.56527316
N       -1.80693578       0.47654897      -0.14406004
C       -0.62950243      -0.51895913       1.00365400
H        0.93510392      -1.96264471       0.97020853
H        0.10278092      -1.71224018      -0.60342846
H        2.40481574      -0.16729630      -1.44921299
H        0.41233224       2.02645735      -1.36605817
H       -0.91675510       1.67442438       1.29993142
H       -1.59659502      -0.07892145      -0.96760898
H       -0.95271706      -0.79050457       2.00310652
13
Frame=14 idx=002257 GeodesicLength=1.1685420462495244 rxn_smarts="[C:1]1([H:7])([H:8])[C:2]([H:9])=[C:3]([H:10])[C@@:4]2([H:11])[N:5]([H:12])[C@@:6]12[H:13]>>[C:1](=[C:6](/[C:4](=[N:5]\[H:12])[H:11])[H:13])([H:7])[H:8].[C:2](#[C:3][H:10])[H:9]"
C        0.37487223      -1.25749675       0.35960714
C        1.58410685       0.19848576      -0.89744184
C        0.85182551       1.22432755      -0.79500421
C       -0.73410305       0.89590496       0.58566041
N       -1.78717295       0.47086964      -0.14465139
C       -0.65076607      -0.52343496       1.00302744
H        0.94287484      -1.93631010       0.99321917
H        0.09906757      -1.73555009      -0.57964066
H        2.39602793      -0.16268881      -1.50278157
H        0.41184160       2.02509787      -1.36144511
H       -0.93927823       1.66806180       1.32524093
H       -1.56218765      -0.05983209      -0.98042084
H       -0.98710859      -0.80743479       1.99463054
13
Frame=15 idx=002257 GeodesicLength=1.2519419785859083 rxn_smarts="[C:1]1([H:7])([H:8])[C:2]([H:9])=[C:3]([H:10])[C@@:4]2([H:11])[N:5]([H:12])[C@@:6]12[H:13]>>[C:1](=[C:6](/[C:4](=[N:5]\[H:12])[H:11])[H:13])([H:7])[H:8].[C:2](#[C:3][H:10])[H:9]"
C        0.37420970      -1.25057999       0.36828433
C        1.58981516       0.19158884      -0.92374622
C        0.87229210       1.22677066      -0.79975726
C       -0.73057112       0.90037054       0.60628531
N       -1.76692152       0.46568704      -0.14568788
C       -0.67179060      -0.52777370       1.00199114
H        0.95056353      -1.90868485       1.01641309
H        0.09575847      -1.75923399      -0.55455589
H        2.38580223      -0.15803668      -1.55710389
H        0.41271823       2.02449126      -1.35510132
H       -0.96287582       1.66096396       1.34983322
H       -1.52744385      -0.04115280      -0.99203015
H       -1.02155651      -0.82441028       1.98517552
13
Frame=16 idx=002257 GeodesicLength=1.3353290156238402 rxn_smarts="[C:1]1([H:7])([H:8])[C:2]([H:9])=[C:3]([H:10])[C@@:4]2([H:11])[N:5]([H:12])[C@@:6]12[H:13]>>[C:1](=[C:6](/[C:4](=[N:5]\[H:12])[H:11])[H:13])([H:7])[H:8].[C:2](#[C:3][H:10])[H:9]"
C        0.37347307      -1.24359886       0.37680926
C        1.59516613       0.18435212      -0.95078575
C        0.89338014       1.22876867      -0.80482003
C       -0.72741370       0.90443633       0.62715663
N       -1.74626644       0.46098483      -0.14699518
C       -0.69252320      -0.53196659       1.00054061
H        0.95796096      -1.87998260       1.03954486
H        0.09286031      -1.78307332      -0.52833271
H        2.37426199      -0.15322776      -1.61179135
H        0.41478245       2.02432603      -1.34732867
H       -0.98739225       1.65320165       1.37363650
H       -1.49249891      -0.02287435      -1.00243891
H       -1.05579056      -0.84134615       1.97480474
