16
Frame=0 idx=003011 GeodesicLength=0.0 rxn_smarts="[C:1]([C@@:2]1([H:10])[C:3]([H:11])([H:12])[C:4]([H:13])([H:14])[C@:5]1([O:6][H:16])[H:15])([H:7])([H:8])[H:9]>>[C:1]([C:2]1=[C:3]([H:11])[C:4]([H:13])([H:14])[C@:5]1([O:6][H:16])[H:15])([H:7])([H:8])[H:9].[H:10][H:12]"
C        1.49704981      -0.85247224      -0.21951809
C        0.39133546      -0.11690873       0.49065608
C        0.06626788       1.27536086       0.41057358
C       -1.07016927       1.02315468      -0.55944190
C       -1.02771569      -0.46818047       0.06159289
O       -1.20118951      -1.55447518      -0.79880537
H        1.65976221      -1.83248170       0.23216240
H        1.22419824      -1.02834280      -1.26405827
H        2.42816080      -0.28854979      -0.16952495
H        1.36352531       0.45146274       1.51971813
H       -0.18773108       1.82063150       1.30831125
H        1.47260245       1.36911114       0.97858566
H       -2.00322809       1.58459174      -0.47813694
H       -0.76777817       0.93477660      -1.60343885
H       -1.72104120      -0.50702142       0.90583877
H       -2.12404913      -1.81065697      -0.81451436
16
Frame=1 idx=003011 GeodesicLength=0.06340151232115876 rxn_smarts="[C:1]([C@@:2]1([H:10])[C:3]([H:11])([H:12])[C:4]([H:13])([H:14])[C@:5]1([O:6][H:16])[H:15])([H:7])([H:8])[H:9]>>[C:1]([C:2]1=[C:3]([H:11])[C:4]([H:13])([H:14])[C@:5]1([O:6][H:16])[H:15])([H:7])([H:8])[H:9].[H:10][H:12]"
C        1.50068914      -0.85352940      -0.22896897
C        0.39349410      -0.11792632       0.47844550
C        0.07433573       1.27682382       0.39988497
C       -1.07112940       1.02390290      -0.56186105
C       -1.02870478      -0.46368587       0.05478515
O       -1.21161779      -1.54074190      -0.81637161
H        1.65474111      -1.83798417       0.21633213
H        1.23802941      -1.01876581      -1.27776133
H        2.43588362      -0.29718445      -0.16830314
H        1.34480829       0.43187219       1.55316897
H       -0.18438957       1.85629423       1.27540434
H        1.46768264       1.36439229       1.01995322
H       -2.00319682       1.58567735      -0.47127698
H       -0.77746685       0.94410540      -1.60901477
H       -1.71491381      -0.50711567       0.90502497
H       -2.11824501      -1.84613460      -0.76944138
16
Frame=2 idx=003011 GeodesicLength=0.12609856233359734 rxn_smarts="[C:1]([C@@:2]1([H:10])[C:3]([H:11])([H:12])[C:4]([H:13])([H:14])[C@:5]1([O:6][H:16])[H:15])([H:7])([H:8])[H:9]>>[C:1]([C:2]1=[C:3]([H:11])[C:4]([H:13])([H:14])[C@:5]1([O:6][H:16])[H:15])([H:7])([H:8])[H:9].[H:10][H:12]"
C        1.50360801      -0.85477517      -0.23858116
C        0.39543162      -0.11899285       0.46632128
C        0.08250323       1.27820753       0.38924183
C       -1.07216047       1.02503592      -0.56382012
C       -1.02995762      -0.45878042       0.04849744
O       -1.22311080      -1.52646843      -0.83281283
H        1.64907579      -1.84348986       0.20037709
H        1.25090271      -1.00944772      -1.29126003
H        2.44273421      -0.30626606      -0.16775053
H        1.32410117       0.41131770       1.58632128
H       -0.17870814       1.89276580       1.24046826
H        1.46076992       1.35880891       1.06147887
H       -2.00285158       1.58738157      -0.46367613
H       -0.78772358       0.95374009      -1.61402767
H       -1.70890031      -0.50673475       0.90459567
H       -2.10571416      -1.88230225      -0.72537325
16
Frame=3 idx=003011 GeodesicLength=0.18893209928445123 rxn_smarts="[C:1]([C@@:2]1([H:10])[C:3]([H:11])([H:12])[C:4]([H:13])([H:14])[C@:5]1([O:6][H:16])[H:15])([H:7])([H:8])[H:9]>>[C:1]([C:2]1=[C:3]([H:11])[C:4]([H:13])([H:14])[C@:5]1([O:6][H:16])[H:15])([H:7])([H:8])[H:9].[H:10][H:12]"
C        1.50601339      -0.85632361      -0.24842749
C        0.39717239      -0.12007924       0.45429710
C        0.09081459       1.27966417       0.37871319
C       -1.07336482       1.02659915      -0.56529159
C       -1.03164548      -0.45349820       0.04270298
O       -1.23596947      -1.51191330      -0.84822394
H        1.64296090      -1.84914959       0.18422670
H        1.26301512      -1.00064750      -1.30471327
H        2.44907537      -0.31582760      -0.16788916
H        1.30140220       0.38995012       1.61932026
H       -0.17048088       1.93029515       1.20349045
H        1.45189126       1.35260608       1.10345046
H       -2.00240008       1.58982745      -0.45523847
H       -0.79858387       0.96359134      -1.61852072
H       -1.70331513      -0.50583426       0.90458438
H       -2.08658551      -1.91926017      -0.68248088
16
Frame=4 idx=003011 GeodesicLength=0.2521000385300401 rxn_smarts="[C:1]([C@@:2]1([H:10])[C:3]([H:11])([H:12])[C:4]([H:13])([H:14])[C@:5]1([O:6][H:16])[H:15])([H:7])([H:8])[H:9]>>[C:1]([C:2]1=[C:3]([H:11])[C:4]([H:13])([H:14])[C@:5]1([O:6][H:16])[H:15])([H:7])([H:8])[H:9].[H:10][H:12]"
C        1.50796773      -0.85820282      -0.25845192
C        0.39874683      -0.12119069       0.44247053
C        0.09929355       1.28119122       0.36828257
C       -1.07481221       1.02849056      -0.56618934
C       -1.03378788      -0.44793720       0.03754311
O       -1.25024816      -1.49729725      -0.86238552
H        1.63644828      -1.85498225       0.16799549
H        1.27441063      -0.99248270      -1.31810345
H        2.45501870      -0.32585755      -0.16870789
H        1.27675032       0.36796405       1.65214955
H       -0.15940045       1.96891975       1.16423365
H        1.44096226       1.34600563       1.14582936
H       -2.00191943       1.59290306      -0.44577688
H       -0.81018290       0.97348748      -1.62245973
H       -1.69820653      -0.50455132       0.90517354
H       -2.06104075      -1.95645995      -0.64160308
16
Frame=5 idx=003011 GeodesicLength=0.3147618064051051 rxn_smarts="[C:1]([C@@:2]1([H:10])[C:3]([H:11])([H:12])[C:4]([H:13])([H:14])[C@:5]1([O:6][H:16])[H:15])([H:7])([H:8])[H:9]>>[C:1]([C:2]1=[C:3]([H:11])[C:4]([H:13])([H:14])[C@:5]1([O:6][H:16])[H:15])([H:7])([H:8])[H:9].[H:10][H:12]"
C        1.50916822      -0.86028481      -0.26860160
C        0.40010055      -0.12237702       0.43074912
C        0.10786440       1.28255410       0.35775650
C       -1.07639290       1.03069312      -0.56656885
C       -1.03612127      -0.44197445       0.03299778
O       -1.26581755      -1.48227972      -0.87502079
H        1.62936044      -1.86076106       0.15180306
H        1.28470304      -0.98468444      -1.33124396
H        2.46002530      -0.33629405      -0.17019855
H        1.24982194       0.34500840       1.68464599
H       -0.14522441       2.00788287       1.12223724
H        1.42738126       1.33867882       1.18861962
H       -2.00109546       1.59654515      -0.43540916
H       -0.82258669       0.98351905      -1.62575765
H       -1.69306491      -0.50283504       0.90626153
H       -2.02812199      -1.99339092      -0.60227028
16
Frame=6 idx=003011 GeodesicLength=0.37766920772830526 rxn_smarts="[C:1]([C@@:2]1([H:10])[C:3]([H:11])([H:12])[C:4]([H:13])([H:14])[C@:5]1([O:6][H:16])[H:15])([H:7])([H:8])[H:9]>>[C:1]([C:2]1=[C:3]([H:11])[C:4]([H:13])([H:14])[C@:5]1([O:6][H:16])[H:15])([H:7])([H:8])[H:9].[H:10][H:12]"
C        1.51006495      -0.86269541      -0.27874268
C        0.40141650      -0.12363790       0.41941741
C        0.11657518       1.28388129       0.34723430
C       -1.07832060       1.03291128      -0.56617376
C       -1.03872993      -0.43599038       0.02941275
O       -1.28259853      -1.46767845      -0.88577631
H        1.62220479      -1.86662685       0.13590737
H        1.29432193      -0.97775478      -1.34410990
H        2.46471634      -0.34702426      -0.17240727
H        1.22109776       0.32181999       1.71681018
H       -0.12768018       2.04755617       1.07735243
H        1.41131729       1.33142992       1.23164118
H       -2.00031644       1.60043868      -0.42367522
H       -0.83602608       0.99315333      -1.62830522
H       -1.68814532      -0.50109141       0.90830437
H       -1.98989765      -2.02869122      -0.56688965
16
Frame=7 idx=003011 GeodesicLength=0.44067303128313795 rxn_smarts="[C:1]([C@@:2]1([H:10])[C:3]([H:11])([H:12])[C:4]([H:13])([H:14])[C@:5]1([O:6][H:16])[H:15])([H:7])([H:8])[H:9]>>[C:1]([C:2]1=[C:3]([H:11])[C:4]([H:13])([H:14])[C@:5]1([O:6][H:16])[H:15])([H:7])([H:8])[H:9].[H:10][H:12]"
C        1.51060762      -0.86539604      -0.28883135
C        0.40270151      -0.12499057       0.40844475
C        0.12542710       1.28508398       0.33658506
C       -1.08058629       1.03513225      -0.56497680
C       -1.04149579      -0.42996278       0.02677463
O       -1.30049828      -1.45337214      -0.89459691
H        1.61493491      -1.87252703       0.12036094
H        1.30322428      -0.97157527      -1.35664436
H        2.46898224      -0.35804850      -0.17522806
H        1.19046034       0.29834917       1.74857901
H       -0.10646023       2.08747773       1.02916665
H        1.39231713       1.32430369       1.27496447
H       -1.99946135       1.60457754      -0.41046472
H       -0.85062501       1.00244011      -1.63003422
H       -1.68321519      -0.49936471       0.91128209
H       -1.94631299      -2.06212743      -0.53538118
16
Frame=8 idx=003011 GeodesicLength=0.5038905060891428 rxn_smarts="[C:1]([C@@:2]1([H:10])[C:3]([H:11])([H:12])[C:4]([H:13])([H:14])[C@:5]1([O:6][H:16])[H:15])([H:7])([H:8])[H:9]>>[C:1]([C:2]1=[C:3]([H:11])[C:4]([H:13])([H:14])[C@:5]1([O:6][H:16])[H:15])([H:7])([H:8])[H:9].[H:10][H:12]"
C        1.51090336      -0.86838003      -0.29878898
C        0.40402263      -0.12645559       0.39790717
C        0.13444354       1.28613504       0.32574059
C       -1.08323137       1.03725890      -0.56287444
C       -1.04433420      -0.42402164       0.02516250
O       -1.31937410      -1.43952325      -0.90140830
H        1.60767166      -1.87846801       0.10527862
H        1.31153767      -0.96616688      -1.36881336
H        2.47292965      -0.36930298      -0.17856975
H        1.15801363       0.27481727       1.77992446
H       -0.08121054       2.12734973       0.97730855
H        1.37002943       1.31764733       1.31858116
H       -1.99852141       1.60885324      -0.39552876
H       -0.86653988       1.01129629      -1.63086819
H       -1.67814658      -0.49786572       0.91531847
H       -1.89819349      -2.09317370      -0.50836973
16
Frame=9 idx=003011 GeodesicLength=0.5672251619545966 rxn_smarts="[C:1]([C@@:2]1([H:10])[C:3]([H:11])([H:12])[C:4]([H:13])([H:14])[C@:5]1([O:6][H:16])[H:15])([H:7])([H:8])[H:9]>>[C:1]([C:2]1=[C:3]([H:11])[C:4]([H:13])([H:14])[C@:5]1([O:6][H:16])[H:15])([H:7])([H:8])[H:9].[H:10][H:12]"
C        1.51115227      -0.87156816      -0.30857588
C        0.40553298      -0.12803643       0.38779069
C        0.14366297       1.28698043       0.31456345
C       -1.08620487       1.03915364      -0.55987516
C       -1.04705563      -0.41823122       0.02458855
O       -1.33898841      -1.42628362      -0.90600614
H        1.60069100      -1.88433193       0.09071490
H        1.31944264      -0.96147676      -1.38054309
H        2.47672520      -0.38065735      -0.18239512
H        1.12398822       0.25141327       1.81073513
H       -0.05211996       2.16610353       0.92178201
H        1.34401038       1.31182811       1.36248317
H       -1.99740922       1.61310284      -0.37886628
H       -0.88380422       1.01952667      -1.63074418
H       -1.67266686      -0.49662136       0.92043272
H       -1.84695649      -2.12090165      -0.48608475
16
Frame=10 idx=003011 GeodesicLength=0.6307641856609362 rxn_smarts="[C:1]([C@@:2]1([H:10])[C:3]([H:11])([H:12])[C:4]([H:13])([H:14])[C@:5]1([O:6][H:16])[H:15])([H:7])([H:8])[H:9]>>[C:1]([C:2]1=[C:3]([H:11])[C:4]([H:13])([H:14])[C@:5]1([O:6][H:16])[H:15])([H:7])([H:8])[H:9].[H:10][H:12]"
C        1.51145066      -0.87498012      -0.31808320
C        0.40727964      -0.12975905       0.37821626
C        0.15310954       1.28760725       0.30300932
C       -1.08953664       1.04077438      -0.55583750
C       -1.04958457      -0.41273838       0.02509508
O       -1.35911086      -1.41371749      -0.90855309
H        1.59410176      -1.89016695       0.07683950
H        1.32709988      -0.95756156      -1.39180241
H        2.48046748      -0.39206265      -0.18659940
H        1.08865104       0.22848758       1.84094898
H       -0.01884787       2.20341491       0.86238223
H        1.31386187       1.30731495       1.40647855
H       -1.99607190       1.61728685      -0.36015014
H       -0.90254496       1.02718989      -1.62956346
H       -1.66669601      -0.49590211       0.92669601
H       -1.79362906      -2.14518750      -0.46907673
16
Frame=11 idx=003011 GeodesicLength=0.6944758403549345 rxn_smarts="[C:1]([C@@:2]1([H:10])[C:3]([H:11])([H:12])[C:4]([H:13])([H:14])[C@:5]1([O:6][H:16])[H:15])([H:7])([H:8])[H:9]>>[C:1]([C:2]1=[C:3]([H:11])[C:4]([H:13])([H:14])[C@:5]1([O:6][H:16])[H:15])([H:7])([H:8])[H:9].[H:10][H:12]"
C        1.51189236      -0.87861056      -0.32726396
C        0.40933988      -0.13161514       0.36919536
C        0.16284236       1.28799752       0.29095424
C       -1.09315714       1.04211519      -0.55074622
C       -1.05181687      -0.40754278       0.02663656
O       -1.37956702      -1.40176661      -0.90910841
H        1.58797201      -1.89596352       0.06369596
H        1.33464754      -0.95439319      -1.40254741
H        2.48426380      -0.40353948      -0.19110960
H        1.05236021       0.20634385       1.87042393
H        0.01833706       2.23827209       0.79941371
H        1.27916127       1.30452683       1.45031957
H       -1.99435971       1.62141196      -0.33932880
H       -0.92274504       1.03431344      -1.62725230
H       -1.66011276      -0.49570876       0.93404423
H       -1.73905794      -2.16584084      -0.45732686
16
Frame=12 idx=003011 GeodesicLength=0.7588299348729144 rxn_smarts="[C:1]([C@@:2]1([H:10])[C:3]([H:11])([H:12])[C:4]([H:13])([H:14])[C@:5]1([O:6][H:16])[H:15])([H:7])([H:8])[H:9]>>[C:1]([C:2]1=[C:3]([H:11])[C:4]([H:13])([H:14])[C@:5]1([O:6][H:16])[H:15])([H:7])([H:8])[H:9].[H:10][H:12]"
C        1.51239091      -0.88260989      -0.33606411
C        0.41170242      -0.13360748       0.36080292
C        0.17292935       1.28824518       0.27832753
C       -1.09707491       1.04336490      -0.54457978
C       -1.05378825      -0.40261107       0.02915927
O       -1.40049210      -1.39031717      -0.90789950
H        1.58213570      -1.90196077       0.05137481
H        1.34197901      -0.95209498      -1.41281143
H        2.48810455      -0.41528696      -0.19584317
H        1.01556725       0.18534123       1.89918996
H        0.05932724       2.27009835       0.73320823
H        1.23961257       1.30394620       1.49376474
H       -1.99215431       1.62575901      -0.31632054
H       -0.94451719       1.04118240      -1.62381010
H       -1.65292513      -0.49608283       0.94244673
H       -1.68279712      -2.18336611      -0.45094555
16
Frame=13 idx=003011 GeodesicLength=0.8227917332881409 rxn_smarts="[C:1]([C@@:2]1([H:10])[C:3]([H:11])([H:12])[C:4]([H:13])([H:14])[C@:5]1([O:6][H:16])[H:15])([H:7])([H:8])[H:9]>>[C:1]([C:2]1=[C:3]([H:11])[C:4]([H:13])([H:14])[C@:5]1([O:6][H:16])[H:15])([H:7])([H:8])[H:9].[H:10][H:12]"
C        1.51332340      -0.88672197      -0.34459817
C        0.41466845      -0.13565336       0.35287609
C        0.18353250       1.28820276       0.26489077
C       -1.10073393       1.04416636      -0.53766548
C       -1.05509272      -0.39789516       0.03259292
O       -1.42113869      -1.37947145      -0.90455203
H        1.57691922      -1.90774041       0.03964874
H        1.34962622      -0.95037539      -1.42255874
H        2.49231753      -0.42713475      -0.20097220
H        0.97891219       0.16594856       1.92675617
H        0.10158898       2.29674200       0.66627913
H        1.19516384       1.30583386       1.53584720
H       -1.98900218       1.62979965      -0.29189923
H       -0.96695963       1.04720063      -1.61931262
H       -1.64481926      -0.49660033       0.95173673
H       -1.62830593      -2.19630101      -0.44906927
16
Frame=14 idx=003011 GeodesicLength=0.8872963499956751 rxn_smarts="[C:1]([C@@:2]1([H:10])[C:3]([H:11])([H:12])[C:4]([H:13])([H:14])[C@:5]1([O:6][H:16])[H:15])([H:7])([H:8])[H:9]>>[C:1]([C:2]1=[C:3]([H:11])[C:4]([H:13])([H:14])[C@:5]1([O:6][H:16])[H:15])([H:7])([H:8])[H:9].[H:10][H:12]"
C        1.51438779      -0.89129311      -0.35277185
C        0.41808900      -0.13781154       0.34560243
C        0.19461692       1.28804996       0.25080166
C       -1.10427385       1.04489219      -0.52998420
C       -1.05595977      -0.39338205       0.03688978
O       -1.44199432      -1.36906424      -0.89954464
H        1.57209626      -1.91377062       0.02889274
H        1.35708868      -0.94974978      -1.43186393
H        2.49670681      -0.43935305      -0.20656439
H        0.94294546       0.14858831       1.95345660
H        0.14509493       2.31882932       0.59921848
H        1.14620170       1.31049183       1.57613448
H       -1.98496491       1.63404287      -0.26610113
H       -0.99023992       1.05292672      -1.61385760
H       -1.63600188      -0.49743171       0.96192213
H       -1.57379289      -2.20596511      -0.45223057
16
Frame=15 idx=003011 GeodesicLength=0.9520943441297272 rxn_smarts="[C:1]([C@@:2]1([H:10])[C:3]([H:11])([H:12])[C:4]([H:13])([H:14])[C@:5]1([O:6][H:16])[H:15])([H:7])([H:8])[H:9]>>[C:1]([C:2]1=[C:3]([H:11])[C:4]([H:13])([H:14])[C@:5]1([O:6][H:16])[H:15])([H:7])([H:8])[H:9].[H:10][H:12]"
C        1.51568504      -0.89630506      -0.36065253
C        0.42207460      -0.14007462       0.33891909
C        0.20623638       1.28773581       0.23604800
C       -1.10741916       1.04544106      -0.52175474
C       -1.05625341      -0.38904247       0.04198871
O       -1.46280798      -1.35911474      -0.89280603
H        1.56769267      -1.92002334       0.01896509
H        1.36451594      -0.95012808      -1.44077140
H        2.50139617      -0.45201987      -0.21266826
H        0.90808083       0.13357674       1.97925170
H        0.18815346       2.33602959       0.53374951
H        1.09321051       1.31788536       1.61385977
H       -1.97986865       1.63830391      -0.23948833
H       -1.01383511       1.05818358      -1.60755493
H       -1.62638431      -0.49836830       0.97290369
H       -1.52047697      -2.21207958      -0.45998934
16
Frame=16 idx=003011 GeodesicLength=1.0169988000185861 rxn_smarts="[C:1]([C@@:2]1([H:10])[C:3]([H:11])([H:12])[C:4]([H:13])([H:14])[C@:5]1([O:6][H:16])[H:15])([H:7])([H:8])[H:9]>>[C:1]([C:2]1=[C:3]([H:11])[C:4]([H:13])([H:14])[C@:5]1([O:6][H:16])[H:15])([H:7])([H:8])[H:9].[H:10][H:12]"
C        1.51703403      -0.90179274      -0.36819719
C        0.42649423      -0.14247682       0.33284880
C        0.21829914       1.28700727       0.22074213
C       -1.11006719       1.04570870      -0.51284661
C       -1.05603324      -0.38478396       0.04795281
O       -1.48364036      -1.34925753      -0.88421068
H        1.56346151      -1.92637682       0.00992697
H        1.37178224      -0.95157708      -1.44912210
H        2.50619934      -0.46529779      -0.21934921
H        0.87427732       0.12115508       2.00408845
H        0.23031323       2.34854522       0.47014400
H        1.03653337       1.32771455       1.64827842
H       -1.97363070       1.64239490      -0.21208998
H       -1.03743634       1.06291033      -1.60011473
H       -1.61610070      -0.49931364       0.98464054
H       -1.46748588      -2.21455967      -0.47269163
