12
Frame=0 idx=005665 GeodesicLength=0.0 rxn_smarts="[N:1]([c:2]1[c:3]([H:9])[n:4]([H:10])[c:5]([H:11])[c:6]1[H:12])([H:7])[H:8]>>[N:1]([C:2]1=[C:3]([H:9])[N:4]([H:10])[C:5][C:6]1([H:11])[H:12])([H:7])[H:8]"
N       -1.93621151       0.08892103      -0.32699110
C       -0.56542572       0.05394632      -0.05160228
C        0.32871850       1.07626753       0.00181634
N        1.58481622       0.54568183       0.20041969
C        1.60475325      -0.80901135       0.37933112
C        0.21723129      -1.13815394       0.15169045
H       -2.34096015       1.00870691      -0.25620807
H       -2.46997028      -0.56726707       0.22073341
H        0.16859272       2.13947860      -0.10202622
H        2.42171621       1.09854629       0.21573948
H        1.16162854      -1.35919216      -0.71969839
H       -0.17488904      -2.13792396       0.28679554
12
Frame=1 idx=005665 GeodesicLength=0.038452222414627854 rxn_smarts="[N:1]([c:2]1[c:3]([H:9])[n:4]([H:10])[c:5]([H:11])[c:6]1[H:12])([H:7])[H:8]>>[N:1]([C:2]1=[C:3]([H:9])[N:4]([H:10])[C:5][C:6]1([H:11])[H:12])([H:7])[H:8]"
N       -1.93621944       0.09160989      -0.32893714
C       -0.56529888       0.05585642      -0.05652396
C        0.32698504       1.07902409       0.00356269
N        1.58431337       0.54719535       0.20245140
C        1.60104291      -0.80563329       0.37978969
C        0.21653258      -1.13852846       0.14386273
H       -2.34284012       1.00986276      -0.24978994
H       -2.46857790      -0.57089286       0.21240991
H        0.16679056       2.14294079      -0.09127460
H        2.42262032       1.09822167       0.20748335
H        1.17349414      -1.37577222      -0.72353973
H       -0.17884259      -2.13388414       0.30050561
12
Frame=2 idx=005665 GeodesicLength=0.07691350428733038 rxn_smarts="[N:1]([c:2]1[c:3]([H:9])[n:4]([H:10])[c:5]([H:11])[c:6]1[H:12])([H:7])[H:8]>>[N:1]([C:2]1=[C:3]([H:9])[N:4]([H:10])[C:5][C:6]1([H:11])[H:12])([H:7])[H:8]"
N       -1.93625811       0.09435411      -0.33066180
C       -0.56520074       0.05780789      -0.06124140
C        0.32512914       1.08182560       0.00609258
N        1.58375904       0.54871103       0.20475380
C        1.59732382      -0.80233663       0.37990630
C        0.21585216      -1.13894621       0.13571697
H       -2.34475764       1.01097234      -0.24295240
H       -2.46719822      -0.57453725       0.20408777
H        0.16518141       2.14623314      -0.08202853
H        2.42335110       1.09789704       0.19979621
H        1.18554707      -1.39251653      -0.72729416
H       -0.18272903      -2.12946453       0.31382466
12
Frame=3 idx=005665 GeodesicLength=0.11533520484279298 rxn_smarts="[N:1]([c:2]1[c:3]([H:9])[n:4]([H:10])[c:5]([H:11])[c:6]1[H:12])([H:7])[H:8]>>[N:1]([C:2]1=[C:3]([H:9])[N:4]([H:10])[C:5][C:6]1([H:11])[H:12])([H:7])[H:8]"
N       -1.93639519       0.09720128      -0.33180956
C       -0.56516578       0.05979654      -0.06559324
C        0.32306582       1.08465453       0.01001881
N        1.58307047       0.55020392       0.20787652
C        1.59355870      -0.79918915       0.37970233
C        0.21518803      -1.13943435       0.12702579
H       -2.34677091       1.01204678      -0.23512877
H       -2.46582780      -0.57822847       0.19605709
H        0.16410237       2.14921471      -0.07655043
H        2.42380720       1.09758392       0.19357610
H        1.19787802      -1.40907653      -0.73118541
H       -0.18651093      -2.12477317       0.32601077
12
Frame=4 idx=005665 GeodesicLength=0.15377053857589834 rxn_smarts="[N:1]([c:2]1[c:3]([H:9])[n:4]([H:10])[c:5]([H:11])[c:6]1[H:12])([H:7])[H:8]>>[N:1]([C:2]1=[C:3]([H:9])[N:4]([H:10])[C:5][C:6]1([H:11])[H:12])([H:7])[H:8]"
N       -1.93655009       0.10010025      -0.33279454
C       -0.56515357       0.06183711      -0.06976379
C        0.32088066       1.08751102       0.01467531
N        1.58233759       0.55169074       0.21119008
C        1.58979327      -0.79611167       0.37916988
C        0.21453966      -1.13993510       0.11809448
H       -2.34881538       1.01305261      -0.22694475
H       -2.46447124      -0.58193756       0.18793664
H        0.16318259       2.15211285      -0.07222388
H        2.42411302       1.09728587       0.18771098
H        1.21036832      -1.42589291      -0.73490062
H       -0.19022482      -2.11971322       0.33785020
12
Frame=5 idx=005665 GeodesicLength=0.19223923660465694 rxn_smarts="[N:1]([c:2]1[c:3]([H:9])[n:4]([H:10])[c:5]([H:11])[c:6]1[H:12])([H:7])[H:8]>>[N:1]([C:2]1=[C:3]([H:9])[N:4]([H:10])[C:5][C:6]1([H:11])[H:12])([H:7])[H:8]"
N       -1.93664667       0.10303232      -0.33399703
C       -0.56512746       0.06392926      -0.07393751
C        0.31865538       1.09037951       0.01946447
N        1.58165089       0.55318792       0.21410902
C        1.58606748      -0.79300657       0.37831718
C        0.21389651      -1.14039852       0.10921042
H       -2.35084482       1.01395418      -0.21883330
H       -2.46312666      -0.58566864       0.17926490
H        0.16208129       2.15509073      -0.06670460
H        2.42437029       1.09696913       0.18115775
H        1.22292629      -1.44335902      -0.73809187
H       -0.19390251      -2.11411029       0.35004055
12
Frame=6 idx=005665 GeodesicLength=0.23070319662110852 rxn_smarts="[N:1]([c:2]1[c:3]([H:9])[n:4]([H:10])[c:5]([H:11])[c:6]1[H:12])([H:7])[H:8]>>[N:1]([C:2]1=[C:3]([H:9])[N:4]([H:10])[C:5][C:6]1([H:11])[H:12])([H:7])[H:8]"
N       -1.93665485       0.10602611      -0.33550883
C       -0.56507565       0.06608107      -0.07808860
C        0.31639017       1.09327135       0.02447915
N        1.58103259       0.55471082       0.21656988
C        1.58239847      -0.78985368       0.37715788
C        0.21325726      -1.14082686       0.10046093
H       -2.35285930       1.01474613      -0.21076128
H       -2.46179804      -0.58948055       0.16977759
H        0.16075563       2.15817239      -0.05967999
H        2.42459121       1.09660796       0.17356372
H        1.23549826      -1.46154873      -0.74063149
H       -0.19753576      -2.10790600       0.36266104
12
Frame=7 idx=005665 GeodesicLength=0.26918558039618895 rxn_smarts="[N:1]([c:2]1[c:3]([H:9])[n:4]([H:10])[c:5]([H:11])[c:6]1[H:12])([H:7])[H:8]>>[N:1]([C:2]1=[C:3]([H:9])[N:4]([H:10])[C:5][C:6]1([H:11])[H:12])([H:7])[H:8]"
N       -1.93669742       0.10909979      -0.33676844
C       -0.56504657       0.06829879      -0.08207154
C        0.31398254       1.09617272       0.03035839
N        1.58035399       0.55622816       0.21933200
C        1.57872752      -0.78676419       0.37568598
C        0.21262036      -1.14124185       0.09146866
H       -2.35492088       1.01544885      -0.20211720
H       -2.46046293      -0.59330584       0.16022583
H        0.15968177       2.16111357      -0.05431583
H        2.42461813       1.09629555       0.16648854
H        1.24823368      -1.47997987      -0.74291711
H       -0.20109019      -2.10136568       0.37463072
12
Frame=8 idx=005665 GeodesicLength=0.3076687167710581 rxn_smarts="[N:1]([c:2]1[c:3]([H:9])[n:4]([H:10])[c:5]([H:11])[c:6]1[H:12])([H:7])[H:8]>>[N:1]([C:2]1=[C:3]([H:9])[N:4]([H:10])[C:5][C:6]1([H:11])[H:12])([H:7])[H:8]"
N       -1.93669909       0.11225376      -0.33812969
C       -0.56500055       0.07058867      -0.08601916
C        0.31149684       1.09908676       0.03664374
N        1.57969682       0.55776516       0.22186550
C        1.57510194      -0.78365622       0.37388670
C        0.21199321      -1.14161009       0.08250046
H       -2.35699734       1.01603598      -0.19325093
H       -2.45912065      -0.59717215       0.15011833
H        0.15855700       2.16406392      -0.04854355
H        2.42453930       1.09600547       0.15895778
H        1.26101832      -1.49902401      -0.74460998
H       -0.20458579      -2.09433725       0.38658080
12
Frame=9 idx=005665 GeodesicLength=0.34625930588978265 rxn_smarts="[N:1]([c:2]1[c:3]([H:9])[n:4]([H:10])[c:5]([H:11])[c:6]1[H:12])([H:7])[H:8]>>[N:1]([C:2]1=[C:3]([H:9])[N:4]([H:10])[C:5][C:6]1([H:11])[H:12])([H:7])[H:8]"
N       -1.93660915       0.11550491      -0.33981479
C       -0.56491151       0.07296375      -0.09004346
C        0.30898674       1.10201024       0.04309765
N        1.57912781       0.55934141       0.22385977
C        1.57155024      -0.78046805       0.37176345
C        0.21135327      -1.14190113       0.07372670
H       -2.35906577       1.01648033      -0.18428858
H       -2.45775859      -0.60112201       0.13907222
H        0.15719032       2.16711148      -0.04112011
H        2.42439609       1.09572712       0.15032602
H        1.27379065      -1.51893130      -0.74548228
H       -0.20805009      -2.08671674       0.39890342
12
Frame=10 idx=005665 GeodesicLength=0.38481327502007984 rxn_smarts="[N:1]([c:2]1[c:3]([H:9])[n:4]([H:10])[c:5]([H:11])[c:6]1[H:12])([H:7])[H:8]>>[N:1]([C:2]1=[C:3]([H:9])[N:4]([H:10])[C:5][C:6]1([H:11])[H:12])([H:7])[H:8]"
N       -1.93638216       0.11889312      -0.34196634
C       -0.56475971       0.07544088      -0.09412762
C        0.30645801       1.10498413       0.04978922
N        1.57868686       0.56097599       0.22518663
C        1.56810971      -0.77719136       0.36932009
C        0.21070347      -1.14212110       0.06529957
H       -2.36113605       1.01674294      -0.17516039
H       -2.45636965      -0.60525419       0.12664967
H        0.15550768       2.17032980      -0.03149448
H        2.42421499       1.09539381       0.14005876
H        1.28645924      -1.53978312      -0.74531435
H       -0.21149240      -2.07841089       0.41175924
12
Frame=11 idx=005665 GeodesicLength=0.42335642537948426 rxn_smarts="[N:1]([c:2]1[c:3]([H:9])[n:4]([H:10])[c:5]([H:11])[c:6]1[H:12])([H:7])[H:8]>>[N:1]([C:2]1=[C:3]([H:9])[N:4]([H:10])[C:5][C:6]1([H:11])[H:12])([H:7])[H:8]"
N       -1.93599214       0.12245810      -0.34469431
C       -0.56451093       0.07802733      -0.09844099
C        0.30394022       1.10793569       0.05667864
N        1.57837901       0.56269814       0.22567426
C        1.56476748      -0.77376030       0.36655683
C        0.21002863      -1.14225415       0.05724914
H       -2.36317149       1.01682841      -0.16593081
H       -2.45491388      -0.60950654       0.11270252
H        0.15343287       2.17363489      -0.01898502
H        2.42390469       1.09507371       0.12776930
H        1.29902425      -1.56176886      -0.74388141
H       -0.21488869      -2.06936643       0.42530186
12
Frame=12 idx=005665 GeodesicLength=0.4619453541870583 rxn_smarts="[N:1]([c:2]1[c:3]([H:9])[n:4]([H:10])[c:5]([H:11])[c:6]1[H:12])([H:7])[H:8]>>[N:1]([C:2]1=[C:3]([H:9])[N:4]([H:10])[C:5][C:6]1([H:11])[H:12])([H:7])[H:8]"
N       -1.93548164       0.12619710      -0.34777197
C       -0.56419463       0.08073531      -0.10281003
C        0.30139538       1.11089644       0.06392855
N        1.57818779       0.56448749       0.22555788
C        1.56155129      -0.77023026       0.36339458
C        0.20934541      -1.14229471       0.04945784
H       -2.36522007       1.01669236      -0.15635473
H       -2.45338950      -0.61386747       0.09744970
H        0.15113786       2.17698236      -0.00482181
H        2.42344723       1.09479023       0.11417489
H        1.31146964      -1.58470934      -0.74135804
H       -0.21824878      -2.05967952       0.43915314
12
Frame=13 idx=005665 GeodesicLength=0.5005706663807233 rxn_smarts="[N:1]([c:2]1[c:3]([H:9])[n:4]([H:10])[c:5]([H:11])[c:6]1[H:12])([H:7])[H:8]>>[N:1]([C:2]1=[C:3]([H:9])[N:4]([H:10])[C:5][C:6]1([H:11])[H:12])([H:7])[H:8]"
N       -1.93487719       0.13009498      -0.35108307
C       -0.56381418       0.08355945      -0.10724642
C        0.29882296       1.11385278       0.07153409
N        1.57807644       0.56635316       0.22497837
C        1.55844833      -0.76662038       0.35981597
C        0.20864973      -1.14226684       0.04186113
H       -2.36727751       1.01633100      -0.14644734
H       -2.45177783      -0.61823942       0.08116686
H        0.14869073       2.18031314       0.01057441
H        2.42277620       1.09457423       0.09955107
H        1.32382400      -1.60852369      -0.73775306
H       -0.22154169      -2.04942840       0.45304801
12
Frame=14 idx=005665 GeodesicLength=0.5392235723573273 rxn_smarts="[N:1]([c:2]1[c:3]([H:9])[n:4]([H:10])[c:5]([H:11])[c:6]1[H:12])([H:7])[H:8]>>[N:1]([C:2]1=[C:3]([H:9])[N:4]([H:10])[C:5][C:6]1([H:11])[H:12])([H:7])[H:8]"
N       -1.93422448       0.13413491      -0.35444198
C       -0.56338382       0.08649432      -0.11173459
C        0.29621135       1.11678396       0.07950350
N        1.57800088       0.56828886       0.22413768
C        1.55544357      -0.76296033       0.35578357
C        0.20794560      -1.14218443       0.03431469
H       -2.36934837       1.01574627      -0.13614610
H       -2.45006776      -0.62252618       0.06422962
H        0.14620021       2.18356648       0.02641466
H        2.42183908       1.09447844       0.08444207
H        1.33612868      -1.63309234      -0.73314532
H       -0.22474494      -2.03872994       0.46664220
12
Frame=15 idx=005665 GeodesicLength=0.5778943999282162 rxn_smarts="[N:1]([c:2]1[c:3]([H:9])[n:4]([H:10])[c:5]([H:11])[c:6]1[H:12])([H:7])[H:8]>>[N:1]([C:2]1=[C:3]([H:9])[N:4]([H:10])[C:5][C:6]1([H:11])[H:12])([H:7])[H:8]"
N       -1.93353646       0.13829853      -0.35780397
C       -0.56290787       0.08953530      -0.11627492
C        0.29357197       1.11967621       0.08774479
N        1.57795320       0.57029792       0.22305637
C        1.55254265      -0.75925367       0.35124989
C        0.20723342      -1.14205451       0.02677917
H       -2.37142474       1.01493316      -0.12552094
H       -2.44825620      -0.62666249       0.04679589
H        0.14367178       2.18672465       0.04264330
H        2.42061889       1.09453467       0.06899037
H        1.34837586      -1.65839753      -0.72750836
H       -0.22784248      -2.02763224       0.47984841
12
Frame=16 idx=005665 GeodesicLength=0.6165784676261673 rxn_smarts="[N:1]([c:2]1[c:3]([H:9])[n:4]([H:10])[c:5]([H:11])[c:6]1[H:12])([H:7])[H:8]>>[N:1]([C:2]1=[C:3]([H:9])[N:4]([H:10])[C:5][C:6]1([H:11])[H:12])([H:7])[H:8]"
N       -1.93283086       0.14256894      -0.36110522
C       -0.56239512       0.09267897      -0.12085134
C        0.29091154       1.12251491       0.09619591
N        1.57792162       0.57237719       0.22178711
C        1.54974940      -0.75551052       0.34616058
C        0.20651303      -1.14188047       0.01919851
H       -2.37350282       1.01389121      -0.11460786
H       -2.44634538      -0.63059465       0.02903762
H        0.14112975       2.18977017       0.05906293
H        2.41910671       1.09477805       0.05341147
H        1.36055500      -1.68439854      -0.72084594
H       -0.23081287      -2.01619526       0.49255625
