12
Frame=0 idx=008316 GeodesicLength=0.0 rxn_smarts="[C:1]([c:2]1[c:3]([O:4][H:11])[n:5][c:6]([H:12])[o:7]1)([H:8])([H:9])[H:10]>>[C:1]([C@:2]12[C:3]([O:4][H:11])=[N:5][C@@:6]1([H:12])[O:7]2)([H:8])([H:9])[H:10]"
C       -1.58637318      -0.66934193      -0.00750992
C       -0.18591445      -0.30644963       0.28045497
C        0.55737343       0.85586442       0.27913661
O        0.07284602       2.05961377       0.01759810
N        1.92452232       0.62220849       0.33144717
C        1.57839303      -0.58486637      -0.13934307
O        0.77815950      -1.36714779       0.61947399
H       -1.66705119      -1.37688183      -0.83541666
H       -2.05812707      -1.12132554       0.86930966
H       -2.13951429       0.23291676      -0.26908058
H        0.82856510       2.65559632      -0.04562307
H        1.89712079      -1.00018672      -1.10044720
12
Frame=1 idx=008316 GeodesicLength=0.03835057480983797 rxn_smarts="[C:1]([c:2]1[c:3]([O:4][H:11])[n:5][c:6]([H:12])[o:7]1)([H:8])([H:9])[H:10]>>[C:1]([C@:2]12[C:3]([O:4][H:11])=[N:5][C@@:6]1([H:12])[O:7]2)([H:8])([H:9])[H:10]"
C       -1.58489395      -0.67022858      -0.01033007
C       -0.18227944      -0.30625321       0.26743774
C        0.55726539       0.86201201       0.27378867
O        0.06899369       2.07083192       0.04182226
N        1.92002518       0.62350566       0.30745274
C        1.57502941      -0.59160541      -0.15089909
O        0.77594000      -1.36026435       0.62459179
H       -1.66765184      -1.39528433      -0.82265126
H       -2.05743873      -1.10170775       0.87625177
H       -2.13694229       0.22683010      -0.29132453
H        0.82307270       2.66930229      -0.01959296
H        1.90887986      -1.02713834      -1.09654706
12
Frame=2 idx=008316 GeodesicLength=0.07654661325582879 rxn_smarts="[C:1]([c:2]1[c:3]([O:4][H:11])[n:5][c:6]([H:12])[o:7]1)([H:8])([H:9])[H:10]>>[C:1]([C@:2]12[C:3]([O:4][H:11])=[N:5][C@@:6]1([H:12])[O:7]2)([H:8])([H:9])[H:10]"
C       -1.58344440      -0.67100710      -0.01317341
C       -0.17871069      -0.30611440       0.25452954
C        0.55695082       0.86816115       0.26888138
O        0.06516534       2.08157593       0.06752671
N        1.91511411       0.62495812       0.28319291
C        1.57158909      -0.59821236      -0.16252080
O        0.77377733      -1.35323775       0.62923947
H       -1.66828098      -1.41275445      -0.80997899
H       -2.05663524      -1.08236351       0.88249436
H       -2.13444631       0.22062356      -0.31284908
H        0.81782823       2.68202325       0.00440329
H        1.92109270      -1.05365245      -1.09174538
12
Frame=3 idx=008316 GeodesicLength=0.11456778833865416 rxn_smarts="[C:1]([c:2]1[c:3]([O:4][H:11])[n:5][c:6]([H:12])[o:7]1)([H:8])([H:9])[H:10]>>[C:1]([C@:2]12[C:3]([O:4][H:11])=[N:5][C@@:6]1([H:12])[O:7]2)([H:8])([H:9])[H:10]"
C       -1.58202853      -0.67169399      -0.01599197
C       -0.17521189      -0.30599235       0.24170677
C        0.55645207       0.87433325       0.26412769
O        0.06155446       2.09173079       0.09351756
N        1.90977644       0.62656715       0.25843688
C        1.56806585      -0.60475943      -0.17422205
O        0.77165868      -1.34600084       0.63354275
H       -1.66895041      -1.42931638      -0.79739938
H       -2.05566906      -1.06336839       0.88813190
H       -2.13209330       0.21430518      -0.33354665
H        0.81271806       2.69408294       0.02765190
H        1.93372763      -1.07988794      -1.08595541
12
Frame=4 idx=008316 GeodesicLength=0.15232041096956989 rxn_smarts="[C:1]([c:2]1[c:3]([O:4][H:11])[n:5][c:6]([H:12])[o:7]1)([H:8])([H:9])[H:10]>>[C:1]([C@:2]12[C:3]([O:4][H:11])=[N:5][C@@:6]1([H:12])[O:7]2)([H:8])([H:9])[H:10]"
C       -1.58065429      -0.67222544      -0.01877887
C       -0.17180232      -0.30596314       0.22926559
C        0.55577487       0.88041569       0.26050174
O        0.05827997       2.10123739       0.12089017
N        1.90398977       0.62817873       0.23412269
C        1.56446149      -0.61112234      -0.18585111
O        0.76954324      -1.33891906       0.63718489
H       -1.66963094      -1.44437372      -0.78551186
H       -2.05456151      -1.04536006       0.89292839
H       -2.12992865       0.20820743      -0.35277554
H        0.80771855       2.70499356       0.04730937
H        1.94680983      -1.10506904      -1.07928545
12
Frame=5 idx=008316 GeodesicLength=0.18978452903661805 rxn_smarts="[C:1]([c:2]1[c:3]([O:4][H:11])[n:5][c:6]([H:12])[o:7]1)([H:8])([H:9])[H:10]>>[C:1]([C@:2]12[C:3]([O:4][H:11])=[N:5][C@@:6]1([H:12])[O:7]2)([H:8])([H:9])[H:10]"
C       -1.57929218      -0.67247131      -0.02155006
C       -0.16845578      -0.30613840       0.21762146
C        0.55500574       0.88622497       0.25940564
O        0.05554649       2.11001428       0.15147398
N        1.89780427       0.62959514       0.21158257
C        1.56080552      -0.61715503      -0.19719276
O        0.76736800      -1.33254570       0.63975787
H       -1.67025195      -1.45715168      -0.77511633
H       -2.05337056      -1.02907000       0.89657396
H       -2.12788340       0.20284955      -0.36980154
H        0.80242525       2.71416031       0.05927924
H        1.96029860      -1.12831212      -1.07203401
12
Frame=6 idx=008316 GeodesicLength=0.2271112513005521 rxn_smarts="[C:1]([c:2]1[c:3]([O:4][H:11])[n:5][c:6]([H:12])[o:7]1)([H:8])([H:9])[H:10]>>[C:1]([C@:2]12[C:3]([O:4][H:11])=[N:5][C@@:6]1([H:12])[O:7]2)([H:8])([H:9])[H:10]"
C       -1.57797927      -0.67269391      -0.02420931
C       -0.16519188      -0.30626150       0.20601980
C        0.55411427       0.89205595       0.25801250
O        0.05324337       2.11811571       0.18023496
N        1.89116496       0.63112574       0.18818886
C        1.55704459      -0.62327916      -0.20869864
O        0.76521886      -1.32592648       0.64218369
H       -1.67093151      -1.46935662      -0.76475328
H       -2.05200023      -1.01314370       0.89996880
H       -2.12608334       0.19739903      -0.38608548
H        0.79726400       2.72344705       0.07288934
H        1.97413619      -1.15148211      -1.06375124
12
Frame=7 idx=008316 GeodesicLength=0.2643305098215508 rxn_smarts="[C:1]([c:2]1[c:3]([O:4][H:11])[n:5][c:6]([H:12])[o:7]1)([H:8])([H:9])[H:10]>>[C:1]([C@:2]12[C:3]([O:4][H:11])=[N:5][C@@:6]1([H:12])[O:7]2)([H:8])([H:9])[H:10]"
C       -1.57670776      -0.67282877      -0.02678785
C       -0.16200120      -0.30640334       0.19463757
C        0.55314599       0.89780793       0.25702907
O        0.05142825       2.12561557       0.20852670
N        1.88407720       0.63268262       0.16450850
C        1.55318193      -0.62941108      -0.22031789
O        0.76308427      -1.31932663       0.64421063
H       -1.67164826      -1.48072039      -0.75470728
H       -2.05052189      -0.99777863       0.90297146
H       -2.12445248       0.19206927      -0.40145306
H        0.79205784       2.73238820       0.08591564
H        1.98835611      -1.17409476      -1.05453349
12
Frame=8 idx=008316 GeodesicLength=0.3014811035669153 rxn_smarts="[C:1]([c:2]1[c:3]([O:4][H:11])[n:5][c:6]([H:12])[o:7]1)([H:8])([H:9])[H:10]>>[C:1]([C@:2]12[C:3]([O:4][H:11])=[N:5][C@@:6]1([H:12])[O:7]2)([H:8])([H:9])[H:10]"
C       -1.57548656      -0.67292178      -0.02929311
C       -0.15889365      -0.30653407       0.18332073
C        0.55209000       0.90352654       0.25595561
O        0.05004178       2.13258840       0.23597027
N        1.87649092       0.63431529       0.14005045
C        1.54920840      -0.63562003      -0.23214144
O        0.76099252      -1.31258428       0.64597218
H       -1.67241968      -1.49160691      -0.74467998
H       -2.04894001      -0.98265424       0.90574047
H       -2.12298972       0.18670125      -0.41628248
H        0.78693429       2.74118996       0.09965244
H        2.00297170      -1.19640013      -1.04426514
12
Frame=9 idx=008316 GeodesicLength=0.33859114097101634 rxn_smarts="[C:1]([c:2]1[c:3]([O:4][H:11])[n:5][c:6]([H:12])[o:7]1)([H:8])([H:9])[H:10]>>[C:1]([C@:2]12[C:3]([O:4][H:11])=[N:5][C@@:6]1([H:12])[O:7]2)([H:8])([H:9])[H:10]"
C       -1.57432361      -0.67297961      -0.03173823
C       -0.15587570      -0.30666152       0.17203642
C        0.55095281       0.90920399       0.25471181
O        0.04908721       2.13907278       0.26281298
N        1.86836615       0.63602431       0.11469911
C        1.54511877      -0.64191866      -0.24420855
O        0.75894608      -1.30568846       0.64746002
H       -1.67325370      -1.50213362      -0.73457694
H       -2.04729330      -0.96764355       0.90831191
H       -2.12166009       0.18125946      -0.43073179
H        0.78191739       2.74982291       0.11411583
H        2.01801799      -1.21835803      -1.03289257
12
Frame=10 idx=008316 GeodesicLength=0.3755996070189077 rxn_smarts="[C:1]([c:2]1[c:3]([O:4][H:11])[n:5][c:6]([H:12])[o:7]1)([H:8])([H:9])[H:10]>>[C:1]([C@:2]12[C:3]([O:4][H:11])=[N:5][C@@:6]1([H:12])[O:7]2)([H:8])([H:9])[H:10]"
C       -1.57323071      -0.67300289      -0.03409177
C       -0.15296329      -0.30681011       0.16090582
C        0.54974361       0.91478384       0.25363469
O        0.04859202       2.14505356       0.28890462
N        1.85967531       0.63772691       0.08890229
C        1.54089573      -0.64826004      -0.25646192
O        0.75692575      -1.29879191       0.64855128
H       -1.67415437      -1.51210393      -0.72462362
H       -2.04557098      -0.95302655       0.91064934
H       -2.12052753       0.17584766      -0.44451101
H        0.77715099       2.75814631       0.12863214
H        2.03346347      -1.23956287      -1.02049185
12
Frame=11 idx=008316 GeodesicLength=0.4125704120996774 rxn_smarts="[C:1]([c:2]1[c:3]([O:4][H:11])[n:5][c:6]([H:12])[o:7]1)([H:8])([H:9])[H:10]>>[C:1]([C@:2]12[C:3]([O:4][H:11])=[N:5][C@@:6]1([H:12])[O:7]2)([H:8])([H:9])[H:10]"
C       -1.57222432      -0.67302957      -0.03636137
C       -0.15017011      -0.30698021       0.14982857
C        0.54843983       0.92030167       0.25241027
O        0.04849431       2.15061519       0.31415163
N        1.85036775       0.63944980       0.06237324
C        1.53654076      -0.65468610      -0.26896554
O        0.75494289      -1.29181253       0.64930694
H       -1.67513729      -1.52176137      -0.71460867
H       -2.04380343      -0.93858833       0.91284148
H       -2.11958613       0.17034199      -0.45787613
H        0.77279755       2.76624364       0.14388052
H        2.04933820      -1.26009419      -1.00698095
12
Frame=12 idx=008316 GeodesicLength=0.4494650812803154 rxn_smarts="[C:1]([c:2]1[c:3]([O:4][H:11])[n:5][c:6]([H:12])[o:7]1)([H:8])([H:9])[H:10]>>[C:1]([C@:2]12[C:3]([O:4][H:11])=[N:5][C@@:6]1([H:12])[O:7]2)([H:8])([H:9])[H:10]"
C       -1.57129560      -0.67301784      -0.03853313
C       -0.14749265      -0.30721255       0.13897605
C        0.54711024       0.92565878       0.25158091
O        0.04892154       2.15573422       0.33887728
N        1.84047206       0.64107906       0.03575258
C        1.53205815      -0.66115322      -0.28162397
O        0.75295972      -1.28500687       0.64957207
H       -1.67619269      -1.53079967      -0.70487043
H       -2.04198897      -0.92466880       0.91480192
H       -2.11883371       0.16495984      -0.47048510
H        0.76871123       2.77392435       0.15847109
H        2.06557069      -1.27949731      -0.99251927
12
Frame=13 idx=008316 GeodesicLength=0.4863150666600168 rxn_smarts="[C:1]([c:2]1[c:3]([O:4][H:11])[n:5][c:6]([H:12])[o:7]1)([H:8])([H:9])[H:10]>>[C:1]([C@:2]12[C:3]([O:4][H:11])=[N:5][C@@:6]1([H:12])[O:7]2)([H:8])([H:9])[H:10]"
C       -1.57046785      -0.67301680      -0.04061258
C       -0.14494638      -0.30749862       0.12821694
C        0.54572389       0.93089507       0.25073430
O        0.04979056       2.16047114       0.36282248
N        1.82993598       0.64265078       0.00869495
C        1.52744287      -0.66770457      -0.29450558
O        0.75099440      -1.27824520       0.64943388
H       -1.67734841      -1.53951016      -0.69514086
H       -2.04014868      -0.91100107       0.91663753
H       -2.11828338       0.15953160      -0.48263459
H        0.76512059       2.78128482       0.17336405
H        2.08218641      -1.29785700      -0.97701052
12
Frame=14 idx=008316 GeodesicLength=0.5231457291031097 rxn_smarts="[C:1]([c:2]1[c:3]([O:4][H:11])[n:5][c:6]([H:12])[o:7]1)([H:8])([H:9])[H:10]>>[C:1]([C@:2]12[C:3]([O:4][H:11])=[N:5][C@@:6]1([H:12])[O:7]2)([H:8])([H:9])[H:10]"
C       -1.56975787      -0.67309134      -0.04260277
C       -0.14255604      -0.30783250       0.11741608
C        0.54422172       0.93607002       0.24941735
O        0.05100768       2.16489304       0.38565232
N        1.81868244       0.64419893      -0.01912278
C        1.52268933      -0.67437238      -0.30764676
O        0.74905776      -1.27137106       0.64899213
H       -1.67861143      -1.54817364      -0.68514782
H       -2.03828621      -0.89734892       0.91843380
H       -2.11795947       0.15385230      -0.49459390
H        0.76236041       2.78837878       0.18956847
H        2.09915168      -1.31520324      -0.96036613
12
Frame=15 idx=008316 GeodesicLength=0.5599292187560478 rxn_smarts="[C:1]([c:2]1[c:3]([O:4][H:11])[n:5][c:6]([H:12])[o:7]1)([H:8])([H:9])[H:10]>>[C:1]([C@:2]12[C:3]([O:4][H:11])=[N:5][C@@:6]1([H:12])[O:7]2)([H:8])([H:9])[H:10]"
C       -1.56915256      -0.67318196      -0.04449824
C       -0.14030227      -0.30826066       0.10676333
C        0.54269440       0.94106930       0.24823193
O        0.05271217       2.16896178       0.40784372
N        1.80679430       0.64560239      -0.04699462
C        1.51782070      -0.68112534      -0.32093682
O        0.74711116      -1.26467677       0.64810361
H       -1.67997302      -1.55645649      -0.67526597
H       -2.03641499      -0.88405379       0.92009343
H       -2.11783448       0.14818134      -0.50602023
H        0.76016701       2.79504341       0.20549109
H        2.11637758      -1.33110320      -0.94281122
12
Frame=16 idx=008316 GeodesicLength=0.5966391580871185 rxn_smarts="[C:1]([c:2]1[c:3]([O:4][H:11])[n:5][c:6]([H:12])[o:7]1)([H:8])([H:9])[H:10]>>[C:1]([C@:2]12[C:3]([O:4][H:11])=[N:5][C@@:6]1([H:12])[O:7]2)([H:8])([H:9])[H:10]"
C       -1.56862116      -0.67323014      -0.04630484
C       -0.13814833      -0.30881411       0.09641079
C        0.54124277       0.94579561       0.24761822
O        0.05503850       2.17263526       0.42983743
N        1.79438215       0.64676031      -0.07434657
C        1.51288007      -0.68796046      -0.33425809
O        0.74512769      -1.25839374       0.64670883
H       -1.68140510      -1.56410745      -0.66580534
H       -2.03453906      -0.87136244       0.92154735
H       -2.11784974       0.14274825      -0.51668229
H        0.75818981       2.80122576       0.21987155
H        2.13370241      -1.34529685      -0.92459703
