15
Frame=0 idx=009052 GeodesicLength=0.0 rxn_smarts="[N:1]([C@@:2]([C:3]#[N:4])([C:5]1([H:11])[C:6]([H:12])([H:13])[C:7]1([H:14])[H:15])[H:10])([H:8])[H:9]>>[N:1](/[C:2](=[C:5](/[C:6]([C:7]([C:3]#[N:4])([H:14])[H:15])([H:12])[H:13])[H:11])[H:10])([H:8])[H:9]"
N        2.22485281      -0.14515724      -0.47059913
C        0.87966673      -0.44399029      -0.08583447
C        0.43014076       0.02647034       1.33243328
N        0.68500650       0.41515733       2.39434690
C       -0.07477301       0.11757832      -1.04020175
C       -1.39810337       0.58181054      -0.57770675
C       -1.65490532      -0.18302902       0.62910479
H        2.91236472      -0.64269167       0.07443023
H        2.41739100       0.84495643      -0.43337885
H        0.80952869      -1.53048849       0.04328779
H        0.15864154       0.00265433      -2.09290804
H       -1.49944963       1.66873239      -0.48584940
H       -2.10289363       0.27241340      -1.36504135
H       -1.79123101      -1.25158949       0.52984926
H       -1.99623673       0.26717317       1.54806754
15
Frame=1 idx=009052 GeodesicLength=0.09020890807245803 rxn_smarts="[N:1]([C@@:2]([C:3]#[N:4])([C:5]1([H:11])[C:6]([H:12])([H:13])[C:7]1([H:14])[H:15])[H:10])([H:8])[H:9]>>[N:1](/[C:2](=[C:5](/[C:6]([C:7]([C:3]#[N:4])([H:14])[H:15])([H:12])[H:13])[H:11])[H:10])([H:8])[H:9]"
N        2.22933466      -0.16089141      -0.48203104
C        0.88604612      -0.44171564      -0.08092840
C        0.42568497       0.04966468       1.35268211
N        0.68432054       0.45982869       2.40491527
C       -0.08104111       0.10065066      -1.02892763
C       -1.39745403       0.59289035      -0.57543371
C       -1.64759730      -0.20457122       0.61420111
H        2.91863368      -0.64124238       0.07591529
H        2.42448394       0.82938462      -0.48288280
H        0.81103813      -1.52408597       0.07553020
H        0.15138557      -0.00201217      -2.08307470
H       -1.47985353       1.67716043      -0.44961537
H       -2.10872669       0.31303726      -1.36663377
H       -1.79646847      -1.26938769       0.49317074
H       -2.01978648       0.22128976       1.53311270
15
Frame=2 idx=009052 GeodesicLength=0.18020926377232505 rxn_smarts="[N:1]([C@@:2]([C:3]#[N:4])([C:5]1([H:11])[C:6]([H:12])([H:13])[C:7]1([H:14])[H:15])[H:10])([H:8])[H:9]>>[N:1](/[C:2](=[C:5](/[C:6]([C:7]([C:3]#[N:4])([H:14])[H:15])([H:12])[H:13])[H:11])[H:10])([H:8])[H:9]"
N        2.23371608      -0.17714482      -0.49315808
C        0.89237632      -0.43917258      -0.07645143
C        0.42053412       0.07272416       1.37302552
N        0.68332393       0.50354619       2.41527869
C       -0.08693773       0.08527683      -1.01736607
C       -1.39673260       0.60346408      -0.57284176
C       -1.63995265      -0.22534302       0.59955662
H        2.92471978      -0.63988406       0.07733998
H        2.43146447       0.81182069      -0.53214871
H        0.81233565      -1.51674902       0.10691531
H        0.14461915      -0.00426824      -2.07289524
H       -1.46271365       1.68374350      -0.41434262
H       -2.11339321       0.35124774      -1.36713194
H       -1.80164253      -1.28584972       0.45707717
H       -2.04171714       0.17658826       1.51714257
15
Frame=3 idx=009052 GeodesicLength=0.2700342168660685 rxn_smarts="[N:1]([C@@:2]([C:3]#[N:4])([C:5]1([H:11])[C:6]([H:12])([H:13])[C:7]1([H:14])[H:15])[H:10])([H:8])[H:9]>>[N:1](/[C:2](=[C:5](/[C:6]([C:7]([C:3]#[N:4])([H:14])[H:15])([H:12])[H:13])[H:11])[H:10])([H:8])[H:9]"
N        2.23801849      -0.19392336      -0.50399079
C        0.89868777      -0.43636142      -0.07238282
C        0.41466792       0.09569401       1.39350753
N        0.68209203       0.54640665       2.42547571
C       -0.09242780       0.07143253      -1.00558062
C       -1.39597436       0.61356716      -0.56994048
C       -1.63198819      -0.24544172       0.58515457
H        2.93066347      -0.63857223       0.07870182
H        2.43836636       0.79224741      -0.58119762
H        0.81345656      -1.50849722       0.13750142
H        0.13830747      -0.00438140      -2.06239887
H       -1.44792851       1.68872026      -0.37991322
H       -2.11711715       0.38724548      -1.36665667
H       -1.80664943      -1.30108910       0.42147967
H       -2.06217464       0.13295295       1.50024036
15
Frame=4 idx=009052 GeodesicLength=0.359707479966974 rxn_smarts="[N:1]([C@@:2]([C:3]#[N:4])([C:5]1([H:11])[C:6]([H:12])([H:13])[C:7]1([H:14])[H:15])[H:10])([H:8])[H:9]>>[N:1](/[C:2](=[C:5](/[C:6]([C:7]([C:3]#[N:4])([H:14])[H:15])([H:12])[H:13])[H:11])[H:10])([H:8])[H:9]"
N        2.24224247      -0.21122085      -0.51453996
C        0.90500577      -0.43329037      -0.06870041
C        0.40805326       0.11859428       1.41417663
N        0.68066826       0.58847311       2.43554610
C       -0.09748437       0.05906671      -0.99362393
C       -1.39519623       0.62323964      -0.56673650
C       -1.62371128      -0.26494381       0.57097455
H        2.93649408      -0.63722682       0.07998856
H        2.44516316       0.77065170      -0.63006877
H        0.81444807      -1.49934911       0.16734949
H        0.13241608      -0.00262401      -2.05161387
H       -1.43536013       1.69229034      -0.34620973
H       -2.12007611       0.42124674      -1.36530554
H       -1.81138449      -1.31519268       0.38629695
H       -2.08127853       0.09028513       1.48246643
15
Frame=5 idx=009052 GeodesicLength=0.4492567532340728 rxn_smarts="[N:1]([C@@:2]([C:3]#[N:4])([C:5]1([H:11])[C:6]([H:12])([H:13])[C:7]1([H:14])[H:15])[H:10])([H:8])[H:9]>>[N:1](/[C:2](=[C:5](/[C:6]([C:7]([C:3]#[N:4])([H:14])[H:15])([H:12])[H:13])[H:11])[H:10])([H:8])[H:9]"
N        2.24638521      -0.22903126      -0.52481400
C        0.91135508      -0.42997131      -0.06538025
C        0.40065542       0.14143517       1.43508739
N        0.67909415       0.62980015       2.44553425
C       -0.10209186       0.04812327      -0.98153923
C       -1.39441505       0.63252509      -0.56323836
C       -1.61512949      -0.28391103       0.55699254
H        2.94224662      -0.63576191       0.08118134
H        2.45181357       0.74701606      -0.67879931
H        0.81535922      -1.48932784       0.19652031
H        0.12690886       0.00076300      -2.04057056
H       -1.42487219       1.69462649      -0.31313167
H       -2.12242541       0.45345695      -1.36316297
H       -1.81575333      -1.32823840       0.35145388
H       -2.09913081       0.04849559       1.46386664
15
Frame=6 idx=009052 GeodesicLength=0.5386612955081822 rxn_smarts="[N:1]([C@@:2]([C:3]#[N:4])([C:5]1([H:11])[C:6]([H:12])([H:13])[C:7]1([H:14])[H:15])[H:10])([H:8])[H:9]>>[N:1](/[C:2](=[C:5](/[C:6]([C:7]([C:3]#[N:4])([H:14])[H:15])([H:12])[H:13])[H:11])[H:10])([H:8])[H:9]"
N        2.25044138      -0.24739605      -0.53481547
C        0.91775245      -0.42642378      -0.06240054
C        0.39241439       0.16419453       1.45627528
N        0.67735158       0.67062137       2.45530755
C       -0.10623151       0.03855508      -0.96933800
C       -1.39362989       0.64146122      -0.55940766
C       -1.60625549      -0.30241842       0.54317181
H        2.94793677      -0.63408962       0.08227702
H        2.45829458       0.72123600      -0.72744239
H        0.81620958      -1.47843273       0.22506866
H        0.12178487       0.00565237      -2.02926873
H       -1.41631714       1.69582639      -0.28050266
H       -2.12426669       0.48409781      -1.36023952
H       -1.81966475      -1.34028485       0.31683699
H       -2.11582012       0.00740069       1.44447765
15
Frame=7 idx=009052 GeodesicLength=0.6279494097797931 rxn_smarts="[N:1]([C@@:2]([C:3]#[N:4])([C:5]1([H:11])[C:6]([H:12])([H:13])[C:7]1([H:14])[H:15])[H:10])([H:8])[H:9]>>[N:1](/[C:2](=[C:5](/[C:6]([C:7]([C:3]#[N:4])([H:14])[H:15])([H:12])[H:13])[H:11])[H:10])([H:8])[H:9]"
N        2.25440533      -0.26628151      -0.54456192
C        0.92423213      -0.42261933      -0.05972893
C        0.38328499       0.18692266       1.47779081
N        0.67544376       0.71076024       2.46505752
C       -0.10988739       0.03032022      -0.95703477
C       -1.39286472       0.65008034      -0.55527288
C       -1.59708118      -0.32047618       0.52949810
H        2.95361165      -0.63213654       0.08315755
H        2.46453746       0.69327681      -0.77605967
H        0.81707315      -1.46663859       0.25306477
H        0.11702482       0.01182648      -2.01769977
H       -1.40961473       1.69601897      -0.24832857
H       -2.12571347       0.51328439      -1.35661213
H       -1.82300364      -1.35137840       0.28244342
H       -2.13144817      -0.03295954       1.42428650
15
Frame=8 idx=009052 GeodesicLength=0.717182676019574 rxn_smarts="[N:1]([C@@:2]([C:3]#[N:4])([C:5]1([H:11])[C:6]([H:12])([H:13])[C:7]1([H:14])[H:15])[H:10])([H:8])[H:9]>>[N:1](/[C:2](=[C:5](/[C:6]([C:7]([C:3]#[N:4])([H:14])[H:15])([H:12])[H:13])[H:11])[H:10])([H:8])[H:9]"
N        2.25826964      -0.28573824      -0.55405580
C        0.93081547      -0.41858389      -0.05733830
C        0.37321130       0.20960280       1.49971617
N        0.67336379       0.75040308       2.47474755
C       -0.11305762       0.02337559      -0.94465257
C       -1.39212737       0.65843497      -0.55082137
C       -1.58761323      -0.33814166       0.51594178
H        2.95930964      -0.62981174       0.08382404
H        2.47048223       0.66302799      -0.82473738
H        0.81798192      -1.45397733       0.28058153
H        0.11262380       0.01922411      -2.00591064
H       -1.40464959       1.69530818      -0.21648739
H       -2.12685248       0.54121327      -1.35232051
H       -1.82568745      -1.36159473       0.24817861
H       -2.14607005      -0.07274241       1.40333430
15
Frame=9 idx=009052 GeodesicLength=0.8063468945009404 rxn_smarts="[N:1]([C@@:2]([C:3]#[N:4])([C:5]1([H:11])[C:6]([H:12])([H:13])[C:7]1([H:14])[H:15])[H:10])([H:8])[H:9]>>[N:1](/[C:2](=[C:5](/[C:6]([C:7]([C:3]#[N:4])([H:14])[H:15])([H:12])[H:13])[H:11])[H:10])([H:8])[H:9]"
N        2.26199927      -0.30578540      -0.56329939
C        0.93751565      -0.41431295      -0.05520966
C        0.36213919       0.23222996       1.52209927
N        0.67109010       0.78959273       2.48436872
C       -0.11573748       0.01768064      -0.93219011
C       -1.39141833       0.66654500      -0.54604554
C       -1.57783672      -0.35543668       0.50247921
H        2.96503037      -0.62702822       0.08420265
H        2.47606066       0.63037124      -0.87348925
H        0.81895707      -1.44042628       0.30765758
H        0.10858870       0.02781015      -1.99389273
H       -1.40131551       1.69374358      -0.18491690
H       -2.12774218       0.56798189      -1.34738487
H       -1.82760787      -1.37097214       0.21401134
H       -2.15972293      -0.11199352       1.38160967
15
Frame=10 idx=009052 GeodesicLength=0.8954518405421469 rxn_smarts="[N:1]([C@@:2]([C:3]#[N:4])([C:5]1([H:11])[C:6]([H:12])([H:13])[C:7]1([H:14])[H:15])[H:10])([H:8])[H:9]>>[N:1](/[C:2](=[C:5](/[C:6]([C:7]([C:3]#[N:4])([H:14])[H:15])([H:12])[H:13])[H:11])[H:10])([H:8])[H:9]"
N        2.26559431      -0.32642940      -0.57230062
C        0.94436507      -0.40979922      -0.05331716
C        0.34999679       0.25483334       1.54498878
N        0.66860507       0.82825189       2.49399418
C       -0.11791837       0.01319555      -0.91965017
C       -1.39075457       0.67444166      -0.54095998
C       -1.56775271      -0.37235697       0.48909720
H        2.97083364      -0.62370199       0.08417854
H        2.48117545       0.59519539      -0.92235131
H        0.82005795      -1.42595761       0.33437314
H        0.10494600       0.03752000      -1.98164725
H       -1.39955128       1.69139093      -0.15361237
H       -2.12845167       0.59368564      -1.34184181
H       -1.82868462      -1.37953344       0.17993284
H       -2.17246107      -0.15073578       1.35911598
15
Frame=11 idx=009052 GeodesicLength=0.9844978590432858 rxn_smarts="[N:1]([C@@:2]([C:3]#[N:4])([C:5]1([H:11])[C:6]([H:12])([H:13])[C:7]1([H:14])[H:15])[H:10])([H:8])[H:9]>>[N:1](/[C:2](=[C:5](/[C:6]([C:7]([C:3]#[N:4])([H:14])[H:15])([H:12])[H:13])[H:11])[H:10])([H:8])[H:9]"
N        2.26902642      -0.34769764      -0.58106056
C        0.95138477      -0.40503073      -0.05164051
C        0.33671849       0.27743211       1.56843362
N        0.66587678       0.86636453       2.50366209
C       -0.11959502       0.00989269      -0.90702766
C       -1.39014257       0.68214659      -0.53556957
C       -1.55734230      -0.38890695       0.47577800
H        2.97674249      -0.61975272       0.08363965
H        2.48572677       0.55734646      -0.97133756
H        0.82131865      -1.41053241       0.36078639
H        0.10172137       0.04836579      -1.96916319
H       -1.39928976       1.68829164      -0.12255260
H       -2.12902845       0.61839276      -1.33571978
H       -1.82881412      -1.38731252       0.14592914
H       -2.18430353      -0.18899960       1.33584253
15
Frame=12 idx=009052 GeodesicLength=1.0734894293521082 rxn_smarts="[N:1]([C@@:2]([C:3]#[N:4])([C:5]1([H:11])[C:6]([H:12])([H:13])[C:7]1([H:14])[H:15])[H:10])([H:8])[H:9]>>[N:1](/[C:2](=[C:5](/[C:6]([C:7]([C:3]#[N:4])([H:14])[H:15])([H:12])[H:13])[H:11])[H:10])([H:8])[H:9]"
N        2.27227082      -0.36961874      -0.58957901
C        0.95860107      -0.39998882      -0.05015888
C        0.32223134       0.30005733       1.59248133
N        0.66286242       0.90388876       2.51343222
C       -0.12075868       0.00775428      -0.89431443
C       -1.38959047       0.68968242      -0.52988273
C       -1.54658351      -0.40508384       0.46250681
H        2.98279053      -0.61510448       0.08244753
H        2.48959971       0.51664873      -1.02045954
H        0.82278026      -1.39409790       0.38696381
H        0.09894909       0.06037033      -1.95642502
H       -1.40047984       1.68448378      -0.09173075
H       -2.12951488       0.64216051      -1.32904933
H       -1.82789491      -1.39433946       0.11199021
H       -2.19526294      -0.22681289       1.31177776
15
Frame=13 idx=009052 GeodesicLength=1.1624316592323944 rxn_smarts="[N:1]([C@@:2]([C:3]#[N:4])([C:5]1([H:11])[C:6]([H:12])([H:13])[C:7]1([H:14])[H:15])[H:10])([H:8])[H:9]>>[N:1](/[C:2](=[C:5](/[C:6]([C:7]([C:3]#[N:4])([H:14])[H:15])([H:12])[H:13])[H:11])[H:10])([H:8])[H:9]"
N        2.27529847      -0.39222431      -0.59785252
C        0.96604315      -0.39464727      -0.04885123
C        0.30645531       0.32274791       1.61717718
N        0.65950223       0.94077465       2.52337665
C       -0.12139641       0.00677331      -0.88149713
C       -1.38910403       0.69707060      -0.52390756
C       -1.53544564      -0.42088062       0.44926943
H        2.98901250      -0.60968826       0.08043502
H        2.49265717       0.47289705      -1.06972008
H        0.82448761      -1.37658441       0.41297466
H        0.09667197       0.07357389      -1.94340823
H       -1.40308163       1.67999831      -0.06114558
H       -2.12994335       0.66503444      -1.32186049
H       -1.82581996      -1.40064072       0.07810390
H       -2.20533739      -0.26420455       1.28690598
15
Frame=14 idx=009052 GeodesicLength=1.251329491682129 rxn_smarts="[N:1]([C@@:2]([C:3]#[N:4])([C:5]1([H:11])[C:6]([H:12])([H:13])[C:7]1([H:14])[H:15])[H:10])([H:8])[H:9]>>[N:1](/[C:2](=[C:5](/[C:6]([C:7]([C:3]#[N:4])([H:14])[H:15])([H:12])[H:13])[H:11])[H:10])([H:8])[H:9]"
N        2.27807707      -0.41555297      -0.60587456
C        0.97374353      -0.38897529      -0.04769825
C        0.28930661       0.34554411       1.64256582
N        0.65572514       0.97697048       2.53357189
C       -0.12149307       0.00695357      -0.86856016
C       -1.38868962       0.70433176      -0.51765374
C       -1.52389169      -0.43628843       0.43605276
H        2.99544605      -0.60343787       0.07741175
H        2.49474502       0.42585718      -1.11910303
H        0.82648731      -1.35790995       0.43888766
H        0.09494043       0.08804698      -1.93008304
H       -1.40706474       1.67486076      -0.03080243
H       -2.13034331       0.68704774      -1.31418603
H       -1.82247854      -1.40624391       0.04426146
H       -2.21451021      -0.30120416       1.26120989
15
Frame=15 idx=009052 GeodesicLength=1.340189228842011 rxn_smarts="[N:1]([C@@:2]([C:3]#[N:4])([C:5]1([H:11])[C:6]([H:12])([H:13])[C:7]1([H:14])[H:15])[H:10])([H:8])[H:9]>>[N:1](/[C:2](=[C:5](/[C:6]([C:7]([C:3]#[N:4])([H:14])[H:15])([H:12])[H:13])[H:11])[H:10])([H:8])[H:9]"
N        2.28056886      -0.43964525      -0.61363448
C        0.98173988      -0.38293285      -0.04667941
C        0.27069140       0.36849175       1.66869003
N        0.65143495       1.01241725       2.54411030
C       -0.12102662       0.00831093      -0.85548197
C       -1.38834994       0.71148562      -0.51112999
C       -1.51187339      -0.45129436       0.42284387
H        3.00213108      -0.59629406       0.07314726
H        2.49567369       0.37525660      -1.16857978
H        0.82883384      -1.33797190       0.46477423
H        0.09381709       0.10387622      -1.91640798
H       -1.41240906       1.66909061      -0.00071026
H       -2.13073329       0.70822423      -1.30605924
H       -1.81775018      -1.41117111       0.01044940
H       -2.22274831      -0.33784369       1.23466802
15
Frame=16 idx=009052 GeodesicLength=1.429019392862553 rxn_smarts="[N:1]([C@@:2]([C:3]#[N:4])([C:5]1([H:11])[C:6]([H:12])([H:13])[C:7]1([H:14])[H:15])[H:10])([H:8])[H:9]>>[N:1](/[C:2](=[C:5](/[C:6]([C:7]([C:3]#[N:4])([H:14])[H:15])([H:12])[H:13])[H:11])[H:10])([H:8])[H:9]"
N        2.28272675      -0.46454181      -0.62111818
C        0.99007551      -0.37646723      -0.04577240
C        0.25050551       0.39164660       1.69558956
N        0.64651183       1.04704210       2.55510741
C       -0.11996821       0.01087481      -0.84223575
C       -1.38808515       0.71855044      -0.50434729
C       -1.49932851      -0.46588082       0.40962966
H        3.00910824      -0.58821547       0.06736348
H        2.49521186       0.32078843      -1.21809570
H        0.83159071      -1.31664291       0.49070873
H        0.09337461       0.12116547      -1.90233134
H       -1.41910380       1.66270339       0.02911300
H       -2.13112304       0.72857406      -1.29751825
H       -1.81149927      -1.41544041      -0.02334749
H       -2.22999706      -0.37415665       1.20725455
