11
Frame=0 idx=011751 GeodesicLength=0.0 rxn_smarts="[C:1](#[C:2][c:3]1[c:4]([H:9])[c:5]([H:10])[n:6][n:7]1[H:11])[H:8]>>[C:1](#[C:2][C@:3]1([H:9])[C+:4]=[C:5]([H:10])[N-:6][N:7]1[H:11])[H:8]"
C        2.73689753      -0.32394307      -0.39567027
C        1.56477126      -0.28797163      -0.16493525
C        0.15423423      -0.21293263       0.11574754
C       -0.89434283      -1.16397586      -0.27410704
C       -2.01606954      -0.28350194      -0.17587825
N       -1.72903281       0.98715431       0.08051347
N       -0.43794582       1.06634191       0.22358901
H        3.77849855      -0.37249087      -0.61145645
H       -0.10290063      -0.80424193       1.07754112
H       -3.05094857      -0.54500608      -0.34068397
H       -0.00316132       1.94056774       0.46534011
11
Frame=1 idx=011751 GeodesicLength=0.06253487033423025 rxn_smarts="[C:1](#[C:2][c:3]1[c:4]([H:9])[c:5]([H:10])[n:6][n:7]1[H:11])[H:8]>>[C:1](#[C:2][C@:3]1([H:9])[C+:4]=[C:5]([H:10])[N-:6][N:7]1[H:11])[H:8]"
C        2.73539631      -0.32248126      -0.40400437
C        1.56298017      -0.28773695      -0.17409781
C        0.15505149      -0.21233392       0.11724580
C       -0.89555166      -1.15976567      -0.26602748
C       -2.01595959      -0.27921936      -0.18156671
N       -1.72660359       0.99228661       0.07103848
N       -0.43671044       1.06650843       0.22649979
H        3.78174230      -0.36343029      -0.59720301
H       -0.10780651      -0.83268215       1.07851843
H       -3.05281186      -0.54371715      -0.32774225
H        0.00027338       1.94257170       0.45733912
11
Frame=2 idx=011751 GeodesicLength=0.12504833381442867 rxn_smarts="[C:1](#[C:2][c:3]1[c:4]([H:9])[c:5]([H:10])[n:6][n:7]1[H:11])[H:8]>>[C:1](#[C:2][C@:3]1([H:9])[C+:4]=[C:5]([H:10])[N-:6][N:7]1[H:11])[H:8]"
C        2.73400288      -0.31996600      -0.41193097
C        1.56123054      -0.28674432      -0.18311054
C        0.15597594      -0.21136203       0.11898866
C       -0.89634711      -1.15526742      -0.25830332
C       -2.01571643      -0.27524658      -0.18681142
N       -1.72428268       0.99723336       0.06162808
N       -0.43572670       1.06692621       0.22944630
H        3.78432240      -0.35627853      -0.58324585
H       -0.11253714      -0.86155335       1.07908969
H       -3.05418193      -0.54258086      -0.31492341
H        0.00326023       1.94483953       0.44917277
11
Frame=3 idx=011751 GeodesicLength=0.18756755880147696 rxn_smarts="[C:1](#[C:2][c:3]1[c:4]([H:9])[c:5]([H:10])[n:6][n:7]1[H:11])[H:8]>>[C:1](#[C:2][C@:3]1([H:9])[C+:4]=[C:5]([H:10])[N-:6][N:7]1[H:11])[H:8]"
C        2.73260621      -0.31840268      -0.41896415
C        1.55938805      -0.28632804      -0.19171114
C        0.15689352      -0.21061259       0.12116380
C       -0.89725937      -1.15075404      -0.25042935
C       -2.01548404      -0.27130266      -0.19143701
N       -1.72164495       1.00223100       0.05201482
N       -0.43453243       1.06731767       0.23213464
H        3.78624546      -0.34721807      -0.57024528
H       -0.11753388      -0.89104642       1.07961844
H       -3.05530127      -0.54080338      -0.30265686
H        0.00662269       1.94691920       0.44051208
11
Frame=4 idx=011751 GeodesicLength=0.2500752085893755 rxn_smarts="[C:1](#[C:2][c:3]1[c:4]([H:9])[c:5]([H:10])[n:6][n:7]1[H:11])[H:8]>>[C:1](#[C:2][C@:3]1([H:9])[C+:4]=[C:5]([H:10])[N-:6][N:7]1[H:11])[H:8]"
C        2.73144438      -0.31391921      -0.42564342
C        1.55774805      -0.28383968      -0.19999427
C        0.15803285      -0.20884765       0.12371044
C       -0.89720243      -1.14582095      -0.24280397
C       -2.01498337      -0.26802042      -0.19549972
N       -1.71958919       1.00679810       0.04270019
N       -0.43407038       1.06833178       0.23499727
H        3.78763590      -0.34390314      -0.55816600
H       -0.12192857      -0.92059909       1.07972866
H       -3.05568018      -0.53992578      -0.29134878
H        0.00859295       1.94974604       0.43231959
11
Frame=5 idx=011751 GeodesicLength=0.31259376762243457 rxn_smarts="[C:1](#[C:2][c:3]1[c:4]([H:9])[c:5]([H:10])[n:6][n:7]1[H:11])[H:8]>>[C:1](#[C:2][C@:3]1([H:9])[C+:4]=[C:5]([H:10])[N-:6][N:7]1[H:11])[H:8]"
C        2.73013837      -0.31285687      -0.43095489
C        1.55584869      -0.28360712      -0.20766157
C        0.15902638      -0.20805074       0.12679349
C       -0.89793344      -1.14114846      -0.23461354
C       -2.01465440      -0.26434782      -0.19890439
N       -1.71665061       1.01171496       0.03283616
N       -0.43278772       1.06896232       0.23720279
H        3.78840189      -0.33384699      -0.54743556
H       -0.12718879      -0.95112847       1.08004334
H       -3.05622402      -0.53746608      -0.28056698
H        0.01202364       1.95177526       0.42326114
11
Frame=6 idx=011751 GeodesicLength=0.37510982207871124 rxn_smarts="[C:1](#[C:2][c:3]1[c:4]([H:9])[c:5]([H:10])[n:6][n:7]1[H:11])[H:8]>>[C:1](#[C:2][C@:3]1([H:9])[C+:4]=[C:5]([H:10])[N-:6][N:7]1[H:11])[H:8]"
C        2.72897930      -0.31039948      -0.43558929
C        1.55405433      -0.28232660      -0.21484205
C        0.16014338      -0.20667948       0.13029323
C       -0.89811502      -1.13621535      -0.22646291
C       -2.01416217      -0.26105217      -0.20183542
N       -1.71396269       1.01640237       0.02299147
N       -0.43187265       1.07001858       0.23927977
H        3.78881263      -0.32660216      -0.53781896
H       -0.13225193      -0.98196576       1.08001703
H       -3.05633711      -0.53539031      -0.27045383
H        0.01471194       1.95421036       0.41442094
11
Frame=7 idx=011751 GeodesicLength=0.4376203717491136 rxn_smarts="[C:1](#[C:2][c:3]1[c:4]([H:9])[c:5]([H:10])[n:6][n:7]1[H:11])[H:8]>>[C:1](#[C:2][C@:3]1([H:9])[C+:4]=[C:5]([H:10])[N-:6][N:7]1[H:11])[H:8]"
C        2.72795836      -0.30636303      -0.43967702
C        1.55237849      -0.27984458      -0.22156589
C        0.16139071      -0.20464759       0.13417632
C       -0.89769767      -1.13099365      -0.21837208
C       -2.01349839      -0.25814584      -0.20432808
N       -1.71159545       1.02084147       0.01320411
N       -0.43137861       1.07155252       0.24119110
H        3.78896320      -0.32260148      -0.52912652
H       -0.13703991      -1.01310605       1.07953397
H       -3.05603204      -0.53381993      -0.26088230
H        0.01655132       1.95712816       0.40584638
11
Frame=8 idx=011751 GeodesicLength=0.5001378174236274 rxn_smarts="[C:1](#[C:2][c:3]1[c:4]([H:9])[c:5]([H:10])[n:6][n:7]1[H:11])[H:8]>>[C:1](#[C:2][C@:3]1([H:9])[C+:4]=[C:5]([H:10])[N-:6][N:7]1[H:11])[H:8]"
C        2.72682694      -0.30365921      -0.44336911
C        1.55054842      -0.27821893      -0.22820078
C        0.16259986      -0.20291331       0.13825613
C       -0.89757375      -1.12577167      -0.21014331
C       -2.01292537      -0.25509925      -0.20624395
N       -1.70884567       1.02539937       0.00320911
N       -0.43052997       1.07306218       0.24251155
H        3.78888065      -0.31587606      -0.52031741
H       -0.14215611      -1.04513055       1.07857078
H       -3.05581150      -0.53155504      -0.25105220
H        0.01898652       1.95976245       0.39677920
11
Frame=9 idx=011751 GeodesicLength=0.5626545107143042 rxn_smarts="[C:1](#[C:2][c:3]1[c:4]([H:9])[c:5]([H:10])[n:6][n:7]1[H:11])[H:8]>>[C:1](#[C:2][C@:3]1([H:9])[C+:4]=[C:5]([H:10])[N-:6][N:7]1[H:11])[H:8]"
C        2.72569734      -0.30086952      -0.44668122
C        1.54871436      -0.27641584      -0.23452366
C        0.16385990      -0.20096997       0.14262724
C       -0.89729011      -1.12041120      -0.20180140
C       -2.01230849      -0.25216797      -0.20767461
N       -1.70608300       1.02988816      -0.00687345
N       -0.42970612       1.07482724       0.24336100
H        3.78859118      -0.30942123      -0.51185600
H       -0.14730607      -1.07775467       1.07708180
H       -3.05544344      -0.52922399      -0.24133216
H        0.02127445       1.96251901       0.38767246
11
Frame=10 idx=011751 GeodesicLength=0.625170363749548 rxn_smarts="[C:1](#[C:2][c:3]1[c:4]([H:9])[c:5]([H:10])[n:6][n:7]1[H:11])[H:8]>>[C:1](#[C:2][C@:3]1([H:9])[C+:4]=[C:5]([H:10])[N-:6][N:7]1[H:11])[H:8]"
C        2.72456895      -0.29793292      -0.44961942
C        1.54689359      -0.27438361      -0.24044660
C        0.16517353      -0.19878050       0.14732794
C       -0.89681977      -1.11490246      -0.19332092
C       -2.01163498      -0.24935354      -0.20865229
N       -1.70333359       1.03429782      -0.01703231
N       -0.42892543       1.07686993       0.24375613
H        3.78811707      -0.30338409      -0.50380207
H       -0.15249552      -1.11101299       1.07501423
H       -3.05492299      -0.52687100      -0.23173190
H        0.02337912       1.96545336       0.37850721
11
Frame=11 idx=011751 GeodesicLength=0.6876867387441878 rxn_smarts="[C:1](#[C:2][c:3]1[c:4]([H:9])[c:5]([H:10])[n:6][n:7]1[H:11])[H:8]>>[C:1](#[C:2][C@:3]1([H:9])[C+:4]=[C:5]([H:10])[N-:6][N:7]1[H:11])[H:8]"
C        2.72343359      -0.29490513      -0.45220470
C        1.54508696      -0.27215813      -0.24593997
C        0.16653582      -0.19634903       0.15236763
C       -0.89617873      -1.10924513      -0.18467981
C       -2.01090876      -0.24663401      -0.20919024
N       -1.70059277       1.03863608      -0.02726901
N       -0.42817265       1.07918828       0.24369272
H        3.78748282      -0.29765505      -0.49610277
H       -0.15774635      -1.14497094       1.07228492
H       -3.05426952      -0.52448441      -0.22217890
H        0.02532960       1.96857749       0.36922013
11
Frame=12 idx=011751 GeodesicLength=0.7502061100519462 rxn_smarts="[C:1](#[C:2][c:3]1[c:4]([H:9])[c:5]([H:10])[n:6][n:7]1[H:11])[H:8]>>[C:1](#[C:2][C@:3]1([H:9])[C+:4]=[C:5]([H:10])[N-:6][N:7]1[H:11])[H:8]"
C        2.72228385      -0.29187496      -0.45446193
C        1.54328585      -0.26980612      -0.25103224
C        0.16794075      -0.19369620       0.15772550
C       -0.89540204      -1.10344608      -0.17587389
C       -2.01014704      -0.24397961      -0.20928944
N       -1.69784634       1.04292285      -0.03759735
N       -0.42742001       1.08177486       0.24315725
H        3.78671101      -0.29203689      -0.48860464
H       -0.16307130      -1.17972124       1.06877052
H       -3.05351702      -0.52203128      -0.21251423
H        0.02718229       1.97189467       0.35972044
11
Frame=13 idx=011751 GeodesicLength=0.8127047383188769 rxn_smarts="[C:1](#[C:2][c:3]1[c:4]([H:9])[c:5]([H:10])[n:6][n:7]1[H:11])[H:8]>>[C:1](#[C:2][C@:3]1([H:9])[C+:4]=[C:5]([H:10])[N-:6][N:7]1[H:11])[H:8]"
C        2.72113097      -0.28864079      -0.45638368
C        1.54151430      -0.26717958      -0.25563333
C        0.16939128      -0.19073844       0.16344018
C       -0.89442921      -1.09745229      -0.16688520
C       -2.00932556      -0.24140617      -0.20896735
N       -1.69513434       1.04711490      -0.04804306
N       -0.42672419       1.08464373       0.24219814
H        3.78582773      -0.28692746      -0.48135328
H       -0.16845935      -1.21526449       1.06433459
H       -3.05263130      -0.51959128      -0.20269226
H        0.02883967       1.97544188       0.34998524
11
Frame=14 idx=011751 GeodesicLength=0.8752236365168948 rxn_smarts="[C:1](#[C:2][c:3]1[c:4]([H:9])[c:5]([H:10])[n:6][n:7]1[H:11])[H:8]>>[C:1](#[C:2][C@:3]1([H:9])[C+:4]=[C:5]([H:10])[N-:6][N:7]1[H:11])[H:8]"
C        2.71994318      -0.28572522      -0.45796149
C        1.53972307      -0.26467143      -0.25984498
C        0.17085903      -0.18764861       0.16945094
C       -0.89342442      -1.09133214      -0.15769861
C       -2.00849636      -0.23880912      -0.20821292
N       -1.69233308       1.05129537      -0.05864120
N       -0.42593337       1.08772306       0.24071623
H        3.78481922      -0.28119925      -0.47405629
H       -0.17403797      -1.25181008       1.05883490
H       -3.05170107      -0.51693055      -0.19239604
H        0.03058178       1.97910796       0.33980947
11
Frame=15 idx=011751 GeodesicLength=0.9377288751726519 rxn_smarts="[C:1](#[C:2][c:3]1[c:4]([H:9])[c:5]([H:10])[n:6][n:7]1[H:11])[H:8]>>[C:1](#[C:2][C@:3]1([H:9])[C+:4]=[C:5]([H:10])[N-:6][N:7]1[H:11])[H:8]"
C        2.71875343      -0.28256519      -0.45921977
C        1.53796970      -0.26186282      -0.26352943
C        0.17237406      -0.18420664       0.17583983
C       -0.89222244      -1.08502394      -0.14822641
C       -2.00761371      -0.23629358      -0.20702455
N       -1.68959702       1.05538028      -0.06936237
N       -0.42520563       1.09111979       0.23878709
H        3.78372932      -0.27606891      -0.46691251
H       -0.17965155      -1.28924488       1.05218156
H       -3.05064815      -0.51429922      -0.18184517
H        0.03211201       1.98306511       0.32931174
11
Frame=16 idx=011751 GeodesicLength=1.0002368033710154 rxn_smarts="[C:1](#[C:2][c:3]1[c:4]([H:9])[c:5]([H:10])[n:6][n:7]1[H:11])[H:8]>>[C:1](#[C:2][C@:3]1([H:9])[C+:4]=[C:5]([H:10])[N-:6][N:7]1[H:11])[H:8]"
C        2.71755972      -0.27919711      -0.46015742
C        1.53624924      -0.25879158      -0.26669317
C        0.17392951      -0.18041291       0.18260417
C       -0.89084097      -1.07853244      -0.13842813
C       -2.00668233      -0.23384244      -0.20539306
N       -1.68691294       1.05937804      -0.08025181
N       -0.42453244       1.09483282       0.23640211
H        3.78257097      -0.27143701      -0.45981239
H       -0.18531348      -1.32764959       1.04420675
H       -3.04947960      -0.51166887      -0.17088707
H        0.03345232       1.98732108       0.31841002
