16
Frame=0 idx=007624 GeodesicLength=0.0 rxn_smarts="[C:1]([C@:2]12[C:3]([H:11])([H:12])[C@@:4]1([H:13])[C@@:5]1([H:14])[N:6]([H:15])[C@@:7]21[H:16])([H:8])([H:9])[H:10]>>[C:1]([C:2]1([C@@:7]2([H:16])[C:5]([H:14])=[N:6]2)[C:3]([H:11])=[C:4]1[H:13])([H:8])([H:9])[H:10].[H:12][H:15]"
C        1.59245721      -0.69932503       0.96696092
C        0.42938696      -0.09322509       0.22672785
C        0.61737837       0.86851939      -0.88463845
C        0.02480097       1.34390167       0.21921306
C       -1.96206937       0.08426399       0.15131191
N       -1.82754030      -0.63597500      -0.90735300
C       -0.88281049      -0.88229513       0.21172166
H        1.31629453      -0.94319960       1.99657684
H        2.43783621      -0.01097890       1.00012016
H        1.92421235      -1.62343403       0.48559289
H        1.39433830       1.10434659      -1.59361297
H       -0.31313686       0.46301810      -2.02196563
H       -0.04093019       2.23466396       0.81804156
H       -2.74297156       0.68500770       0.58737359
H       -1.02340228      -0.02814543      -1.92327981
H       -0.94384380      -1.86714326       0.66720941
16
Frame=1 idx=007624 GeodesicLength=0.06279752421117407 rxn_smarts="[C:1]([C@:2]12[C:3]([H:11])([H:12])[C@@:4]1([H:13])[C@@:5]1([H:14])[N:6]([H:15])[C@@:7]21[H:16])([H:8])([H:9])[H:10]>>[C:1]([C:2]1([C@@:7]2([H:16])[C:5]([H:14])=[N:6]2)[C:3]([H:11])=[C:4]1[H:13])([H:8])([H:9])[H:10].[H:12][H:15]"
C        1.59046711      -0.69708356       0.97182025
C        0.43136977      -0.09620045       0.22183757
C        0.61915169       0.86495277      -0.89164071
C        0.01991647       1.33937069       0.21308091
C       -1.95541742       0.09149115       0.16297274
N       -1.83220203      -0.62409604      -0.90428903
C       -0.88241997      -0.88357193       0.20787835
H        1.30945205      -0.93542859       2.00140554
H        2.43492214      -0.00757531       1.00504937
H        1.92503230      -1.62352119       0.49689243
H        1.40925222       1.10690143      -1.58371691
H       -0.31127487       0.46254496      -2.04576383
H       -0.03683666       2.23068421       0.81226948
H       -2.74261792       0.67083956       0.61665305
H       -1.03578534      -0.02723857      -1.93927154
H       -0.94300955      -1.87206912       0.65482233
16
Frame=2 idx=007624 GeodesicLength=0.12560326095335755 rxn_smarts="[C:1]([C@:2]12[C:3]([H:11])([H:12])[C@@:4]1([H:13])[C@@:5]1([H:14])[N:6]([H:15])[C@@:7]21[H:16])([H:8])([H:9])[H:10]>>[C:1]([C:2]1([C@@:7]2([H:16])[C:5]([H:14])=[N:6]2)[C:3]([H:11])=[C:4]1[H:13])([H:8])([H:9])[H:10].[H:12][H:15]"
C        1.58842865      -0.69484831       0.97669793
C        0.43336757      -0.09914532       0.21706210
C        0.62094430       0.86130731      -0.89864753
C        0.01517372       1.33487373       0.20696682
C       -1.94868145       0.09855406       0.17472337
N       -1.83665255      -0.61213548      -0.90112584
C       -0.88204717      -0.88478112       0.20412088
H        1.30256564      -0.92765636       2.00620270
H        2.43200450      -0.00423446       1.00995913
H        1.92569931      -1.62360231       0.50822736
H        1.42382383       1.10950839      -1.57350000
H       -0.30957465       0.46219252      -2.06966053
H       -0.03278021       2.22674469       0.80636330
H       -2.74157603       0.65647572       0.64543719
H       -1.04847859      -0.02635266      -1.95520681
H       -0.94221685      -1.87690039       0.64237992
16
Frame=3 idx=007624 GeodesicLength=0.18841398178798202 rxn_smarts="[C:1]([C@:2]12[C:3]([H:11])([H:12])[C@@:4]1([H:13])[C@@:5]1([H:14])[N:6]([H:15])[C@@:7]21[H:16])([H:8])([H:9])[H:10]>>[C:1]([C:2]1([C@@:7]2([H:16])[C:5]([H:14])=[N:6]2)[C:3]([H:11])=[C:4]1[H:13])([H:8])([H:9])[H:10].[H:12][H:15]"
C        1.58634796      -0.69262046       0.98159543
C        0.43538359      -0.10206232       0.21240331
C        0.62276045       0.85758390      -0.90565285
C        0.01056836       1.33040693       0.20087695
C       -1.94185513       0.10544880       0.18656241
N       -1.84088876      -0.60010020      -0.89786500
C       -0.88168600      -0.88592862       0.20044729
H        1.29564221      -0.91988532       2.01097004
H        2.42908797      -0.00095548       1.01485284
H        1.92622096      -1.62367762       0.51959733
H        1.43804072       1.11216089      -1.56297293
H       -0.30803392       0.46196905      -2.09365948
H       -0.02876235       2.22284167       0.80033601
H       -2.73987310       0.64195282       0.67370467
H       -1.06149092      -0.02549728      -1.97108152
H       -0.94146206      -1.88163674       0.62988549
16
Frame=4 idx=007624 GeodesicLength=0.2512189590987719 rxn_smarts="[C:1]([C@:2]12[C:3]([H:11])([H:12])[C@@:4]1([H:13])[C@@:5]1([H:14])[N:6]([H:15])[C@@:7]21[H:16])([H:8])([H:9])[H:10]>>[C:1]([C:2]1([C@@:7]2([H:16])[C:5]([H:14])=[N:6]2)[C:3]([H:11])=[C:4]1[H:13])([H:8])([H:9])[H:10].[H:12][H:15]"
C        1.58423250      -0.69040192       0.98651294
C        0.43742062      -0.10495423       0.20786484
C        0.62460186       0.85378507      -0.91264827
C        0.00609530       1.32596658       0.19482154
C       -1.93493459       0.11217169       0.19849070
N       -1.84490817      -0.58799765      -0.89450375
C       -0.88133123      -0.88702085       0.19686019
H        1.28869301      -0.91211982       2.01570810
H        2.42617828       0.00226229       1.01973137
H        1.92660544      -1.62374796       0.53099868
H        1.45188624       1.11485347      -1.55214786
H       -0.30665361       0.46188385      -2.11776488
H       -0.02478423       2.21897009       0.79420616
H       -2.73752922       0.62730973       0.70140751
H       -1.07483024      -0.02468118      -1.98688601
H       -0.94074196      -1.88627916       0.61734873
16
Frame=5 idx=007624 GeodesicLength=0.31403412648037515 rxn_smarts="[C:1]([C@:2]12[C:3]([H:11])([H:12])[C@@:4]1([H:13])[C@@:5]1([H:14])[N:6]([H:15])[C@@:7]21[H:16])([H:8])([H:9])[H:10]>>[C:1]([C:2]1([C@@:7]2([H:16])[C:5]([H:14])=[N:6]2)[C:3]([H:11])=[C:4]1[H:13])([H:8])([H:9])[H:10].[H:12][H:15]"
C        1.58208561      -0.68819236       0.99145498
C        0.43948272      -0.10782260       0.20344533
C        0.62647776       0.84991054      -0.91963074
C        0.00175258       1.32154982       0.18880064
C       -1.92791007       0.11872191       0.21050049
N       -1.84870719      -0.57583273      -0.89105105
C       -0.88097645      -0.88806103       0.19335044
H        1.28171742      -0.90435880       2.02042058
H        2.42327808       0.00542011       1.02460277
H        1.92685808      -1.62381333       0.54243905
H        1.46535703       1.11757312      -1.54104057
H       -0.30542267       0.46194975      -2.14198457
H       -0.02084553       2.21512886       0.78797831
H       -2.73458644       0.61256578       0.72857452
H       -1.08850777      -0.02391402      -2.00262449
H       -0.94005317      -1.89082502       0.60476431
16
Frame=6 idx=007624 GeodesicLength=0.37682655826790373 rxn_smarts="[C:1]([C@:2]12[C:3]([H:11])([H:12])[C@@:4]1([H:13])[C@@:5]1([H:14])[N:6]([H:15])[C@@:7]21[H:16])([H:8])([H:9])[H:10]>>[C:1]([C:2]1([C@@:7]2([H:16])[C:5]([H:14])=[N:6]2)[C:3]([H:11])=[C:4]1[H:13])([H:8])([H:9])[H:10].[H:12][H:15]"
C        1.57991539      -0.68599404       0.99642142
C        0.44157239      -0.11067038       0.19915017
C        0.62838750       0.84596466      -0.92658966
C       -0.00246541       1.31715275       0.18282771
C       -1.92077961       0.12509484       0.22259256
N       -1.85228265      -0.56361331      -0.88750293
C       -0.88061712      -0.88905613       0.18992351
H        1.27472891      -0.89660723       2.02510828
H        2.42039375       0.00851821       1.02946611
H        1.92698752      -1.62387423       0.55391209
H        1.47843310       1.12031451      -1.52966692
H       -0.30434510       0.46217235      -2.16632037
H       -0.01694752       2.21131244       0.78167399
H       -2.73105891       0.59776220       0.75514076
H       -1.10252990      -0.02319947      -2.01828075
H       -0.93939234      -1.89527717       0.59214403
16
Frame=7 idx=007624 GeodesicLength=0.43957477776101506 rxn_smarts="[C:1]([C@:2]12[C:3]([H:11])([H:12])[C@@:4]1([H:13])[C@@:5]1([H:14])[N:6]([H:15])[C@@:7]21[H:16])([H:8])([H:9])[H:10]>>[C:1]([C:2]1([C@@:7]2([H:16])[C:5]([H:14])=[N:6]2)[C:3]([H:11])=[C:4]1[H:13])([H:8])([H:9])[H:10].[H:12][H:15]"
C        1.57772631      -0.68380730       1.00141543
C        0.44369305      -0.11349859       0.19498057
C        0.63033702       0.84194912      -0.93351924
C       -0.00656061       1.31277309       0.17690739
C       -1.91353643       0.13129034       0.23475849
N       -1.85563055      -0.55134520      -0.88386461
C       -0.88024802      -0.89000934       0.18657416
H        1.26773080      -0.88886576       2.02977393
H        2.41752850       0.01155799       1.03432661
H        1.92699937      -1.62393029       0.56542007
H        1.49110962       1.12306450      -1.51804720
H       -0.30341612       0.46255678      -2.19077428
H       -0.01308911       2.20751942       0.77530299
H       -2.72698280       0.58291660       0.78110910
H       -1.11690432      -0.02253801      -2.03385217
H       -0.93875671      -1.89963334       0.57948875
16
Frame=8 idx=007624 GeodesicLength=0.5022985534357308 rxn_smarts="[C:1]([C@:2]12[C:3]([H:11])([H:12])[C@@:4]1([H:13])[C@@:5]1([H:14])[N:6]([H:15])[C@@:7]21[H:16])([H:8])([H:9])[H:10]>>[C:1]([C:2]1([C@@:7]2([H:16])[C:5]([H:14])=[N:6]2)[C:3]([H:11])=[C:4]1[H:13])([H:8])([H:9])[H:10].[H:12][H:15]"
C        1.57552456      -0.68163373       1.00643731
C        0.44584741      -0.11630945       0.19093977
C        0.63232897       0.83786757      -0.94040963
C       -0.01053723       1.30840758       0.17105011
C       -1.90617621       0.13730589       0.24699426
N       -1.85874743      -0.53903854      -0.88013523
C       -0.87986476      -0.89092467       0.18330499
H        1.26073225      -0.88113774       2.03441906
H        2.41468792       0.01453880       1.03918531
H        1.92689984      -1.62398261       0.57696086
H        1.50337449       1.12581583      -1.50619791
H       -0.30262998       0.46312411      -2.21535554
H       -0.00927040       2.20374555       0.76888375
H       -2.72238090       0.56806016       0.80644442
H       -1.13164485      -0.02194661      -2.04933105
H       -0.93814368      -1.90389215       0.56680951
16
Frame=9 idx=007624 GeodesicLength=0.5649742944674508 rxn_smarts="[C:1]([C@:2]12[C:3]([H:11])([H:12])[C@@:4]1([H:13])[C@@:5]1([H:14])[N:6]([H:15])[C@@:7]21[H:16])([H:8])([H:9])[H:10]>>[C:1]([C:2]1([C@@:7]2([H:16])[C:5]([H:14])=[N:6]2)[C:3]([H:11])=[C:4]1[H:13])([H:8])([H:9])[H:10].[H:12][H:15]"
C        1.57331521      -0.67947436       1.01148942
C        0.44803811      -0.11910273       0.18703133
C        0.63436785       0.83372403      -0.94725188
C       -0.01439822       1.30405515       0.16526521
C       -1.89869605       0.14314107       0.25929273
N       -1.86162890      -0.52670228      -0.87631909
C       -0.87946379      -0.89180439       0.18011563
H        1.25373974      -0.87342611       2.03904597
H        2.41187621       0.01746079       1.04404573
H        1.92669426      -1.62403207       0.58853407
H        1.51521866       1.12855593      -1.49414342
H       -0.30198622       0.46388374      -2.24006643
H       -0.00549214       2.19998862       0.76243197
H       -2.71727447       0.55321221       0.83112524
H       -1.14675930      -0.02142878      -2.06470969
H       -0.93755096      -1.90805082       0.55411320
16
Frame=10 idx=007624 GeodesicLength=0.6276086692061769 rxn_smarts="[C:1]([C@:2]12[C:3]([H:11])([H:12])[C@@:4]1([H:13])[C@@:5]1([H:14])[N:6]([H:15])[C@@:7]21[H:16])([H:8])([H:9])[H:10]>>[C:1]([C:2]1([C@@:7]2([H:16])[C:5]([H:14])=[N:6]2)[C:3]([H:11])=[C:4]1[H:13])([H:8])([H:9])[H:10].[H:12][H:15]"
C        1.57110437      -0.67733085       1.01657182
C        0.45026816      -0.12188053       0.18325681
C        0.63645669       0.82952351      -0.95403821
C       -0.01814666       1.29971281       0.15955958
C       -1.89109051       0.14879640       0.27164130
N       -1.86426977      -0.51434745      -0.87242157
C       -0.87904036      -0.89265187       0.17700587
H        1.24676172      -0.86573311       2.04365536
H        2.40909933       0.02032282       1.04890735
H        1.92638818      -1.62407942       0.60013714
H        1.52663846       1.13127734      -1.48190059
H       -0.30147017       0.46485061      -2.26491587
H       -0.00175311       2.19624495       0.75596142
H       -2.71171241       0.53839761       0.85514998
H       -1.16225606      -0.02099751      -2.07998275
H       -0.93697786      -1.91210533       0.54141236
16
Frame=11 idx=007624 GeodesicLength=0.6902356585014418 rxn_smarts="[C:1]([C@:2]12[C:3]([H:11])([H:12])[C@@:4]1([H:13])[C@@:5]1([H:14])[N:6]([H:15])[C@@:7]21[H:16])([H:8])([H:9])[H:10]>>[C:1]([C:2]1([C@@:7]2([H:16])[C:5]([H:14])=[N:6]2)[C:3]([H:11])=[C:4]1[H:13])([H:8])([H:9])[H:10].[H:12][H:15]"
C        1.56889698      -0.67520424       1.02168685
C        0.45254097      -0.12464340       0.17961686
C        0.63860316       0.82526951      -0.96076175
C       -0.02178458       1.29537898       0.15393801
C       -1.88335507       0.15427454       0.28402567
N       -1.86666729      -0.50198452      -0.86845050
C       -0.87858965      -0.89346902       0.17397320
H        1.23980293      -0.85806055       2.04824957
H        2.40636154       0.02312472       1.05377479
H        1.92598724      -1.62412647       0.61177306
H        1.53763411       1.13396973      -1.46948940
H       -0.30106396       0.46604815      -2.28991754
H        0.00194831       2.19251233       0.74948307
H       -2.70573720       0.52363112       0.87853256
H       -1.17815483      -0.02066928      -2.09515102
H       -0.93642267      -1.91605159       0.52871657
16
Frame=12 idx=007624 GeodesicLength=0.7528484947081532 rxn_smarts="[C:1]([C@:2]12[C:3]([H:11])([H:12])[C@@:4]1([H:13])[C@@:5]1([H:14])[N:6]([H:15])[C@@:7]21[H:16])([H:8])([H:9])[H:10]>>[C:1]([C:2]1([C@@:7]2([H:16])[C:5]([H:14])=[N:6]2)[C:3]([H:11])=[C:4]1[H:13])([H:8])([H:9])[H:10].[H:12][H:15]"
C        1.56669827      -0.67309626       1.02683357
C        0.45485830      -0.12739164       0.17611479
C        0.64080906       0.82096853      -0.96741320
C       -0.02531560       1.29105269       0.14841025
C       -1.87548867       0.15957689       0.29643275
N       -1.86881771      -0.48962669      -0.86441040
C       -0.87810986      -0.89425717       0.17102099
H        1.23287258      -0.85041125       2.05282953
H        2.40366881       0.02586404       1.05864635
H        1.92549529      -1.62417411       0.62343596
H        1.54820416       1.13662647      -1.45692948
H       -0.30075579       0.46749197      -2.31508146
H        0.00561250       2.18878786       0.74301411
H       -2.69938139       0.50893135       0.90125636
H       -1.19446403      -0.02045708      -2.11020337
H       -0.93588592      -1.91988560       0.51604325
16
Frame=13 idx=007624 GeodesicLength=0.8154744654138062 rxn_smarts="[C:1]([C@:2]12[C:3]([H:11])([H:12])[C@@:4]1([H:13])[C@@:5]1([H:14])[N:6]([H:15])[C@@:7]21[H:16])([H:8])([H:9])[H:10]>>[C:1]([C:2]1([C@@:7]2([H:16])[C:5]([H:14])=[N:6]2)[C:3]([H:11])=[C:4]1[H:13])([H:8])([H:9])[H:10].[H:12][H:15]"
C        1.56451307      -0.67100808       1.03201416
C        0.45722277      -0.13012525       0.17275177
C        0.64308046       0.81662545      -0.97398480
C       -0.02874141       1.28673300       0.14298150
C       -1.86748894       0.16470754       0.30884795
N       -1.87071771      -0.47728491      -0.86031086
C       -0.87759718      -0.89501708       0.16814818
H        1.22597616      -0.84278783       2.05739715
H        2.40102538       0.02854035       1.06352583
H        1.92491796      -1.62422411       0.63512746
H        1.55835147       1.13923711      -1.44424103
H       -0.30052665       0.46920681      -2.34042194
H        0.00924051       2.18506928       0.73656642
H       -2.69268487       0.49431078       0.92333514
H       -1.21120463      -0.02038025      -2.12514120
H       -0.93536640      -1.92360279       0.50340428
16
Frame=14 idx=007624 GeodesicLength=0.8781011496853109 rxn_smarts="[C:1]([C@:2]12[C:3]([H:11])([H:12])[C@@:4]1([H:13])[C@@:5]1([H:14])[N:6]([H:15])[C@@:7]21[H:16])([H:8])([H:9])[H:10]>>[C:1]([C:2]1([C@@:7]2([H:16])[C:5]([H:14])=[N:6]2)[C:3]([H:11])=[C:4]1[H:13])([H:8])([H:9])[H:10].[H:12][H:15]"
C        1.56234661      -0.66894167       1.03722765
C        0.45963550      -0.13284475       0.16953118
C        0.64541836       0.81224573      -0.98046782
C       -0.03206535       1.28241908       0.13766111
C       -1.85935692       0.16966865       0.32125846
N       -1.87236398      -0.46497348      -0.85615623
C       -0.87705020      -0.89575013       0.16535935
H        1.21912362      -0.83519349       2.06195307
H        2.39843679       0.03115168       1.06841102
H        1.92425913      -1.62427745       0.64684142
H        1.56807681       1.14179628      -1.43144261
H       -0.30036280       0.47120920      -2.36594789
H        0.01283332       2.18135405       0.73015637
H       -2.68567723       0.47978515       0.94474907
H       -1.22838894      -0.02044999      -2.13995357
H       -0.93486473      -1.92719885       0.49081943
16
Frame=15 idx=007624 GeodesicLength=0.940746465733473 rxn_smarts="[C:1]([C@:2]12[C:3]([H:11])([H:12])[C@@:4]1([H:13])[C@@:5]1([H:14])[N:6]([H:15])[C@@:7]21[H:16])([H:8])([H:9])[H:10]>>[C:1]([C:2]1([C@@:7]2([H:16])[C:5]([H:14])=[N:6]2)[C:3]([H:11])=[C:4]1[H:13])([H:8])([H:9])[H:10].[H:12][H:15]"
C        1.56020303      -0.66689791       1.04247523
C        0.46209811      -0.13555011       0.16645446
C        0.64782727       0.80783421      -0.98685531
C       -0.03528912       1.27811056       0.13245394
C       -1.85109255       0.17446523       0.33364924
N       -1.87375472      -0.45270391      -0.85195577
C       -0.87646653      -0.89645675       0.16265506
H        1.21232062      -0.82763072       2.06649899
H        2.39590702       0.03369743       1.07330439
H        1.92352348      -1.62433540       0.65857787
H        1.57738734       1.14429594      -1.41855218
H       -0.30024177       0.47352150      -2.39167580
H        0.01639265       2.17764051       0.72379482
H       -2.67839455       0.46536235       0.96551040
H       -1.24603994      -0.02068332      -2.15463772
H       -0.93438032      -1.93066960       0.47830237
16
Frame=16 idx=007624 GeodesicLength=1.0034239559035232 rxn_smarts="[C:1]([C@:2]12[C:3]([H:11])([H:12])[C@@:4]1([H:13])[C@@:5]1([H:14])[N:6]([H:15])[C@@:7]21[H:16])([H:8])([H:9])[H:10]>>[C:1]([C:2]1([C@@:7]2([H:16])[C:5]([H:14])=[N:6]2)[C:3]([H:11])=[C:4]1[H:13])([H:8])([H:9])[H:10].[H:12][H:15]"
C        1.55808672      -0.66487824       1.04775744
C        0.46461182      -0.13824143       0.16352390
C        0.65031049       0.80339588      -0.99313946
C       -0.03841496       1.27380690       0.12736636
C       -1.84269720       0.17910165       0.34600673
N       -1.87488831      -0.44048915      -0.84771699
C       -0.87584439      -0.89713753       0.16003801
H        1.20557418      -0.82010272       2.07103651
H        2.39344013       0.03617671       1.07820723
H        1.92271574      -1.62439890       0.67033399
H        1.58628929       1.14672989      -1.40558664
H       -0.30014096       0.47616684      -2.41762388
H        0.01992007       2.17392672       0.71749456
H       -2.67086790       0.45105253       0.98561940
H       -1.26418167      -0.02109758      -2.16918747
H       -0.93391305      -1.93401157       0.46587032
