19
Frame=0 idx=009172 GeodesicLength=0.0 rxn_smarts="[C:1]([C:2]([O:3][C:4]([C:5]([O:6][C:7]([H:17])([H:18])[H:19])([H:15])[H:16])([H:13])[H:14])([H:11])[H:12])([H:8])([H:9])[H:10]>>[C:1](=[C:2]([H:11])[H:12])([H:9])[H:10].[O:3]([C:4]([C:5]([O:6][C:7]([H:17])([H:18])[H:19])([H:15])[H:16])([H:13])[H:14])[H:8]"
C        3.08740196       0.81664023      -0.34137146
C        2.80210572      -0.55633268      -0.19245018
O        1.02355180      -0.37976356      -0.69316889
C        0.03792031      -0.56416271       0.29528074
C       -1.29554455      -0.03687090      -0.19783100
O       -2.24799741      -0.25072791       0.81187648
C       -3.52400940       0.21381622       0.46299761
H        1.70469404       0.65623779      -0.64123329
H        3.63299858       1.13866358      -1.21967760
H        3.22497486       1.41247648       0.55281626
H        2.65185555      -0.98595800       0.79292966
H        3.06394441      -1.27117796      -0.96236200
H       -0.06331144      -1.63043043       0.51946535
H        0.30675505      -0.04617872       1.22828219
H       -1.20871487       1.03466208      -0.43127359
H       -1.58029637      -0.55737892      -1.12299049
H       -3.90288769      -0.28780240      -0.43722667
H       -3.52097712       1.29665591       0.28050644
H       -4.19246351      -0.00236819       1.29543050
19
Frame=1 idx=009172 GeodesicLength=0.05468992956620295 rxn_smarts="[C:1]([C:2]([O:3][C:4]([C:5]([O:6][C:7]([H:17])([H:18])[H:19])([H:15])[H:16])([H:13])[H:14])([H:11])[H:12])([H:8])([H:9])[H:10]>>[C:1](=[C:2]([H:11])[H:12])([H:9])[H:10].[O:3]([C:4]([C:5]([O:6][C:7]([H:17])([H:18])[H:19])([H:15])[H:16])([H:13])[H:14])[H:8]"
C        3.09459697       0.81807655      -0.35570135
C        2.80435804      -0.55083618      -0.17598575
O        1.02009282      -0.37631474      -0.69184450
C        0.03139020      -0.57524328       0.29004882
C       -1.29908344      -0.03374142      -0.19555332
O       -2.25505212      -0.26396412       0.80713908
C       -3.52853672       0.21153167       0.46386126
H        1.70252898       0.67160917      -0.65517054
H        3.63902876       1.11706253      -1.24314796
H        3.24742156       1.42808243       0.52669494
H        2.66115305      -0.95530391       0.82133291
H        3.07632238      -1.28323767      -0.92616481
H       -0.07375257      -1.64544180       0.49325630
H        0.29830809      -0.07780821       1.23448104
H       -1.20752316       1.04197494      -0.40724331
H       -1.58344187      -0.53457619      -1.13162942
H       -3.90666802      -0.27151523      -0.44677080
H       -3.52125017       1.29764701       0.30203701
H       -4.19989278      -0.01800155       1.29036040
19
Frame=2 idx=009172 GeodesicLength=0.10924525917711886 rxn_smarts="[C:1]([C:2]([O:3][C:4]([C:5]([O:6][C:7]([H:17])([H:18])[H:19])([H:15])[H:16])([H:13])[H:14])([H:11])[H:12])([H:8])([H:9])[H:10]>>[C:1](=[C:2]([H:11])[H:12])([H:9])[H:10].[O:3]([C:4]([C:5]([O:6][C:7]([H:17])([H:18])[H:19])([H:15])[H:16])([H:13])[H:14])[H:8]"
C        3.10179218       0.81912554      -0.37005560
C        2.80645167      -0.54490560      -0.15900878
O        1.01659781      -0.37259887      -0.69072189
C        0.02486162      -0.58640265       0.28431961
C       -1.30258933      -0.03061860      -0.19321836
O       -2.26205555      -0.27729423       0.80212414
C       -3.53299438       0.20917474       0.46487545
H        1.70050182       0.68711756      -0.66988056
H        3.64514357       1.09432633      -1.26613764
H        3.26999606       1.44328069       0.49988613
H        2.66995961      -0.92332353       0.84973195
H        3.08860374      -1.29469423      -0.88851631
H       -0.08414876      -1.66018925       0.46599579
H        0.28978764      -0.11016982       1.23994774
H       -1.20628703       1.04887900      -0.38273345
H       -1.58654861      -0.51126399      -1.13994037
H       -3.91038658      -0.25493476      -0.45585273
H       -3.52147121       1.29818064       0.32397770
H       -4.20721426      -0.03368899       1.28520718
19
Frame=3 idx=009172 GeodesicLength=0.16360618629950857 rxn_smarts="[C:1]([C:2]([O:3][C:4]([C:5]([O:6][C:7]([H:17])([H:18])[H:19])([H:15])[H:16])([H:13])[H:14])([H:11])[H:12])([H:8])([H:9])[H:10]>>[C:1](=[C:2]([H:11])[H:12])([H:9])[H:10].[O:3]([C:4]([C:5]([O:6][C:7]([H:17])([H:18])[H:19])([H:15])[H:16])([H:13])[H:14])[H:8]"
C        3.10892639       0.81977825      -0.38420511
C        2.80838724      -0.53858614      -0.14167731
O        1.01305169      -0.36865588      -0.68986732
C        0.01836570      -0.59757341       0.27808492
C       -1.30606365      -0.02755762      -0.19086212
O       -2.26893579      -0.29051262       0.79692489
C       -3.53734983       0.20680150       0.46607660
H        1.69863983       0.70269318      -0.68551671
H        3.65136338       1.07070877      -1.28824885
H        3.29244707       1.45783933       0.47279091
H        2.67827236      -0.89033112       0.87782791
H        3.10081014      -1.30534029      -0.84976565
H       -0.09444144      -1.67455071       0.43785923
H        0.28128247      -0.14304512       1.24455213
H       -1.20503103       1.05525514      -0.35806170
H       -1.58967762      -0.48773719      -1.14780323
H       -3.91407013      -0.23834393      -0.46423853
H       -3.52165697       1.29825967       0.34597749
H       -4.21431981      -0.04910182       1.28015246
19
Frame=4 idx=009172 GeodesicLength=0.21766266342845153 rxn_smarts="[C:1]([C:2]([O:3][C:4]([C:5]([O:6][C:7]([H:17])([H:18])[H:19])([H:15])[H:16])([H:13])[H:14])([H:11])[H:12])([H:8])([H:9])[H:10]>>[C:1](=[C:2]([H:11])[H:12])([H:9])[H:10].[O:3]([C:4]([C:5]([O:6][C:7]([H:17])([H:18])[H:19])([H:15])[H:16])([H:13])[H:14])[H:8]"
C        3.11595050       0.82002464      -0.39784688
C        2.81016148      -0.53198882      -0.12424337
O        1.00942090      -0.36447889      -0.68934340
C        0.01193919      -0.60860450       0.27137698
C       -1.30951064      -0.02459672      -0.18852208
O       -2.27560056      -0.30332483       0.79169705
C       -3.54157459       0.20444648       0.46749270
H        1.69700583       0.71827008      -0.70219627
H        3.65773237       1.04659777      -1.30900780
H        3.31453861       1.47143373       0.44599372
H        2.68610123      -0.85685992       0.90522535
H        3.11288527      -1.31497811      -0.81050546
H       -0.10456037      -1.68832413       0.40915795
H        0.27290849      -0.17602954       1.24817276
H       -1.20379770       1.06101357      -0.33366127
H       -1.59289830      -0.46439200      -1.15507159
H       -3.91774551      -0.22223876      -0.47165074
H       -3.52187613       1.29787826       0.36749366
H       -4.22108007      -0.06384831       1.27543871
19
Frame=5 idx=009172 GeodesicLength=0.2714488729165695 rxn_smarts="[C:1]([C:2]([O:3][C:4]([C:5]([O:6][C:7]([H:17])([H:18])[H:19])([H:15])[H:16])([H:13])[H:14])([H:11])[H:12])([H:8])([H:9])[H:10]>>[C:1](=[C:2]([H:11])[H:12])([H:9])[H:10].[O:3]([C:4]([C:5]([O:6][C:7]([H:17])([H:18])[H:19])([H:15])[H:16])([H:13])[H:14])[H:8]"
C        3.12282554       0.81989999      -0.41100357
C        2.81177898      -0.52509630      -0.10667465
O        1.00571476      -0.36015371      -0.68914845
C        0.00558080      -0.61955440       0.26419345
C       -1.31291852      -0.02174568      -0.18619430
O       -2.28205621      -0.31577502       0.78644468
C       -3.54565875       0.20213540       0.46912939
H        1.69559267       0.73375896      -0.72000773
H        3.66421366       1.02201896      -1.32844664
H        3.33619112       1.48415481       0.41946713
H        2.69345616      -0.82286967       0.93197025
H        3.12488514      -1.32360523      -0.77067116
H       -0.11453720      -1.70156579       0.37987837
H        0.26468190      -0.20919977       1.25081022
H       -1.20254451       1.06616580      -0.30948726
H       -1.59620937      -0.44119541      -1.16178012
H       -3.92141256      -0.20651232      -0.47816681
H       -3.52207521       1.29711221       0.38862196
H       -4.22750839      -0.07797285       1.27106523
19
Frame=6 idx=009172 GeodesicLength=0.3249811464859416 rxn_smarts="[C:1]([C:2]([O:3][C:4]([C:5]([O:6][C:7]([H:17])([H:18])[H:19])([H:15])[H:16])([H:13])[H:14])([H:11])[H:12])([H:8])([H:9])[H:10]>>[C:1](=[C:2]([H:11])[H:12])([H:9])[H:10].[O:3]([C:4]([C:5]([O:6][C:7]([H:17])([H:18])[H:19])([H:15])[H:16])([H:13])[H:14])[H:8]"
C        3.12951854       0.81942626      -0.42368396
C        2.81323295      -0.51789956      -0.08895757
O        1.00193152      -0.35573935      -0.68928042
C       -0.00071177      -0.63045179       0.25653687
C       -1.31627306      -0.01900703      -0.18387207
O       -2.28830058      -0.32788828       0.78117641
C       -3.54958608       0.19987956       0.47098951
H        1.69439738       0.74907697      -0.73902789
H        3.67078831       0.99700114      -1.34657649
H        3.35734319       1.49605673       0.39321295
H        2.70032384      -0.78834718       0.95808430
H        3.13682448      -1.33121211      -0.73024078
H       -0.12440586      -1.71429671       0.35002957
H        0.25662048      -0.24258140       1.25245744
H       -1.20122928       1.07072326      -0.28551034
H       -1.59960324      -0.41812711      -1.16794656
H       -3.92505706      -0.19110348      -0.48384405
H       -3.52220695       1.29600978       0.40942616
H       -4.23360680      -0.09151969       1.26702693
19
Frame=7 idx=009172 GeodesicLength=0.3782607774151875 rxn_smarts="[C:1]([C:2]([O:3][C:4]([C:5]([O:6][C:7]([H:17])([H:18])[H:19])([H:15])[H:16])([H:13])[H:14])([H:11])[H:12])([H:8])([H:9])[H:10]>>[C:1](=[C:2]([H:11])[H:12])([H:9])[H:10].[O:3]([C:4]([C:5]([O:6][C:7]([H:17])([H:18])[H:19])([H:15])[H:16])([H:13])[H:14])[H:8]"
C        3.13599499       0.81863408      -0.43581932
C        2.81451683      -0.51041606      -0.07113049
O        0.99806858      -0.35128018      -0.68976583
C       -0.00693376      -0.64129882       0.24839933
C       -1.31956852      -0.01639887      -0.18157306
O       -2.29430915      -0.33961744       0.77593905
C       -3.55333814       0.19770402       0.47309329
H        1.69344113       0.76414342      -0.75933960
H        3.67746324       0.97167288      -1.36329576
H        3.37789534       1.50713191       0.36738109
H        2.70669104      -0.75340929       0.98351287
H        3.14870758      -1.33775470      -0.68932565
H       -0.13417867      -1.72651048       0.31965889
H        0.24875924      -0.27612484       1.25307771
H       -1.19982914       1.07467474      -0.26182947
H       -1.60310504      -0.39527708      -1.17356845
H       -3.92869287      -0.17609459      -0.48864381
H       -3.52224648       1.29462266       0.42981607
H       -4.23933618      -0.10440136       1.26341314
19
Frame=8 idx=009172 GeodesicLength=0.4313020557034604 rxn_smarts="[C:1]([C:2]([O:3][C:4]([C:5]([O:6][C:7]([H:17])([H:18])[H:19])([H:15])[H:16])([H:13])[H:14])([H:11])[H:12])([H:8])([H:9])[H:10]>>[C:1](=[C:2]([H:11])[H:12])([H:9])[H:10].[O:3]([C:4]([C:5]([O:6][C:7]([H:17])([H:18])[H:19])([H:15])[H:16])([H:13])[H:14])[H:8]"
C        3.14222094       0.81755392      -0.44736399
C        2.81562365      -0.50266243      -0.05321872
O        0.99412209      -0.34682260      -0.69062696
C       -0.01308471      -0.65210182       0.23977658
C       -1.32279802      -0.01393453      -0.17931120
O       -2.30006456      -0.35094025       0.77076871
C       -3.55689677       0.19562891       0.47545782
H        1.69273810       0.77887049      -0.78102244
H        3.68424773       0.94613773      -1.37854015
H        3.39775676       1.51739960       0.34208353
H        2.71254291      -0.71814348       1.00822973
H        3.16054775      -1.34320717      -0.64800360
H       -0.14387383      -1.73820900       0.28880809
H        0.24112099      -0.30979176       1.25264568
H       -1.19832016       1.07802033      -0.23851258
H       -1.60672838      -0.37270568      -1.17865505
H       -3.93232363      -0.16152015      -0.49255885
H       -3.52216229       1.29300411       0.44975604
H       -4.24466857      -0.11657623       1.26028736
19
Frame=9 idx=009172 GeodesicLength=0.48412450801572465 rxn_smarts="[C:1]([C:2]([O:3][C:4]([C:5]([O:6][C:7]([H:17])([H:18])[H:19])([H:15])[H:16])([H:13])[H:14])([H:11])[H:12])([H:8])([H:9])[H:10]>>[C:1](=[C:2]([H:11])[H:12])([H:9])[H:10].[O:3]([C:4]([C:5]([O:6][C:7]([H:17])([H:18])[H:19])([H:15])[H:16])([H:13])[H:14])[H:8]"
C        3.14816091       0.81622481      -0.45826655
C        2.81655280      -0.49466660      -0.03525914
O        0.99009783      -0.34242038      -0.69188779
C       -0.01916072      -0.66287086       0.23067120
C       -1.32595330      -0.01162886      -0.17710010
O       -2.30555496      -0.36182596       0.76571192
C       -3.56025282       0.19368108       0.47809980
H        1.69231517       0.79316740      -0.80415329
H        3.69115558       0.92053512      -1.39224385
H        3.41681716       1.52688647       0.31745364
H        2.71787327      -0.68267604       1.03220200
H        3.17236884      -1.34754945      -0.60638662
H       -0.15350910      -1.74940382       0.25753877
H        0.23373431      -0.34353362       1.25114356
H       -1.19667406       1.08076408      -0.21563891
H       -1.61048625      -0.35048851      -1.18321490
H       -3.93596223      -0.14743242      -0.49557625
H       -3.52193290       1.29121934       0.46918412
H       -4.24958951      -0.12798179       1.25772238
19
Frame=10 idx=009172 GeodesicLength=0.5366013569540954 rxn_smarts="[C:1]([C:2]([O:3][C:4]([C:5]([O:6][C:7]([H:17])([H:18])[H:19])([H:15])[H:16])([H:13])[H:14])([H:11])[H:12])([H:8])([H:9])[H:10]>>[C:1](=[C:2]([H:11])[H:12])([H:9])[H:10].[O:3]([C:4]([C:5]([O:6][C:7]([H:17])([H:18])[H:19])([H:15])[H:16])([H:13])[H:14])[H:8]"
C        3.15374596       0.81469137      -0.46845095
C        2.81728614      -0.48646047      -0.01731934
O        0.98597161      -0.33814464      -0.69354462
C       -0.02516033      -0.67359381       0.22111589
C       -1.32902908      -0.00950047      -0.17494815
O       -2.31074603      -0.37221523       0.76081655
C       -3.56336984       0.19189511       0.48101302
H        1.69217680       0.80685518      -0.82875670
H        3.69813645       0.89504779      -1.40429956
H        3.43495535       1.53559371       0.29367127
H        2.72272917      -0.64719311       1.05533696
H        3.18418510      -1.35072161      -0.56469334
H       -0.16308316      -1.76007468       0.22597794
H        0.22664182      -0.37724001       1.24857389
H       -1.19488070       1.08289153      -0.19330811
H       -1.61440246      -0.32873366      -1.18724183
H       -3.93959451      -0.13389940      -0.49769994
H       -3.52151841       1.28932759       0.48799230
H       -4.25404387      -0.13852521       1.25576471
19
Frame=11 idx=009172 GeodesicLength=0.5889786261457559 rxn_smarts="[C:1]([C:2]([O:3][C:4]([C:5]([O:6][C:7]([H:17])([H:18])[H:19])([H:15])[H:16])([H:13])[H:14])([H:11])[H:12])([H:8])([H:9])[H:10]>>[C:1](=[C:2]([H:11])[H:12])([H:9])[H:10].[O:3]([C:4]([C:5]([O:6][C:7]([H:17])([H:18])[H:19])([H:15])[H:16])([H:13])[H:14])[H:8]"
C        3.15898492       0.81295076      -0.47819837
C        2.81778405      -0.47784309       0.00092602
O        0.98178811      -0.33406306      -0.69561763
C       -0.03112565      -0.68450154       0.21095605
C       -1.33197757      -0.00753322      -0.17283645
O       -2.31569552      -0.38242543       0.75591574
C       -3.56621408       0.19025309       0.48423889
H        1.69230040       0.81991593      -0.85497353
H        3.70518914       0.86922847      -1.41505985
H        3.45226999       1.54386938       0.27013047
H        2.72688935      -0.61095131       1.07805402
H        3.19599256      -1.35280019      -0.52206910
H       -0.17276998      -1.77044586       0.19362382
H        0.21973658      -0.41149288       1.24489839
H       -1.19276899       1.08444053      -0.17106839
H       -1.61839457      -0.30699616      -1.19087891
H       -3.94316797      -0.12035673      -0.49912270
H       -3.52072444       1.28733931       0.50683058
H       -4.25809632      -0.14858797       1.25425096
19
Frame=12 idx=009172 GeodesicLength=0.6412162650840518 rxn_smarts="[C:1]([C:2]([O:3][C:4]([C:5]([O:6][C:7]([H:17])([H:18])[H:19])([H:15])[H:16])([H:13])[H:14])([H:11])[H:12])([H:8])([H:9])[H:10]>>[C:1](=[C:2]([H:11])[H:12])([H:9])[H:10].[O:3]([C:4]([C:5]([O:6][C:7]([H:17])([H:18])[H:19])([H:15])[H:16])([H:13])[H:14])[H:8]"
C        3.16383145       0.81105078      -0.48744942
C        2.81802792      -0.46883574       0.01943768
O        0.97755297      -0.33025247      -0.69813952
C       -0.03704977      -0.69560289       0.20019118
C       -1.33478972      -0.00574552      -0.17077716
O       -2.32038821      -0.39241389       0.75104643
C       -3.56877392       0.18879033       0.48779369
H        1.69272712       0.83218030      -0.88287791
H        3.71233367       0.84323179      -1.42443198
H        3.46863445       1.55174612       0.24697829
H        2.73032731      -0.57408575       1.10030197
H        3.20782827      -1.35373434      -0.47865465
H       -0.18257011      -1.78051812       0.16054980
H        0.21305181      -0.44623312       1.24008182
H       -1.19031983       1.08539341      -0.14900185
H       -1.62247173      -0.28535152      -1.19411636
H       -3.94668847      -0.10683576      -0.49981255
H       -3.51953306       1.28530587       0.52563930
H       -4.26173015      -0.15808949       1.25324125
19
Frame=13 idx=009172 GeodesicLength=0.6932967750626553 rxn_smarts="[C:1]([C:2]([O:3][C:4]([C:5]([O:6][C:7]([H:17])([H:18])[H:19])([H:15])[H:16])([H:13])[H:14])([H:11])[H:12])([H:8])([H:9])[H:10]>>[C:1](=[C:2]([H:11])[H:12])([H:9])[H:10].[O:3]([C:4]([C:5]([O:6][C:7]([H:17])([H:18])[H:19])([H:15])[H:16])([H:13])[H:14])[H:8]"
C        3.16824001       0.80901964      -0.49608264
C        2.81800320      -0.45951235       0.03810654
O        0.97324902      -0.32674118      -0.70114786
C       -0.04292631      -0.70684248       0.18884277
C       -1.33746236      -0.00415168      -0.16879484
O       -2.32478378      -0.40207719       0.74628742
C       -3.57102546       0.18752741       0.49168944
H        1.69350168       0.84353566      -0.91249758
H        3.71956888       0.81729038      -1.43225456
H        3.48392526       1.55916709       0.22448854
H        2.73306483      -0.53688108       1.12194878
H        3.21967387      -1.35347170      -0.43473409
H       -0.19247786      -1.79023054       0.12691512
H        0.20663153      -0.48126485       1.23409641
H       -1.18753321       1.08574243      -0.12729542
H       -1.62666023      -0.26396526      -1.19693381
H       -3.95016031      -0.09352322      -0.49970200
H       -3.51794641       1.28326972       0.54421797
H       -4.26488235      -0.16689082       1.25284979
19
Frame=14 idx=009172 GeodesicLength=0.7452548293825154 rxn_smarts="[C:1]([C:2]([O:3][C:4]([C:5]([O:6][C:7]([H:17])([H:18])[H:19])([H:15])[H:16])([H:13])[H:14])([H:11])[H:12])([H:8])([H:9])[H:10]>>[C:1](=[C:2]([H:11])[H:12])([H:9])[H:10].[O:3]([C:4]([C:5]([O:6][C:7]([H:17])([H:18])[H:19])([H:15])[H:16])([H:13])[H:14])[H:8]"
C        3.17213738       0.80691109      -0.50408543
C        2.81768850      -0.44985601       0.05695396
O        0.96889046      -0.32364954      -0.70469239
C       -0.04875996      -0.71830221       0.17686958
C       -1.33996697      -0.00278277      -0.16690746
O       -2.32886722      -0.41143553       0.74164174
C       -3.57292551       0.18651641       0.49595788
H        1.69464115       0.85380057      -0.94395217
H        3.72691299       0.79150410      -1.43847927
H        3.49793818       1.56626093       0.20269833
H        2.73502450      -0.49932544       1.14302728
H        3.23158331      -1.35196393      -0.39026450
H       -0.20255521      -1.79965746       0.09268430
H        0.20048063      -0.51667641       1.22689804
H       -1.18432458       1.08546242      -0.10596223
H       -1.63095056      -0.24284381      -1.19935838
H       -3.95356746      -0.08031575      -0.49878445
H       -3.51585887       1.28130172       0.56263637
H       -4.26752075      -0.17494839       1.25311880
19
Frame=15 idx=009172 GeodesicLength=0.7969626811417718 rxn_smarts="[C:1]([C:2]([O:3][C:4]([C:5]([O:6][C:7]([H:17])([H:18])[H:19])([H:15])[H:16])([H:13])[H:14])([H:11])[H:12])([H:8])([H:9])[H:10]>>[C:1](=[C:2]([H:11])[H:12])([H:9])[H:10].[O:3]([C:4]([C:5]([O:6][C:7]([H:17])([H:18])[H:19])([H:15])[H:16])([H:13])[H:14])[H:8]"
C        3.17541529       0.80479748      -0.51121309
C        2.81707995      -0.44003491       0.07573289
O        0.96444445      -0.32105274      -0.70881443
C       -0.05453787      -0.72988428       0.16435722
C       -1.34230697      -0.00168663      -0.16517125
O       -2.33256635      -0.42028174       0.73725886
C       -3.57442907       0.18582165       0.50060237
H        1.69618725       0.86279132      -0.97721180
H        3.73432380       0.76637621      -1.44280227
H        3.51040394       1.57292193       0.18215000
H        2.73633811      -0.46203651       1.16325435
H        3.24357909      -1.34912305      -0.34587978
H       -0.21275911      -1.80872251       0.05823580
H        0.19467201      -0.55206010       1.21850513
H       -1.18073041       1.08453704      -0.08541216
H       -1.63539931      -0.22237546      -1.20136743
H       -3.95691580      -0.06754785      -0.49695451
H       -3.51327290       1.27950988       0.58048364
H       -4.26952611      -0.18194973       1.25424647
19
Frame=16 idx=009172 GeodesicLength=0.8486471001548239 rxn_smarts="[C:1]([C:2]([O:3][C:4]([C:5]([O:6][C:7]([H:17])([H:18])[H:19])([H:15])[H:16])([H:13])[H:14])([H:11])[H:12])([H:8])([H:9])[H:10]>>[C:1](=[C:2]([H:11])[H:12])([H:9])[H:10].[O:3]([C:4]([C:5]([O:6][C:7]([H:17])([H:18])[H:19])([H:15])[H:16])([H:13])[H:14])[H:8]"
C        3.17796587       0.80272957      -0.51787704
C        2.81605103      -0.42961229       0.09500688
O        0.95999998      -0.31928364      -0.71360548
C       -0.06031913      -0.74211439       0.15097572
C       -1.34435477      -0.00089784      -0.16354017
O       -2.33593599      -0.42907327       0.73283725
C       -3.57540585       0.18552835       0.50571715
H        1.69809549       0.87014061      -1.01270057
H        3.74182653       0.74127688      -1.44558510
H        3.52113036       1.57980240       0.16189394
H        2.73648925      -0.42369004       1.18324430
H        3.25575418      -1.34483989      -0.30015056
H       -0.22341405      -1.81786289       0.02264292
H        0.18906872      -0.58860833       1.20871827
H       -1.17635395       1.08285898      -0.06486214
H       -1.63985046      -0.20182221      -1.20309571
H       -3.96007082      -0.05417402      -0.49438310
H       -3.50973550       1.27792149       0.59879053
H       -4.27094090      -0.18827950       1.25597290
