17
Frame=0 idx=011547 GeodesicLength=0.0 rxn_smarts="[C:1]([O:2][C:3]([C@@:4]1([H:13])[C:5]([H:14])([H:15])[C@:6]1([O:7][H:17])[H:16])([H:11])[H:12])([H:8])([H:9])[H:10]>>[C:1]([O:2][C:3]([C@@:4]1([H:13])[C:5]([H:14])([H:15])[C:6]1)([H:11])[H:12])([H:8])([H:9])[H:10].[O:7]([H:16])[H:17]"
C        2.29679848      -0.28198377       0.77543457
O        0.92998041      -0.04246431       0.54615507
C        0.56438445      -0.20680686      -0.80845854
C       -0.91522529      -0.01779030      -1.02056345
C       -2.00012106      -0.68933051      -0.23311777
C       -1.88898033       0.79691940      -0.22192870
O       -1.22762470       1.26989074       1.34583142
H        2.55924147      -1.31657868       0.52596113
H        2.48620759      -0.11124435       1.83380572
H        2.92499868       0.39365793       0.18209369
H        1.11064461       0.52599517      -1.41977374
H        0.86666672      -1.20740912      -1.14962344
H       -1.12073375       0.10752442      -2.08174097
H       -2.84645586      -1.14379968      -0.73497166
H       -1.69355536      -1.18377899       0.68115420
H       -1.77550073       1.86163168       0.59775024
H       -0.27072540       1.24556727       1.18199230
17
Frame=1 idx=011547 GeodesicLength=0.05361423458824643 rxn_smarts="[C:1]([O:2][C:3]([C@@:4]1([H:13])[C:5]([H:14])([H:15])[C@:6]1([O:7][H:17])[H:16])([H:11])[H:12])([H:8])([H:9])[H:10]>>[C:1]([O:2][C:3]([C@@:4]1([H:13])[C:5]([H:14])([H:15])[C:6]1)([H:11])[H:12])([H:8])([H:9])[H:10].[O:7]([H:16])[H:17]"
C        2.29370028      -0.28655089       0.77708936
O        0.92585254      -0.05275872       0.54792848
C        0.56340781      -0.20353660      -0.80963273
C       -0.91674129      -0.01857018      -1.02049016
C       -1.99475689      -0.69218607      -0.22504550
C       -1.88733219       0.79462506      -0.21581525
O       -1.22944560       1.27784355       1.33120508
H        2.56286705      -1.31628845       0.51506443
H        2.47998957      -0.12822232       1.83795164
H        2.91905363       0.40023944       0.19366771
H        1.10778056       0.53838169      -1.41157531
H        0.87061387      -1.19905107      -1.16099173
H       -1.12562012       0.10337178      -2.08122659
H       -2.84355289      -1.14803097      -0.72137252
H       -1.68029449      -1.18605436       0.68689747
H       -1.77458199       1.88404778       0.57641886
H       -0.27093986       1.23274034       1.17992674
17
Frame=2 idx=011547 GeodesicLength=0.10723060152013478 rxn_smarts="[C:1]([O:2][C:3]([C@@:4]1([H:13])[C:5]([H:14])([H:15])[C@:6]1([O:7][H:17])[H:16])([H:11])[H:12])([H:8])([H:9])[H:10]>>[C:1]([O:2][C:3]([C@@:4]1([H:13])[C:5]([H:14])([H:15])[C:6]1)([H:11])[H:12])([H:8])([H:9])[H:10].[O:7]([H:16])[H:17]"
C        2.29065462      -0.29100829       0.77868525
O        0.92182766      -0.06286852       0.54955707
C        0.56241318      -0.20028945      -0.81075222
C       -0.91825529      -0.01930398      -1.02039627
C       -1.98944864      -0.69484806      -0.21705001
C       -1.88558955       0.79251745      -0.20973876
O       -1.23090096       1.28564022       1.31670312
H        2.56645418      -1.31575929       0.50436080
H        2.47393149      -0.14496496       1.84184311
H        2.91310699       0.40664467       0.20517855
H        1.10489701       0.55046662      -1.40338345
H        0.87443071      -1.19068799      -1.17205063
H       -1.13043809       0.09925720      -2.08068631
H       -2.84070584      -1.15196176      -0.70787116
H       -1.66721637      -1.18817827       0.69251082
H       -1.77379131       1.90565256       0.55488623
H       -0.27136979       1.21969186       1.17820387
17
Frame=3 idx=011547 GeodesicLength=0.16085109527846958 rxn_smarts="[C:1]([O:2][C:3]([C@@:4]1([H:13])[C:5]([H:14])([H:15])[C@:6]1([O:7][H:17])[H:16])([H:11])[H:12])([H:8])([H:9])[H:10]>>[C:1]([O:2][C:3]([C@@:4]1([H:13])[C:5]([H:14])([H:15])[C:6]1)([H:11])[H:12])([H:8])([H:9])[H:10].[O:7]([H:16])[H:17]"
C        2.28766331      -0.29536411       0.78022458
O        0.91790533      -0.07280488       0.55104856
C        0.56140389      -0.19706466      -0.81181914
C       -0.91976508      -0.01999424      -1.02028157
C       -1.98419467      -0.69731956      -0.20912636
C       -1.88375229       0.79059361      -0.20370185
O       -1.23197688       1.29328882       1.30231474
H        2.57000977      -1.31500251       0.49383729
H        2.46803098      -0.16149052       1.84549093
H        2.90716039       0.41288107       0.21663218
H        1.10199825       0.56226466      -1.39519682
H        0.87812511      -1.18232126      -1.18281647
H       -1.13518752       0.09517452      -2.08012053
H       -2.83791340      -1.15559837      -0.69446063
H       -1.65431730      -1.19015535       0.69800052
H       -1.77317871       1.92648623       0.53316183
H       -0.27201116       1.20642653       1.17681274
17
Frame=4 idx=011547 GeodesicLength=0.2144855570576611 rxn_smarts="[C:1]([O:2][C:3]([C@@:4]1([H:13])[C:5]([H:14])([H:15])[C@:6]1([O:7][H:17])[H:16])([H:11])[H:12])([H:8])([H:9])[H:10]>>[C:1]([O:2][C:3]([C@@:4]1([H:13])[C:5]([H:14])([H:15])[C:6]1)([H:11])[H:12])([H:8])([H:9])[H:10].[O:7]([H:16])[H:17]"
C        2.28473030      -0.29962687       0.78170995
O        0.91408636      -0.08257776       0.55241020
C        0.56038414      -0.19386157      -0.81283636
C       -0.92126890      -0.02064204      -1.02014681
C       -1.97899412      -0.69960364      -0.20126981
C       -1.88182263       0.78885167      -0.19770558
O       -1.23266268       1.30079749       1.28803125
H        2.57354091      -1.31403090       0.48348549
H        2.46228869      -0.17781368       1.84890560
H        2.90121926       0.41895150       0.22803191
H        1.09908996       0.57378894      -1.38701638
H        0.88170589      -1.17395289      -1.19330451
H       -1.13986856       0.09112115      -2.07953162
H       -2.83517538      -1.15894569      -0.68113468
H       -1.64159353      -1.19199207       0.70337336
H       -1.77279969       1.94658809       0.51125382
H       -0.27286003       1.19294827       1.17574415
17
Frame=5 idx=011547 GeodesicLength=0.2680966592047779 rxn_smarts="[C:1]([O:2][C:3]([C@@:4]1([H:13])[C:5]([H:14])([H:15])[C@:6]1([O:7][H:17])[H:16])([H:11])[H:12])([H:8])([H:9])[H:10]>>[C:1]([O:2][C:3]([C@@:4]1([H:13])[C:5]([H:14])([H:15])[C:6]1)([H:11])[H:12])([H:8])([H:9])[H:10].[O:7]([H:16])[H:17]"
C        2.28185029      -0.30379922       0.78314284
O        0.91036682      -0.09219264       0.55364871
C        0.55935323      -0.19068024      -0.81380221
C       -0.92276401      -0.02124875      -1.01998822
C       -1.97384333      -0.70170254      -0.19348134
C       -1.87979104       0.78728437      -0.19174772
O       -1.23292580       1.30816445       1.27383613
H        2.57704135      -1.31285438       0.47330246
H        2.45669831      -0.19393431       1.85209225
H        2.89527809       0.42486042       0.23937556
H        1.09617224       0.58504875      -1.37883733
H        0.88517198      -1.16558562      -1.20352278
H       -1.14448092       0.08709609      -2.07891084
H       -2.83248927      -1.16200489      -0.66789434
H       -1.62904057      -1.19369289       0.70862153
H       -1.77267873       1.96597109       0.48917919
H       -0.27391863       1.17927032       1.17498611
17
Frame=6 idx=011547 GeodesicLength=0.32174219434294066 rxn_smarts="[C:1]([O:2][C:3]([C@@:4]1([H:13])[C:5]([H:14])([H:15])[C@:6]1([O:7][H:17])[H:16])([H:11])[H:12])([H:8])([H:9])[H:10]>>[C:1]([O:2][C:3]([C@@:4]1([H:13])[C:5]([H:14])([H:15])[C:6]1)([H:11])[H:12])([H:8])([H:9])[H:10].[O:7]([H:16])[H:17]"
C        2.27902168      -0.30791172       0.78452968
O        0.90674188      -0.10167811       0.55476984
C        0.55831827      -0.18749871      -0.81472597
C       -0.92425397      -0.02183446      -1.01980773
C       -1.96873386      -0.70362670      -0.18572398
C       -1.87767031       0.78588801      -0.18583999
O       -1.23276562       1.31545397       1.25969002
H        2.58054237      -1.31147031       0.46320813
H        2.45123296      -0.20999068       1.85507710
H        2.88932362       0.43064557       0.25074046
H        1.09323304       0.59611622      -1.37063113
H        0.88856389      -1.15717224      -1.21353179
H       -1.14903971       0.08304561      -2.07826658
H       -2.82984576      -1.16481390      -0.65467853
H       -1.61664052      -1.19524640       0.71380131
H       -1.77284889       1.98471618       0.46686240
H       -0.27517909       1.16537768       1.17452676
17
Frame=7 idx=011547 GeodesicLength=0.37544127166730906 rxn_smarts="[C:1]([O:2][C:3]([C@@:4]1([H:13])[C:5]([H:14])([H:15])[C@:6]1([O:7][H:17])[H:16])([H:11])[H:12])([H:8])([H:9])[H:10]>>[C:1]([O:2][C:3]([C@@:4]1([H:13])[C:5]([H:14])([H:15])[C:6]1)([H:11])[H:12])([H:8])([H:9])[H:10].[O:7]([H:16])[H:17]"
C        2.27624132      -0.31198683       0.78587650
O        0.90320160      -0.11106720       0.55578230
C        0.55728475      -0.18430390      -0.81561256
C       -0.92574324      -0.02242060      -1.01960382
C       -1.96366616      -0.70538132      -0.17796539
C       -1.87546651       0.78466077      -0.17999130
O       -1.23215696       1.32271735       1.24554043
H        2.58409153      -1.30986098       0.45311085
H        2.44586096      -0.22611767       1.85788255
H        2.88333080       0.43636932       0.26221083
H        1.09026316       0.60705263      -1.36236702
H        0.89191684      -1.14867963      -1.22338015
H       -1.15355872       0.07891860      -2.07760003
H       -2.82725599      -1.16738777      -0.64142693
H       -1.60438502      -1.19664228       0.71895600
H       -1.77331888       2.00286880       0.44422255
H       -0.27663947       1.15126072       1.17436517
17
Frame=8 idx=011547 GeodesicLength=0.42911281797610634 rxn_smarts="[C:1]([O:2][C:3]([C@@:4]1([H:13])[C:5]([H:14])([H:15])[C@:6]1([O:7][H:17])[H:16])([H:11])[H:12])([H:8])([H:9])[H:10]>>[C:1]([O:2][C:3]([C@@:4]1([H:13])[C:5]([H:14])([H:15])[C:6]1)([H:11])[H:12])([H:8])([H:9])[H:10].[O:7]([H:16])[H:17]"
C        2.27348808      -0.31603127       0.78718844
O        0.89973047      -0.12038964       0.55669301
C        0.55624148      -0.18109798      -0.81646022
C       -0.92723396      -0.02303816      -1.01937257
C       -1.95862371      -0.70696426      -0.17018775
C       -1.87314858       0.78358808      -0.17421280
O       -1.23102398       1.32998757       1.23133148
H        2.58772836      -1.30796901       0.44290128
H        2.44053874      -0.24246603       1.86052530
H        2.87722808       0.44212239       0.27389519
H        1.08723188       0.61787979      -1.35401170
H        0.89523282      -1.14008721      -1.23309848
H       -1.15805507       0.07465324      -2.07689590
H       -2.82470789      -1.16973269      -0.62809768
H       -1.59225426      -1.19785015       0.72410202
H       -1.77402929       2.02044757       0.42123241
H       -0.27834317       1.13694775       1.17446797
17
Frame=9 idx=011547 GeodesicLength=0.48287373738745587 rxn_smarts="[C:1]([O:2][C:3]([C@@:4]1([H:13])[C:5]([H:14])([H:15])[C@:6]1([O:7][H:17])[H:16])([H:11])[H:12])([H:8])([H:9])[H:10]>>[C:1]([O:2][C:3]([C@@:4]1([H:13])[C:5]([H:14])([H:15])[C:6]1)([H:11])[H:12])([H:8])([H:9])[H:10].[O:7]([H:16])[H:17]"
C        2.27078004      -0.32003555       0.78846254
O        0.89634525      -0.12962240       0.55750002
C        0.55519836      -0.17789218      -0.81726475
C       -0.92871678      -0.02365398      -1.01911446
C       -1.95362017      -0.70837535      -0.16241636
C       -1.87072954       0.78268353      -0.16848131
O       -1.22938029       1.33722060       1.21709903
H        2.59141596      -1.30582981       0.43268273
H        2.43531523      -0.25889051       1.86297531
H        2.87107413       0.44781288       0.28570538
H        1.08417922       0.62854950      -1.34559485
H        0.89849251      -1.13143570      -1.24264511
H       -1.16250266       0.07033268      -2.07615984
H       -2.82221562      -1.17182567      -0.61474021
H       -1.58026773      -1.19891650       0.72920603
H       -1.77514653       2.03745436       0.39794754
H       -0.28022138       1.12242409       1.17483832
17
Frame=10 idx=011547 GeodesicLength=0.5366869667913718 rxn_smarts="[C:1]([O:2][C:3]([C@@:4]1([H:13])[C:5]([H:14])([H:15])[C@:6]1([O:7][H:17])[H:16])([H:11])[H:12])([H:8])([H:9])[H:10]>>[C:1]([O:2][C:3]([C@@:4]1([H:13])[C:5]([H:14])([H:15])[C:6]1)([H:11])[H:12])([H:8])([H:9])[H:10].[O:7]([H:16])[H:17]"
C        2.26810974      -0.32401575       0.78970670
O        0.89303196      -0.13880104       0.55821093
C        0.55415576      -0.17468327      -0.81803410
C       -0.93019785      -0.02429916      -1.01883097
C       -1.94865335      -0.70961775      -0.15461770
C       -1.86820835       0.78194021      -0.16281003
O       -1.22718803       1.34447424       1.20277907
H        2.59521955      -1.30338823       0.42233696
H        2.43014985      -0.27556298       1.86525625
H        2.86481433       0.45353453       0.29776075
H        1.08108766       0.63910490      -1.33709351
H        0.90172600      -1.12269911      -1.25206826
H       -1.16691884       0.06589452      -2.07539488
H       -2.81978579      -1.17367936      -0.60129179
H       -1.56841818      -1.19982103       0.73431593
H       -1.77662454       2.05394075       0.37430798
H       -0.28229993       1.10767853       1.17546668
17
Frame=11 idx=011547 GeodesicLength=0.5905089053379577 rxn_smarts="[C:1]([O:2][C:3]([C@@:4]1([H:13])[C:5]([H:14])([H:15])[C@:6]1([O:7][H:17])[H:16])([H:11])[H:12])([H:8])([H:9])[H:10]>>[C:1]([O:2][C:3]([C@@:4]1([H:13])[C:5]([H:14])([H:15])[C:6]1)([H:11])[H:12])([H:8])([H:9])[H:10].[O:7]([H:16])[H:17]"
C        2.26548895      -0.32795775       0.79091877
O        0.88980410      -0.14789029       0.55882578
C        0.55311633      -0.17148806      -0.81876408
C       -0.93166923      -0.02493860      -1.01852092
C       -1.94372677      -0.71068441      -0.14682984
C       -1.86556948       0.78136423      -0.15717201
O       -1.22441105       1.35167242       1.18841488
H        2.59908830      -1.30069038       0.41198566
H        2.42508577      -0.29232642       1.86734537
H        2.85849343       0.45919789       0.30995291
H        1.07798630       0.64948370      -1.32854885
H        0.90489908      -1.11393297      -1.26131264
H       -1.17128837       0.06141899      -2.07459334
H       -2.81741855      -1.17525996      -0.58782499
H       -1.55670929      -1.20060042       0.73936672
H       -1.77857005       2.06984007       0.35042825
H       -0.28459948       1.09279195       1.17632833
17
Frame=12 idx=011547 GeodesicLength=0.6444004930717315 rxn_smarts="[C:1]([O:2][C:3]([C@@:4]1([H:13])[C:5]([H:14])([H:15])[C@:6]1([O:7][H:17])[H:16])([H:11])[H:12])([H:8])([H:9])[H:10]>>[C:1]([O:2][C:3]([C@@:4]1([H:13])[C:5]([H:14])([H:15])[C:6]1)([H:11])[H:12])([H:8])([H:9])[H:10].[O:7]([H:16])[H:17]"
C        2.26290701      -0.33187811       0.79210531
O        0.88665128      -0.15691535       0.55934853
C        0.55208192      -0.16829933      -0.81945898
C       -0.93313317      -0.02559812      -1.01818467
C       -1.93883381      -0.71158222      -0.13902475
C       -1.86281166       0.78094817      -0.15157325
O       -1.22102585       1.35885550       1.17395720
H        2.60306040      -1.29769251       0.40154037
H        2.42008925      -0.30931739       1.86925148
H        2.85206929       0.46486068       0.32238503
H        1.07485979       0.65972775      -1.31993159
H        0.90803925      -1.10510466      -1.27042157
H       -1.17562263       0.05685401      -2.07375683
H       -2.81511590      -1.17658176      -0.57428171
H       -1.54513188      -1.20124340       0.74439842
H       -1.78097799       2.08521779       0.32625587
H       -0.28710531       1.07774896       1.17739115
17
Frame=13 idx=011547 GeodesicLength=0.6983352914387414 rxn_smarts="[C:1]([O:2][C:3]([C@@:4]1([H:13])[C:5]([H:14])([H:15])[C@:6]1([O:7][H:17])[H:16])([H:11])[H:12])([H:8])([H:9])[H:10]>>[C:1]([O:2][C:3]([C@@:4]1([H:13])[C:5]([H:14])([H:15])[C:6]1)([H:11])[H:12])([H:8])([H:9])[H:10].[O:7]([H:16])[H:17]"
C        2.26037499      -0.33577480       0.79326583
O        0.88358639      -0.16583697       0.55978010
C        0.55105810      -0.16511939      -0.82011819
C       -0.93458277      -0.02624275      -1.01782443
C       -1.93397509      -0.71231023      -0.13123484
C       -1.85993057       0.78069583      -0.14599212
O       -1.21701674       1.36596017       1.15944078
H        2.60706631      -1.29446807       0.39113315
H        2.41520373      -0.32637751       1.87095922
H        2.84560476       0.47041136       0.33494175
H        1.07173605       0.66980508      -1.31127484
H        0.91112740      -1.09624592      -1.27935900
H       -1.17991054       0.05227494      -2.07288463
H       -2.81287497      -1.17762765      -0.56072046
H       -1.53368326      -1.20178858       0.74935925
H       -1.78397543       2.10001313       0.30188962
H       -0.28980835       1.06263137       1.17863879
17
Frame=14 idx=011547 GeodesicLength=0.7523103935185323 rxn_smarts="[C:1]([O:2][C:3]([C@@:4]1([H:13])[C:5]([H:14])([H:15])[C@:6]1([O:7][H:17])[H:16])([H:11])[H:12])([H:8])([H:9])[H:10]>>[C:1]([O:2][C:3]([C@@:4]1([H:13])[C:5]([H:14])([H:15])[C:6]1)([H:11])[H:12])([H:8])([H:9])[H:10].[O:7]([H:16])[H:17]"
C        2.25787228      -0.33964794       0.79440640
O        0.88059122      -0.17467969       0.56012437
C        0.55003939      -0.16195416      -0.82074461
C       -0.93601945      -0.02689862      -1.01743822
C       -1.92914470      -0.71287140      -0.12343773
C       -1.85691568       0.78059893      -0.14043125
O       -1.21234999       1.37301957       1.14482150
H        2.61114871      -1.29093975       0.38065817
H        2.41037927      -0.34364565       1.87247551
H        2.83903422       0.47593410       0.34774024
H        1.06860003       0.67972621      -1.30255932
H        0.91416993      -1.08734634      -1.28815231
H       -1.18415932       0.04763314      -2.07197422
H       -2.81069634      -1.17840038      -0.54709791
H       -1.52235604      -1.20222505       0.75427763
H       -1.78750998       2.11426315       0.27729674
H       -0.29268353       1.04743387       1.18003499
17
Frame=15 idx=011547 GeodesicLength=0.8063385856271749 rxn_smarts="[C:1]([O:2][C:3]([C@@:4]1([H:13])[C:5]([H:14])([H:15])[C@:6]1([O:7][H:17])[H:16])([H:11])[H:12])([H:8])([H:9])[H:10]>>[C:1]([O:2][C:3]([C@@:4]1([H:13])[C:5]([H:14])([H:15])[C:6]1)([H:11])[H:12])([H:8])([H:9])[H:10].[O:7]([H:16])[H:17]"
C        2.25541545      -0.34349459       0.79552879
O        0.87767940      -0.18341185       0.56038474
C        0.54903452      -0.15881534      -0.82133814
C       -0.93743724      -0.02753233      -1.01702937
C       -1.92434753      -0.71326576      -0.11566547
C       -1.85376340       0.78066284      -0.13486887
O       -1.20703074       1.37995691       1.13015035
H        2.61526273      -1.28717388       0.37023272
H        2.40565745      -0.36098431       1.87379259
H        2.83241630       0.48134088       0.36067777
H        1.06548490       0.68944853      -1.29382661
H        0.91715045      -1.07845345      -1.29676219
H       -1.18835785       0.04300237      -2.07102724
H       -2.80858391      -1.17888075      -0.53347277
H       -1.51115392      -1.20259195       0.75910225
H       -1.79170431       2.12793304       0.25258987
H       -0.29572230       1.03225965       1.18153158
17
Frame=16 idx=011547 GeodesicLength=0.8603991448703033 rxn_smarts="[C:1]([O:2][C:3]([C@@:4]1([H:13])[C:5]([H:14])([H:15])[C@:6]1([O:7][H:17])[H:16])([H:11])[H:12])([H:8])([H:9])[H:10]>>[C:1]([O:2][C:3]([C@@:4]1([H:13])[C:5]([H:14])([H:15])[C:6]1)([H:11])[H:12])([H:8])([H:9])[H:10].[O:7]([H:16])[H:17]"
C        2.25300462      -0.34730636       0.79663440
O        0.87485379      -0.19200159       0.56056515
C        0.54804597      -0.15571328      -0.82189991
C       -0.93882879      -0.02811644      -1.01660069
C       -1.91957978      -0.71349769      -0.10794755
C       -1.85046923       0.78088325      -0.12928515
O       -1.20108101       1.38670593       1.11547880
H        2.61934955      -1.28322765       0.35995588
H        2.40105486      -0.37825936       1.87491019
H        2.82579217       0.48655904       0.37366059
H        1.06241513       0.69893154      -1.28511495
H        0.92004713      -1.06960832      -1.30515816
H       -1.19249307       0.03844522      -2.07004561
H       -2.80652667      -1.17906015      -0.51990156
H       -1.50007226      -1.20292298       0.76378797
H       -1.79662128       2.14099853       0.22788249
H       -0.29889113       1.01719031       1.18307811
