13
Frame=0 idx=005502 GeodesicLength=0.0 rxn_smarts="[C:1]([C:2]([O:3][C:4]([C:5]#[N:6])([H:12])[H:13])([H:10])[H:11])([H:7])([H:8])[H:9]>>[C:1]([C:5]1=[N:6][C:2]([H:10])([H:11])[O:3][C:4]1([H:12])[H:13])([H:7])([H:8])[H:9]"
C       -0.84878653      -1.07041583       0.30670464
C       -0.67656153       0.96426407      -0.85166435
O       -0.05722655       1.49346436       0.14833436
C        1.12989979       0.78536713       0.48130372
C        0.84351677      -0.72236384       0.16934142
N        1.63807966      -1.54313784      -0.17231119
H       -1.52526217      -0.42742141       0.87120514
H       -1.33504078      -1.46281463      -0.58646147
H       -0.64595196      -1.92582533       0.94730047
H       -1.70828228       1.26954170      -0.97557289
H       -0.11778895       0.53976584      -1.68121066
H        1.36113999       1.01480633       1.51961846
H        1.94226450       1.08476943      -0.17658767
13
Frame=1 idx=005502 GeodesicLength=0.11604104730178878 rxn_smarts="[C:1]([C:2]([O:3][C:4]([C:5]#[N:6])([H:12])[H:13])([H:10])[H:11])([H:7])([H:8])[H:9]>>[C:1]([C:5]1=[N:6][C:2]([H:10])([H:11])[O:3][C:4]1([H:12])[H:13])([H:7])([H:8])[H:9]"
C       -0.86342326      -1.07368549       0.32612963
C       -0.65452304       0.93034748      -0.86742684
O       -0.04871470       1.49093147       0.13367938
C        1.13355636       0.79376517       0.49722672
C        0.85563984      -0.71145185       0.19168376
N        1.61642545      -1.50087244      -0.27836086
H       -1.52271977      -0.43914988       0.92027643
H       -1.39675459      -1.45770146      -0.54394911
H       -0.64961976      -1.94744988       0.93831492
H       -1.67809364       1.25371412      -1.01571680
H       -0.09141659       0.52980528      -1.70589416
H        1.33916011       1.02528730       1.54067618
H        1.96048360       1.10646019      -0.13663926
13
Frame=2 idx=005502 GeodesicLength=0.23244344243977505 rxn_smarts="[C:1]([C:2]([O:3][C:4]([C:5]#[N:6])([H:12])[H:13])([H:10])[H:11])([H:7])([H:8])[H:9]>>[C:1]([C:5]1=[N:6][C:2]([H:10])([H:11])[O:3][C:4]1([H:12])[H:13])([H:7])([H:8])[H:9]"
C       -0.87728347      -1.07704114       0.34357468
C       -0.63279181       0.89645201      -0.88268003
O       -0.03972985       1.48732249       0.11879080
C        1.13721043       0.80103658       0.51150166
C        0.87022609      -0.70195021       0.20871471
N        1.59195007      -1.45558236      -0.37112361
H       -1.51692831      -0.45301328       0.97004910
H       -1.45894795      -1.44953311      -0.50065527
H       -0.65347327      -1.96902408       0.92572458
H       -1.64778846       1.23717861      -1.05393139
H       -0.06703318       0.52231141      -1.73157415
H        1.31701267       1.03413784       1.55959198
H        1.97757704       1.12770527      -0.09798307
13
Frame=3 idx=005502 GeodesicLength=0.3490851418726884 rxn_smarts="[C:1]([C:2]([O:3][C:4]([C:5]#[N:6])([H:12])[H:13])([H:10])[H:11])([H:7])([H:8])[H:9]>>[C:1]([C:5]1=[N:6][C:2]([H:10])([H:11])[O:3][C:4]1([H:12])[H:13])([H:7])([H:8])[H:9]"
C       -0.89078798      -1.08036891       0.35921914
C       -0.61141242       0.86274780      -0.89757621
O       -0.03050249       1.48289066       0.10372509
C        1.14082162       0.80760643       0.52421953
C        0.88666239      -0.69327228       0.22155937
N        1.56655558      -1.40916705      -0.45149473
H       -1.50814749      -0.46917564       1.02038487
H       -1.52120593      -1.43801036      -0.45649569
H       -0.65803624      -1.99064624       0.90920512
H       -1.61756998       1.22004401      -1.09028736
H       -0.04468017       0.51701530      -1.75797202
H        1.29491039       1.04180469       1.57640474
H        1.99339272       1.14853157      -0.06089185
13
Frame=4 idx=005502 GeodesicLength=0.4659471167466809 rxn_smarts="[C:1]([C:2]([O:3][C:4]([C:5]#[N:6])([H:12])[H:13])([H:10])[H:11])([H:7])([H:8])[H:9]>>[C:1]([C:5]1=[N:6][C:2]([H:10])([H:11])[O:3][C:4]1([H:12])[H:13])([H:7])([H:8])[H:9]"
C       -0.90428627      -1.08356576       0.37331324
C       -0.59033369       0.82928912      -0.91227011
O       -0.02121213       1.47784517       0.08849679
C        1.14437320       0.81382085       0.53554419
C        0.90459001      -0.68505242       0.23132620
N        1.54146834      -1.36282997      -0.52091751
H       -1.49658389      -0.48785414       1.07122187
H       -1.58328041      -1.42287315      -0.41125035
H       -0.66384176      -2.01240111       0.88846745
H       -1.58756766       1.20230488      -1.12496803
H       -0.02422654       0.51345043      -1.78478425
H        1.27297697       1.04877092       1.59123987
H        2.00792382       1.16909518      -0.02541936
13
Frame=5 idx=005502 GeodesicLength=0.5828389881480711 rxn_smarts="[C:1]([C:2]([O:3][C:4]([C:5]#[N:6])([H:12])[H:13])([H:10])[H:11])([H:7])([H:8])[H:9]>>[C:1]([C:5]1=[N:6][C:2]([H:10])([H:11])[O:3][C:4]1([H:12])[H:13])([H:7])([H:8])[H:9]"
C       -0.91796571      -1.08640874       0.38604644
C       -0.56945688       0.79599113      -0.92686093
O       -0.01198664       1.47218975       0.07315477
C        1.14774834       0.81986239       0.54566082
C        0.92370606      -0.67699520       0.23884876
N        1.51737646      -1.31716365      -0.58083870
H       -1.48214816      -0.50928708       1.12250477
H       -1.64501974      -1.40378191      -0.36454197
H       -0.67123618      -2.03402157       0.86310676
H       -1.55771949       1.18384574      -1.15817389
H       -0.00546602       0.51091712      -1.81168609
H        1.25118331       1.05533792       1.60426914
H        2.02098465       1.18951410       0.00851010
13
Frame=6 idx=005502 GeodesicLength=0.6998178057175571 rxn_smarts="[C:1]([C:2]([O:3][C:4]([C:5]#[N:6])([H:12])[H:13])([H:10])[H:11])([H:7])([H:8])[H:9]>>[C:1]([C:5]1=[N:6][C:2]([H:10])([H:11])[O:3][C:4]1([H:12])[H:13])([H:7])([H:8])[H:9]"
C       -0.93206816      -1.08881024       0.39770201
C       -0.54872246       0.76287204      -0.94144706
O       -0.00291944       1.46610745       0.05765704
C        1.15097053       0.82595600       0.55469972
C        0.94392548      -0.66894152       0.24480482
N        1.49481298      -1.27275326      -0.63243466
H       -1.46495828      -0.53385503       1.17415634
H       -1.70611189      -1.38053627      -0.31611758
H       -0.68075643      -2.05546237       0.83287458
H       -1.52817794       1.16461627      -1.19003457
H        0.01175023       0.50893721      -1.83845736
H        1.22955642       1.06182563       1.61562773
H        2.03269895       1.21004408       0.04096899
13
Frame=7 idx=005502 GeodesicLength=0.81678395137574 rxn_smarts="[C:1]([C:2]([O:3][C:4]([C:5]#[N:6])([H:12])[H:13])([H:10])[H:11])([H:7])([H:8])[H:9]>>[C:1]([C:5]1=[N:6][C:2]([H:10])([H:11])[O:3][C:4]1([H:12])[H:13])([H:7])([H:8])[H:9]"
C       -0.94670963      -1.09057845       0.40850496
C       -0.52806138       0.72984443      -0.95603828
O        0.00592229       1.45962419       0.04201716
C        1.15397233       0.83222308       0.56278916
C        0.96514021      -0.66072324       0.24966805
N        1.47406810      -1.22986629      -0.67675466
H       -1.44493142      -0.56198104       1.22603035
H       -1.76623514      -1.35286477      -0.26562223
H       -0.69283084      -2.07633133       0.79740165
H       -1.49894111       1.14450970      -1.22065291
H        0.02758309       0.50686025      -1.86486217
H        1.20802577       1.06842393       1.62544863
H        2.04299772       1.23085954       0.07207029
13
Frame=8 idx=005502 GeodesicLength=0.9337608027350718 rxn_smarts="[C:1]([C:2]([O:3][C:4]([C:5]#[N:6])([H:12])[H:13])([H:10])[H:11])([H:7])([H:8])[H:9]>>[C:1]([C:5]1=[N:6][C:2]([H:10])([H:11])[O:3][C:4]1([H:12])[H:13])([H:7])([H:8])[H:9]"
C       -0.96201767      -1.09160646       0.41869952
C       -0.50746497       0.69687635      -0.97063551
O        0.01450735       1.45284364       0.02621976
C        1.15678014       0.83880174       0.57004819
C        0.98733991      -0.65223546       0.25383177
N        1.45538393      -1.18871895      -0.71464842
H       -1.42210736      -0.59424023       1.27785450
H       -1.82505833      -1.32066127      -0.21274302
H       -0.70797061      -2.09621785       0.75647663
H       -1.47011597       1.12349565      -1.25015252
H        0.04213892       0.50415710      -1.89075182
H        1.18663080       1.07530578       1.63386994
H        2.05195386       1.25219998       0.10193098
13
Frame=9 idx=005502 GeodesicLength=1.0505949778303043 rxn_smarts="[C:1]([C:2]([O:3][C:4]([C:5]#[N:6])([H:12])[H:13])([H:10])[H:11])([H:7])([H:8])[H:9]>>[C:1]([C:5]1=[N:6][C:2]([H:10])([H:11])[O:3][C:4]1([H:12])[H:13])([H:7])([H:8])[H:9]"
C       -0.97800424      -1.09161257       0.42852581
C       -0.48686623       0.66382150      -0.98511068
O        0.02281416       1.44566869       0.01032647
C        1.15923344       0.84570127       0.57655117
C        1.01039202      -0.64328015       0.25749183
N        1.43875692      -1.14930982      -0.74698187
H       -1.39638437      -0.63102804       1.32923299
H       -1.88201061      -1.28385710      -0.15700733
H       -0.72652266      -2.11425683       0.70969711
H       -1.44156274       1.10142253      -1.27848685
H        0.05567464       0.50013796      -1.91585614
H        1.16516199       1.08249239       1.64099289
H        2.05931767       1.27410015       0.13062459
13
Frame=10 idx=005502 GeodesicLength=1.167377833622432 rxn_smarts="[C:1]([C:2]([O:3][C:4]([C:5]#[N:6])([H:12])[H:13])([H:10])[H:11])([H:7])([H:8])[H:9]>>[C:1]([C:5]1=[N:6][C:2]([H:10])([H:11])[O:3][C:4]1([H:12])[H:13])([H:7])([H:8])[H:9]"
C       -0.99474307      -1.09063490       0.43824835
C       -0.46632746       0.63071336      -0.99938320
O        0.03087491       1.43830057      -0.00567383
C        1.16150018       0.85307651       0.58238741
C        1.03441849      -0.63382600       0.26092141
N        1.42432472      -1.11181641      -0.77433248
H       -1.36815977      -0.67305710       1.37949124
H       -1.93652578      -1.24270469      -0.09841604
H       -0.74916177      -2.12987285       0.65741469
H       -1.41353754       1.07831150      -1.30567307
H        0.06813688       0.49452927      -1.94012824
H        1.14384828       1.09014182       1.64692367
H        2.06535192       1.29683893       0.15822010
13
Frame=11 idx=005502 GeodesicLength=1.2840498303384098 rxn_smarts="[C:1]([C:2]([O:3][C:4]([C:5]#[N:6])([H:12])[H:13])([H:10])[H:11])([H:7])([H:8])[H:9]>>[C:1]([C:5]1=[N:6][C:2]([H:10])([H:11])[O:3][C:4]1([H:12])[H:13])([H:7])([H:8])[H:9]"
C       -1.01215605      -1.08856505       0.44809250
C       -0.44584235       0.59744301      -1.01328161
O        0.03872012       1.43072694      -0.02173545
C        1.16354620       0.86096193       0.58762382
C        1.05941687      -0.62373912       0.26424028
N        1.41203621      -1.07620788      -0.79732232
H       -1.33763703      -0.72084045       1.42784378
H       -1.98797137      -1.19739031      -0.03669512
H       -0.77633575      -2.14209760       0.59974928
H       -1.38602201       1.05405535      -1.33162642
H        0.07962596       0.48687437      -1.96342904
H        1.12264377       1.09827855       1.65175318
H        2.06997544       1.32050026       0.18478712
13
Frame=12 idx=005502 GeodesicLength=1.400714030707251 rxn_smarts="[C:1]([C:2]([O:3][C:4]([C:5]#[N:6])([H:12])[H:13])([H:10])[H:11])([H:7])([H:8])[H:9]>>[C:1]([C:5]1=[N:6][C:2]([H:10])([H:11])[O:3][C:4]1([H:12])[H:13])([H:7])([H:8])[H:9]"
C       -1.03017668      -1.08545896       0.45825474
C       -0.42545009       0.56397006      -1.02668112
O        0.04643290       1.42301700      -0.03784196
C        1.16546580       0.86942595       0.59234428
C        1.08547497      -0.61291908       0.26756187
N        1.40183349      -1.04244470      -0.81648547
H       -1.30528269      -0.77489077       1.47329847
H       -2.03576181      -1.14839005       0.02826048
H       -0.80852492      -2.15002158       0.53731594
H       -1.35911494       1.02861478      -1.35631884
H        0.09014040       0.47693615      -1.98574171
H        1.10167086       1.10691653       1.65562459
H        2.07329270       1.34524468       0.21040872
13
Frame=13 idx=005502 GeodesicLength=1.5171257325023795 rxn_smarts="[C:1]([C:2]([O:3][C:4]([C:5]#[N:6])([H:12])[H:13])([H:10])[H:11])([H:7])([H:8])[H:9]>>[C:1]([C:5]1=[N:6][C:2]([H:10])([H:11])[O:3][C:4]1([H:12])[H:13])([H:7])([H:8])[H:9]"
C       -1.04861615      -1.08127212       0.46889264
C       -0.40513631       0.53020798      -1.03927299
O        0.05399816       1.41512308      -0.05391533
C        1.16717877       0.87841467       0.59653695
C        1.11264970      -0.60125785       0.27085702
N        1.39369458      -1.01048047      -0.83231590
H       -1.27158634      -0.83518213       1.51457353
H       -2.07913993      -1.09624279       0.09670957
H       -0.84595313      -2.15256412       0.47056872
H       -1.33279836       1.00192367      -1.37943712
H        0.09981536       0.46435948      -2.00676679
H        1.08075354       1.11596052       1.65849202
H        2.07514011       1.37101009       0.23507769
13
Frame=14 idx=005502 GeodesicLength=1.633563879869457 rxn_smarts="[C:1]([C:2]([O:3][C:4]([C:5]#[N:6])([H:12])[H:13])([H:10])[H:11])([H:7])([H:8])[H:9]>>[C:1]([C:5]1=[N:6][C:2]([H:10])([H:11])[O:3][C:4]1([H:12])[H:13])([H:7])([H:8])[H:9]"
C       -1.06736283      -1.07631431       0.48002269
C       -0.38495970       0.49620079      -1.05096612
O        0.06158249       1.40714847      -0.06988818
C        1.16891989       0.88800433       0.60029304
C        1.14107400      -0.58865701       0.27414411
N        1.38743082      -0.98018258      -0.84528383
H       -1.23755865      -0.90181642       1.55036611
H       -2.11761096      -1.04195764       0.16827581
H       -0.88886814      -2.14902780       0.40117698
H       -1.30721619       0.97401538      -1.40094151
H        0.10852347       0.44924366      -2.02660637
H        1.06026852       1.12535014       1.66054841
H        2.07577728       1.39799300       0.25885886
13
Frame=15 idx=005502 GeodesicLength=1.7500166381048285 rxn_smarts="[C:1]([C:2]([O:3][C:4]([C:5]#[N:6])([H:12])[H:13])([H:10])[H:11])([H:7])([H:8])[H:9]>>[C:1]([C:5]1=[N:6][C:2]([H:10])([H:11])[O:3][C:4]1([H:12])[H:13])([H:7])([H:8])[H:9]"
C       -1.08622102      -1.07079782       0.49161427
C       -0.36490164       0.46192932      -1.06157557
O        0.06923135       1.39909943      -0.08567768
C        1.17071742       0.89817874       0.60363386
C        1.17083412      -0.57501904       0.27734223
N        1.38292040      -0.95145153      -0.85581063
H       -1.20400372      -0.97437941       1.57937338
H       -2.15063645      -0.98636599       0.24297570
H       -0.93729146      -2.13879994       0.33031072
H       -1.28234861       0.94490238      -1.42066548
H        0.11631370       0.43152229      -2.04515607
H        1.04021588       1.13496213       1.66184624
H        2.07517005       1.42621943       0.28178903
13
Frame=16 idx=005502 GeodesicLength=1.8664859690133657 rxn_smarts="[C:1]([C:2]([O:3][C:4]([C:5]#[N:6])([H:12])[H:13])([H:10])[H:11])([H:7])([H:8])[H:9]>>[C:1]([C:5]1=[N:6][C:2]([H:10])([H:11])[O:3][C:4]1([H:12])[H:13])([H:7])([H:8])[H:9]"
C       -1.10501550      -1.06499451       0.50352272
C       -0.34492973       0.42740996      -1.07098147
O        0.07696352       1.39098803      -0.10119142
C        1.17259480       0.90891332       0.60658394
C        1.20201424      -0.56026272       0.28033366
N        1.38003263      -0.92418981      -0.86429165
H       -1.17182346      -1.05222313       1.60038222
H       -2.17774652      -0.93032829       0.32075523
H       -0.99107242      -2.12154663       0.25940281
H       -1.25815648       0.91465232      -1.43851574
H        0.12324505       0.41124680      -2.06237492
H        1.02061955       1.14462832       1.66246522
H        2.07327434       1.45570635       0.30390941
