15
Frame=0 idx=008034 GeodesicLength=0.0 rxn_smarts="[C:1]([C@@:2]1([H:11])[C:3]([H:12])([H:13])[N:4]([H:14])[C@:5]1([C:6]#[N:7])[H:15])([H:8])([H:9])[H:10]>>[C:1]([C:2][C@@:5]([N:4]([C:3]([H:11])([H:12])[H:13])[H:14])([C:6]#[N:7])[H:15])([H:8])([H:9])[H:10]"
C        1.64702968      -0.60754198      -0.47377253
C        0.89571509       0.07954840       0.60671219
C       -0.51379352       1.48694030      -0.21371070
N       -1.24652198       0.81030610       0.82929724
C       -0.51697264      -0.44632814       0.90364203
C       -1.04189494      -1.44113497      -0.07170357
N       -1.44737259      -2.19565215      -0.83694445
H        1.07862216      -0.94066162      -1.35083003
H        2.52803613      -0.04512419      -0.78110251
H        2.01476346      -1.52003137       0.01711992
H        0.61409688       1.35794608       0.25164404
H       -0.61060751       1.08833271      -1.22877493
H       -0.60448114       2.57391013      -0.19691647
H       -2.23662079       0.71162073       0.65315464
H       -0.55999829      -0.91213009       1.89218510
15
Frame=1 idx=008034 GeodesicLength=0.060073046272519075 rxn_smarts="[C:1]([C@@:2]1([H:11])[C:3]([H:12])([H:13])[N:4]([H:14])[C@:5]1([C:6]#[N:7])[H:15])([H:8])([H:9])[H:10]>>[C:1]([C:2][C@@:5]([N:4]([C:3]([H:11])([H:12])[H:13])[H:14])([C:6]#[N:7])[H:15])([H:8])([H:9])[H:10]"
C        1.65082752      -0.61974101      -0.47078989
C        0.89005868       0.07703658       0.59540684
C       -0.51187144       1.49047342      -0.21024431
N       -1.24872151       0.80989477       0.82930447
C       -0.52016013      -0.44786035       0.89573026
C       -1.04819326      -1.43999321      -0.07934906
N       -1.46661663      -2.19289774      -0.83917433
H        1.08922185      -0.98112764      -1.34062607
H        2.51128452      -0.03588365      -0.79781221
H        2.04995993      -1.51048002       0.03398894
H        0.62541238       1.37515020       0.26787414
H       -0.61638148       1.10087921      -1.22833148
H       -0.61225263       2.57654018      -0.19092824
H       -2.23849283       0.71303513       0.65070074
H       -0.55407497      -0.91502589       1.88425020
15
Frame=2 idx=008034 GeodesicLength=0.12002726659258543 rxn_smarts="[C:1]([C@@:2]1([H:11])[C:3]([H:12])([H:13])[N:4]([H:14])[C@:5]1([C:6]#[N:7])[H:15])([H:8])([H:9])[H:10]>>[C:1]([C:2][C@@:5]([N:4]([C:3]([H:11])([H:12])[H:13])[H:14])([C:6]#[N:7])[H:15])([H:8])([H:9])[H:10]"
C        1.65471205      -0.63212176      -0.46754582
C        0.88429138       0.07471725       0.58365146
C       -0.50988966       1.49420141      -0.20662067
N       -1.25102467       0.80942419       0.82918092
C       -0.52339914      -0.44938621       0.88754329
C       -1.05450976      -1.43872440      -0.08741147
N       -1.48553872      -2.19006160      -0.84171056
H        1.10027999      -1.02317646      -1.32873166
H        2.49299342      -0.02776970      -0.81620853
H        2.08588566      -1.49882374       0.05123815
H        0.63661131       1.39198366       0.28470204
H       -0.62234694       1.11399966      -1.22771285
H       -0.61948792       2.57931233      -0.18426184
H       -2.24043772       0.71444841       0.64798387
H       -0.54813928      -0.91802303       1.87590369
15
Frame=3 idx=008034 GeodesicLength=0.1797838878445506 rxn_smarts="[C:1]([C@@:2]1([H:11])[C:3]([H:12])([H:13])[N:4]([H:14])[C@:5]1([C:6]#[N:7])[H:15])([H:8])([H:9])[H:10]>>[C:1]([C:2][C@@:5]([N:4]([C:3]([H:11])([H:12])[H:13])[H:14])([C:6]#[N:7])[H:15])([H:8])([H:9])[H:10]"
C        1.65868113      -0.64465862      -0.46401978
C        0.87842897       0.07260830       0.57144535
C       -0.50787266       1.49812078      -0.20285223
N       -1.25342576       0.80890094       0.82893151
C       -0.52667286      -0.45088747       0.87909211
C       -1.06080299      -1.43732124      -0.09588013
N       -1.50397206      -2.18717767      -0.84458831
H        1.11179399      -1.06660416      -1.31501727
H        2.47320044      -0.02105188      -0.83620733
H        2.12231271      -1.48503229       0.06865961
H        0.64770308       1.40842400       0.30209813
H       -0.62853778       1.12769295      -1.22691309
H       -0.62621156       2.58222964      -0.17693506
H       -2.24245257       0.71585424       0.64502956
H       -0.54217208      -0.92109750       1.86715692
15
Frame=4 idx=008034 GeodesicLength=0.2392986671052185 rxn_smarts="[C:1]([C@@:2]1([H:11])[C:3]([H:12])([H:13])[N:4]([H:14])[C@:5]1([C:6]#[N:7])[H:15])([H:8])([H:9])[H:10]>>[C:1]([C:2][C@@:5]([N:4]([C:3]([H:11])([H:12])[H:13])[H:14])([C:6]#[N:7])[H:15])([H:8])([H:9])[H:10]"
C        1.66273280      -0.65731008      -0.46019794
C        0.87249633       0.07073734       0.55879869
C       -0.50583881       1.50223480      -0.19896378
N       -1.25591666       0.80832864       0.82856790
C       -0.52996492      -0.45235277       0.87040511
C       -1.06704144      -1.43580187      -0.10473534
N       -1.52177546      -2.18432431      -0.84784017
H        1.12373858      -1.11113569      -1.29940471
H        2.45200493      -0.01597599      -0.85766776
H        2.15897154      -1.46913543       0.08602727
H        0.65871446       1.42446925       0.32002361
H       -0.63499114       1.14195763      -1.22595018
H       -0.63243844       2.58530907      -0.16898572
H       -2.24453914       0.71723127       0.64186677
H       -0.53615264      -0.92423186       1.85805623
15
Frame=5 idx=008034 GeodesicLength=0.29833922688479236 rxn_smarts="[C:1]([C@@:2]1([H:11])[C:3]([H:12])([H:13])[N:4]([H:14])[C@:5]1([C:6]#[N:7])[H:15])([H:8])([H:9])[H:10]>>[C:1]([C:2][C@@:5]([N:4]([C:3]([H:11])([H:12])[H:13])[H:14])([C:6]#[N:7])[H:15])([H:8])([H:9])[H:10]"
C        1.66683702      -0.67004811      -0.45606817
C        0.86648719       0.06912980       0.54568802
C       -0.50384749       1.50649783      -0.19496832
N       -1.25848059       0.80772946       0.82808107
C       -0.53322548      -0.45372573       0.86148186
C       -1.07308361      -1.43413340      -0.11392231
N       -1.53867474      -2.18146895      -0.85145253
H        1.13609048      -1.15635693      -1.28184711
H        2.42953971      -0.01287051      -0.88028503
H        2.19545403      -1.45130193       0.10301864
H        0.66959614       1.44007131       0.33839186
H       -0.64176248       1.15672573      -1.22476984
H       -0.63826165       2.58848808      -0.16044807
H       -2.24665276       0.71858554       0.63853248
H       -0.53001575      -0.92732220       1.84856744
15
Frame=6 idx=008034 GeodesicLength=0.35710663855532276 rxn_smarts="[C:1]([C@@:2]1([H:11])[C:3]([H:12])([H:13])[N:4]([H:14])[C@:5]1([C:6]#[N:7])[H:15])([H:8])([H:9])[H:10]>>[C:1]([C:2][C@@:5]([N:4]([C:3]([H:11])([H:12])[H:13])[H:14])([C:6]#[N:7])[H:15])([H:8])([H:9])[H:10]"
C        1.67103290      -0.68280641      -0.45162298
C        0.86045614       0.06781374       0.53215666
C       -0.50187816       1.51095105      -0.19090402
N       -1.26112721       0.80708507       0.82751050
C       -0.53647731      -0.45504077       0.85238106
C       -1.07901253      -1.43238981      -0.12345322
N       -1.55476394      -2.17876582      -0.85550063
H        1.14880562      -1.20212567      -1.26229869
H        2.40594046      -0.01180097      -0.90405479
H        2.23170302      -1.43151813       0.11954009
H        0.68045637       1.45527841       0.35719544
H       -0.64886009       1.17204324      -1.22346453
H       -0.64362808       2.59184334      -0.15136076
H       -2.24885335       0.71986220       0.63505425
H       -0.52379384      -0.93042948       1.83882162
15
Frame=7 idx=008034 GeodesicLength=0.4153470038057354 rxn_smarts="[C:1]([C@@:2]1([H:11])[C:3]([H:12])([H:13])[N:4]([H:14])[C@:5]1([C:6]#[N:7])[H:15])([H:8])([H:9])[H:10]>>[C:1]([C:2][C@@:5]([N:4]([C:3]([H:11])([H:12])[H:13])[H:14])([C:6]#[N:7])[H:15])([H:8])([H:9])[H:10]"
C        1.67525704      -0.69559633      -0.44681868
C        0.85435776       0.06675587       0.51814595
C       -0.49999695       1.51554463      -0.18674196
N       -1.26382719       0.80642176       0.82679477
C       -0.53965850      -0.45623936       0.84302367
C       -1.08466903      -1.43045400      -0.13331197
N       -1.56975515      -2.17606072      -0.85995047
H        1.16185500      -1.24825762      -1.24052316
H        2.38110969      -0.01309304      -0.92880810
H        2.26757247      -1.40982556       0.13532907
H        0.69119703       1.46997526       0.37638277
H       -0.65631981       1.18788127      -1.22188649
H       -0.64866099       2.59528319      -0.14167936
H       -2.25105217       0.72112786       0.63140657
H       -0.51740919      -0.93346320       1.82863739
15
Frame=8 idx=008034 GeodesicLength=0.47333480370260167 rxn_smarts="[C:1]([C@@:2]1([H:11])[C:3]([H:12])([H:13])[N:4]([H:14])[C@:5]1([C:6]#[N:7])[H:15])([H:8])([H:9])[H:10]>>[C:1]([C:2][C@@:5]([N:4]([C:3]([H:11])([H:12])[H:13])[H:14])([C:6]#[N:7])[H:15])([H:8])([H:9])[H:10]"
C        1.67957422      -0.70835716      -0.44165763
C        0.84824111       0.06599671       0.50370326
C       -0.49817232       1.52031705      -0.18250525
N       -1.26660697       0.80572759       0.82600685
C       -0.54281836      -0.45735601       0.83347612
C       -1.09015901      -1.42842759      -0.14353639
N       -1.58385474      -2.17345662      -0.86497040
H        1.17526147      -1.29478468      -1.21642062
H        2.35512336      -0.01677676      -0.95463260
H        2.30314303      -1.38610439       0.15031277
H        0.70194442       1.48423135       0.39596271
H       -0.66411778       1.20425897      -1.22013705
H       -0.65328949       2.59888570      -0.13141486
H       -2.25333340       0.72232198       0.62764874
H       -0.51093552      -0.93647616       1.81816435
15
Frame=9 idx=008034 GeodesicLength=0.5310338342745967 rxn_smarts="[C:1]([C@@:2]1([H:11])[C:3]([H:12])([H:13])[N:4]([H:14])[C@:5]1([C:6]#[N:7])[H:15])([H:8])([H:9])[H:10]>>[C:1]([C:2][C@@:5]([N:4]([C:3]([H:11])([H:12])[H:13])[H:14])([C:6]#[N:7])[H:15])([H:8])([H:9])[H:10]"
C        1.68395137      -0.72108792      -0.43607493
C        0.84207548       0.06549379       0.48879057
C       -0.49642432       1.52526080      -0.17816835
N       -1.26942393       0.80499014       0.82511834
C       -0.54592635      -0.45839702       0.82367346
C       -1.09541023      -1.42623262      -0.15418713
N       -1.59701567      -2.17076362      -0.87065984
H        1.18907914      -1.34184974      -1.18956139
H        2.32764681      -0.02305100      -0.98162499
H        2.33851450      -1.36012953       0.16438665
H        0.71268139       1.49795996       0.41591219
H       -0.67225382       1.22123181      -1.21813750
H       -0.65754223       2.60262168      -0.12050878
H       -2.25562273       0.72346928       0.62376377
H       -0.50432941      -0.93951602       1.80727794
15
Frame=10 idx=008034 GeodesicLength=0.5883161306147604 rxn_smarts="[C:1]([C@@:2]1([H:11])[C:3]([H:12])([H:13])[N:4]([H:14])[C@:5]1([C:6]#[N:7])[H:15])([H:8])([H:9])[H:10]>>[C:1]([C:2][C@@:5]([N:4]([C:3]([H:11])([H:12])[H:13])[H:14])([C:6]#[N:7])[H:15])([H:8])([H:9])[H:10]"
C        1.68834987      -0.73366848      -0.43012692
C        0.83590329       0.06532864       0.47341726
C       -0.49478976       1.53035069      -0.17381147
N       -1.27228871       0.80421106       0.82412888
C       -0.54894324      -0.45931337       0.81369977
C       -1.10035810      -1.42393024      -0.16511138
N       -1.60896683      -2.16825242      -0.87684282
H        1.20305018      -1.38845553      -1.16037340
H        2.29940310      -0.03214236      -1.00909154
H        2.37298987      -1.33256525       0.17712723
H        0.72342146       1.51121012       0.43612755
H       -0.68080908       1.23872016      -1.21593933
H       -0.66149070       2.60645927      -0.10909442
H       -2.25793980       0.72449838       0.61977394
H       -0.49753155      -0.94245066       1.79611664
15
Frame=11 idx=008034 GeodesicLength=0.6453511389002005 rxn_smarts="[C:1]([C@@:2]1([H:11])[C:3]([H:12])([H:13])[N:4]([H:14])[C@:5]1([C:6]#[N:7])[H:15])([H:8])([H:9])[H:10]>>[C:1]([C:2][C@@:5]([N:4]([C:3]([H:11])([H:12])[H:13])[H:14])([C:6]#[N:7])[H:15])([H:8])([H:9])[H:10]"
C        1.69280160      -0.74609162      -0.42379624
C        0.82973127       0.06551107       0.45756055
C       -0.49328634       1.53561862      -0.16941356
N       -1.27520576       0.80341073       0.82306654
C       -0.55187403      -0.46010702       0.80353421
C       -1.10501111      -1.42154005      -0.17638216
N       -1.61978293      -2.16591566      -0.88365759
H        1.21724007      -1.43472569      -1.12863651
H        2.27028629      -0.04417241      -1.03708384
H        2.40668489      -1.30332053       0.18845953
H        0.73420600       1.52400126       0.45661140
H       -0.68979271       1.25675250      -1.21352875
H       -0.66515031       2.61044588      -0.09711047
H       -2.26030755       0.72542432       0.61572063
H       -0.49053938      -0.94529142       1.78465627
15
Frame=12 idx=008034 GeodesicLength=0.7019924591077913 rxn_smarts="[C:1]([C@@:2]1([H:11])[C:3]([H:12])([H:13])[N:4]([H:14])[C@:5]1([C:6]#[N:7])[H:15])([H:8])([H:9])[H:10]>>[C:1]([C:2][C@@:5]([N:4]([C:3]([H:11])([H:12])[H:13])[H:14])([C:6]#[N:7])[H:15])([H:8])([H:9])[H:10]"
C        1.69726404      -0.75834218      -0.41705724
C        0.82351847       0.06600134       0.44116549
C       -0.49195662       1.54101901      -0.16494169
N       -1.27816228       0.80259423       0.82187351
C       -0.55468296      -0.46073532       0.79309985
C       -1.10924957      -1.41893745      -0.18801211
N       -1.62928672      -2.16359394      -0.89107045
H        1.23168130      -1.48053549      -1.09405489
H        2.24013194      -0.05939673      -1.06546578
H        2.43955795      -1.27241250       0.19810248
H        0.74496233       1.53620739       0.47733800
H       -0.69920254       1.27533403      -1.21077418
H       -0.66859833       2.61448372      -0.08449808
H       -2.26266699       0.72629833       0.61156237
H       -0.48331002      -0.94798445       1.77273272
15
Frame=13 idx=008034 GeodesicLength=0.7585702265528386 rxn_smarts="[C:1]([C@@:2]1([H:11])[C:3]([H:12])([H:13])[N:4]([H:14])[C@:5]1([C:6]#[N:7])[H:15])([H:8])([H:9])[H:10]>>[C:1]([C:2][C@@:5]([N:4]([C:3]([H:11])([H:12])[H:13])[H:14])([C:6]#[N:7])[H:15])([H:8])([H:9])[H:10]"
C        1.70177796      -0.77033532      -0.40992593
C        0.81733629       0.06684174       0.42426724
C       -0.49077019       1.54661830      -0.16045878
N       -1.28118162       0.80172948       0.82060629
C       -0.55740276      -0.46126183       0.78248757
C       -1.11320893      -1.41627042      -0.19998376
N       -1.63766021      -2.16146581      -0.89919457
H        1.24622216      -1.52564696      -1.05669566
H        2.20923210      -0.07779365      -1.09413936
H        2.47163249      -1.23996159       0.20598428
H        0.75584657       1.54793200       0.49831530
H       -0.70906761       1.29452293      -1.20781577
H       -0.67176868       2.61868507      -0.07133062
H       -2.26511627       0.72702828       0.60733330
H       -0.47587131      -0.95062222       1.76055048
15
Frame=14 idx=008034 GeodesicLength=0.8149057401561759 rxn_smarts="[C:1]([C@@:2]1([H:11])[C:3]([H:12])([H:13])[N:4]([H:14])[C@:5]1([C:6]#[N:7])[H:15])([H:8])([H:9])[H:10]>>[C:1]([C:2][C@@:5]([N:4]([C:3]([H:11])([H:12])[H:13])[H:14])([C:6]#[N:7])[H:15])([H:8])([H:9])[H:10]"
C        1.70625582      -0.78201788      -0.40242262
C        0.81111983       0.06804225       0.40685785
C       -0.48971704       1.55235155      -0.15592215
N       -1.28423692       0.80084948       0.81924526
C       -0.56001413      -0.46161176       0.77166614
C       -1.11674563      -1.41349584      -0.21230290
N       -1.64465345      -2.15949802      -0.90806414
H        1.26089211      -1.56986299      -1.01641319
H        2.17741795      -0.09959370      -1.12291068
H        2.50268580      -1.20603220       0.21173910
H        0.76677157       1.55911463       0.51958421
H       -0.71929601       1.31420519      -1.20455026
H       -0.67467345       2.62294397      -0.05754772
H       -2.26755116       0.72764348       0.60301015
H       -0.46825528      -0.95303815       1.74803095
15
Frame=15 idx=008034 GeodesicLength=0.8709496428879618 rxn_smarts="[C:1]([C@@:2]1([H:11])[C:3]([H:12])([H:13])[N:4]([H:14])[C@:5]1([C:6]#[N:7])[H:15])([H:8])([H:9])[H:10]>>[C:1]([C:2][C@@:5]([N:4]([C:3]([H:11])([H:12])[H:13])[H:14])([C:6]#[N:7])[H:15])([H:8])([H:9])[H:10]"
C        1.71068048      -0.79329934      -0.39460160
C        0.80493902       0.06963886       0.38882677
C       -0.48893928       1.55818370      -0.15148705
N       -1.28729600       0.79991566       0.81773329
C       -0.56238374      -0.46177278       0.76067105
C       -1.11981229      -1.41062937      -0.22474505
N       -1.65026629      -2.15780885      -0.91724529
H        1.27529470      -1.61197221      -0.97413989
H        2.14582489      -0.12455250      -1.15070929
H        2.53206740      -1.17188400       0.21537432
H        0.77773332       1.56974289       0.54089664
H       -0.73018853       1.33435669      -1.20103495
H       -0.67751682       2.62719271      -0.04338840
H       -2.26998366       0.72806578       0.59861478
H       -0.46015322      -0.95517722       1.73523469
15
Frame=16 idx=008034 GeodesicLength=0.9268830249846403 rxn_smarts="[C:1]([C@@:2]1([H:11])[C:3]([H:12])([H:13])[N:4]([H:14])[C@:5]1([C:6]#[N:7])[H:15])([H:8])([H:9])[H:10]>>[C:1]([C:2][C@@:5]([N:4]([C:3]([H:11])([H:12])[H:13])[H:14])([C:6]#[N:7])[H:15])([H:8])([H:9])[H:10]"
C        1.71507539      -0.80412163      -0.38651692
C        0.79878358       0.07165115       0.37019485
C       -0.48838625       1.56414294      -0.14714044
N       -1.29040091       0.79895824       0.81612253
C       -0.56457907      -0.46175030       0.74953594
C       -1.12246380      -1.40777954      -0.23733295
N       -1.65458997      -2.15655780      -0.92680374
H        1.28947943      -1.65203246      -0.92993734
H        2.11445247      -0.15254093      -1.17757846
H        2.55985845      -1.13757861       0.21682800
H        0.78878279       1.57988219       0.56232903
H       -0.74162894       1.35494163      -1.19729270
H       -0.68021417       2.63149371      -0.02883003
H       -2.27246560       0.72829422       0.59418366
H       -0.45170341      -0.95700282       1.72223858
