15
Frame=0 idx=011838 GeodesicLength=0.0 rxn_smarts="[C:1]([C:2]#[C:3][C:4]([C:5](=[O:6])[C:7]([H:13])([H:14])[H:15])([H:11])[H:12])([H:8])([H:9])[H:10]>>[C:1](=[C:2]=[C:3]1[C:4]([H:11])([H:12])[C@:5]1([O:6][H:10])[C:7]([H:13])([H:14])[H:15])([H:8])[H:9]"
C        2.16648204       0.47704274       0.11552362
C        1.38560621      -0.45300292      -0.50846201
C        0.40013596      -1.17971268      -0.70425123
C       -0.86989392      -1.54640227      -0.03187962
C       -0.74928775      -0.13684050       0.39352499
O       -0.11129115       0.22221070       1.45960095
C       -1.38749427       0.93757222      -0.43279976
H        2.43016879       1.39291168      -0.40406081
H        2.91379548       0.11123340       0.81298062
H        0.89860560       0.58435582       1.09168657
H       -0.71426939      -2.28727685       0.74718286
H       -1.70675796      -1.78647447      -0.67982825
H       -2.25319336       1.32142891       0.11275819
H       -0.68782516       1.76565728      -0.56508930
H       -1.71478113       0.57729700      -1.40688687
15
Frame=1 idx=011838 GeodesicLength=0.11965216138050953 rxn_smarts="[C:1]([C:2]#[C:3][C:4]([C:5](=[O:6])[C:7]([H:13])([H:14])[H:15])([H:11])[H:12])([H:8])([H:9])[H:10]>>[C:1](=[C:2]=[C:3]1[C:4]([H:11])([H:12])[C@:5]1([O:6][H:10])[C:7]([H:13])([H:14])[H:15])([H:8])[H:9]"
C        2.18185702       0.47090424       0.12150772
C        1.39708555      -0.45116943      -0.51360879
C        0.39763671      -1.16067213      -0.70664164
C       -0.86505281      -1.54527032      -0.03275701
C       -0.76513560      -0.13253416       0.39415997
O       -0.13884647       0.22916550       1.46733738
C       -1.40499777       0.93889363      -0.43525700
H        2.45446528       1.38393459      -0.39898246
H        2.94068959       0.08814912       0.79743211
H        0.90958875       0.58965475       1.11218579
H       -0.70310440      -2.28034306       0.75049099
H       -1.69801232      -1.79652082      -0.68155733
H       -2.27126964       1.32305331       0.10867360
H       -0.70579104       1.76647515      -0.57332731
H       -1.72911285       0.57627961      -1.40965601
15
Frame=2 idx=011838 GeodesicLength=0.23890315606309503 rxn_smarts="[C:1]([C:2]#[C:3][C:4]([C:5](=[O:6])[C:7]([H:13])([H:14])[H:15])([H:11])[H:12])([H:8])([H:9])[H:10]>>[C:1](=[C:2]=[C:3]1[C:4]([H:11])([H:12])[C@:5]1([O:6][H:10])[C:7]([H:13])([H:14])[H:15])([H:8])[H:9]"
C        2.19738698       0.46440845       0.12746182
C        1.40876615      -0.44959358      -0.51879614
C        0.39526763      -1.14133076      -0.70831219
C       -0.86011813      -1.54387782      -0.03351514
C       -0.78140037      -0.12823592       0.39491553
O       -0.16718514       0.23610924       1.47526008
C       -1.42253644       0.94022933      -0.43785902
H        2.47783725       1.37504213      -0.39367288
H        2.96817330       0.06517294       0.78031707
H        0.92120806       0.59425867       1.13369447
H       -0.69223805      -2.27303448       0.75399748
H       -1.68870499      -1.80639827      -0.68352187
H       -2.28966829       1.32462061       0.10405991
H       -0.72378118       1.76733692      -0.58130235
H       -1.74300678       0.57529254      -1.41272677
15
Frame=3 idx=011838 GeodesicLength=0.3578342753803806 rxn_smarts="[C:1]([C:2]#[C:3][C:4]([C:5](=[O:6])[C:7]([H:13])([H:14])[H:15])([H:11])[H:12])([H:8])([H:9])[H:10]>>[C:1](=[C:2]=[C:3]1[C:4]([H:11])([H:12])[C@:5]1([O:6][H:10])[C:7]([H:13])([H:14])[H:15])([H:8])[H:9]"
C        2.21313756       0.45747124       0.13339976
C        1.42064627      -0.44824589      -0.52407358
C        0.39303545      -1.12163052      -0.70926653
C       -0.85506293      -1.54219847      -0.03413916
C       -0.79809666      -0.12392715       0.39577100
O       -0.19636115       0.24307663       1.48334839
C       -1.44017222       0.94157282      -0.44061451
H        2.50041383       1.36619169      -0.38804287
H        2.99622186       0.04223473       0.76162643
H        0.93351604       0.59820864       1.15617471
H       -0.68162341      -2.26531794       0.75772399
H       -1.67879698      -1.81610796      -0.68569300
H       -2.30845187       1.32609071       0.09891712
H       -0.74188458       1.76826494      -0.58903496
H       -1.75652120       0.57431653      -1.41609678
15
Frame=4 idx=011838 GeodesicLength=0.47661934448678966 rxn_smarts="[C:1]([C:2]#[C:3][C:4]([C:5](=[O:6])[C:7]([H:13])([H:14])[H:15])([H:11])[H:12])([H:8])([H:9])[H:10]>>[C:1](=[C:2]=[C:3]1[C:4]([H:11])([H:12])[C@:5]1([O:6][H:10])[C:7]([H:13])([H:14])[H:15])([H:8])[H:9]"
C        2.22917579       0.45001455       0.13932026
C        1.43272101      -0.44710496      -0.52948132
C        0.39094951      -1.10152438      -0.70948799
C       -0.84986747      -1.54021010      -0.03461284
C       -0.81524243      -0.11959942       0.39671155
O       -0.22646461       0.25006866       1.49160207
C       -1.45795185       0.94291758      -0.44352867
H        2.52230174       1.35734696      -0.38202642
H        3.02479991       0.01929545       0.74133143
H        0.94658721       0.60156439       1.17958899
H       -0.67123568      -2.25717051       0.76168988
H       -1.66824738      -1.82564422      -0.68805027
H       -2.32767426       1.32742653       0.09323295
H       -0.76016976       1.76927678      -0.59652127
H       -1.76968173       0.57334269      -1.41976835
15
Frame=5 idx=011838 GeodesicLength=0.595167759554327 rxn_smarts="[C:1]([C:2]#[C:3][C:4]([C:5](=[O:6])[C:7]([H:13])([H:14])[H:15])([H:11])[H:12])([H:8])([H:9])[H:10]>>[C:1](=[C:2]=[C:3]1[C:4]([H:11])([H:12])[C@:5]1([O:6][H:10])[C:7]([H:13])([H:14])[H:15])([H:8])[H:9]"
C        2.24557072       0.44193364       0.14523511
C        1.44498106      -0.44611983      -0.53508889
C        0.38901795      -1.08093413      -0.70898494
C       -0.84449303      -1.53787816      -0.03491976
C       -0.83284957      -0.11523092       0.39772010
O       -0.25752512       0.25712963       1.49999588
C       -1.47594729       0.94425229      -0.44660997
H        2.54365469       1.34845126      -0.37552517
H        3.05385176      -0.00375422       0.71945241
H        0.96046706       0.60438919       1.20388565
H       -0.66100761      -2.24854861       0.76591492
H       -1.65700351      -1.83500539      -0.69056478
H       -2.34741099       1.32857590       0.08701532
H       -0.77874620       1.77039631      -0.60378823
H       -1.78255993       0.57234307      -1.42373767
15
Frame=6 idx=011838 GeodesicLength=0.7136864935464687 rxn_smarts="[C:1]([C:2]#[C:3][C:4]([C:5](=[O:6])[C:7]([H:13])([H:14])[H:15])([H:11])[H:12])([H:8])([H:9])[H:10]>>[C:1](=[C:2]=[C:3]1[C:4]([H:11])([H:12])[C@:5]1([O:6][H:10])[C:7]([H:13])([H:14])[H:15])([H:8])[H:9]"
C        2.26237590       0.43317444       0.15110827
C        1.45741787      -0.44529384      -0.54091075
C        0.38725349      -1.05983534      -0.70770305
C       -0.83893689      -1.53518702      -0.03504483
C       -0.85094310      -0.11083213       0.39879205
O       -0.28967748       0.26420531       1.50856255
C       -1.49417023       0.94557182      -0.44986158
H        2.56451634       1.33947634      -0.36852256
H        3.08332844      -0.02686996       0.69593482
H        0.97526998       0.60673751       1.22904674
H       -0.65096282      -2.23944763       0.77041337
H       -1.64502660      -1.84417025      -0.69323138
H       -2.36769357       1.32950807       0.08023225
H       -0.79762994       1.77163361      -0.61079984
H       -1.79512139       0.57132907      -1.42801606
15
Frame=7 idx=011838 GeodesicLength=0.8322821575641837 rxn_smarts="[C:1]([C:2]#[C:3][C:4]([C:5](=[O:6])[C:7]([H:13])([H:14])[H:15])([H:11])[H:12])([H:8])([H:9])[H:10]>>[C:1](=[C:2]=[C:3]1[C:4]([H:11])([H:12])[C@:5]1([O:6][H:10])[C:7]([H:13])([H:14])[H:15])([H:8])[H:9]"
C        2.27963537       0.42367788       0.15690116
C        1.47001858      -0.44462729      -0.54695562
C        0.38566839      -1.03820024      -0.70558216
C       -0.83319538      -1.53212213      -0.03497267
C       -0.86954629      -0.10641406       0.39992780
O       -0.32306703       0.27123820       1.51733151
C       -1.51262886       0.94686859      -0.45327845
H        2.58493501       1.33039111      -0.36103423
H        3.11318397      -0.05001588       0.67074363
H        0.99110235       0.60869136       1.25504810
H       -0.64112786      -2.22986713       0.77519593
H       -1.63227614      -1.85311749      -0.69606042
H       -2.38854694       1.33018664       0.07285301
H       -0.81683544       1.77300032      -0.61750778
H       -1.80731973       0.57031012      -1.43260980
15
Frame=8 idx=011838 GeodesicLength=0.9510222689343627 rxn_smarts="[C:1]([C:2]#[C:3][C:4]([C:5](=[O:6])[C:7]([H:13])([H:14])[H:15])([H:11])[H:12])([H:8])([H:9])[H:10]>>[C:1](=[C:2]=[C:3]1[C:4]([H:11])([H:12])[C@:5]1([O:6][H:10])[C:7]([H:13])([H:14])[H:15])([H:8])[H:9]"
C        2.29739479       0.41339722       0.16255727
C        1.48275786      -0.44411412      -0.55323891
C        0.38426946      -1.01600379      -0.70254314
C       -0.82727335      -1.52867036      -0.03468116
C       -0.88869675      -0.10199340       0.40112209
O       -0.35786020       0.27816086       1.52632950
C       -1.53132362       0.94813719      -0.45686497
H        2.60495137       1.32117534      -0.35307599
H        3.14337019      -0.07313549       0.64383087
H        1.00810379       0.61028792       1.28189396
H       -0.63153959      -2.21980842       0.78027577
H       -1.61870041      -1.86182347      -0.69904572
H       -2.40999195       1.33058339       0.06482453
H       -0.83637063       1.77450414      -0.62385621
H       -1.81909096       0.56930299      -1.43752790
15
Frame=9 idx=011838 GeodesicLength=1.07078149032835 rxn_smarts="[C:1]([C:2]#[C:3][C:4]([C:5](=[O:6])[C:7]([H:13])([H:14])[H:15])([H:11])[H:12])([H:8])([H:9])[H:10]>>[C:1](=[C:2]=[C:3]1[C:4]([H:11])([H:12])[C@:5]1([O:6][H:10])[C:7]([H:13])([H:14])[H:15])([H:8])[H:9]"
C        2.31566820       0.40243047       0.16781728
C        1.49559839      -0.44390003      -0.55959918
C        0.38310293      -0.99327686      -0.69824576
C       -0.82125926      -1.52486035      -0.03412806
C       -0.90847626      -0.09766149       0.40242209
O       -0.39449957       0.28466492       1.53577748
C       -1.55011858       0.94939114      -0.46062852
H        2.62432838       1.31187763      -0.34489732
H        3.17379720      -0.09591377       0.61501735
H        1.02674281       0.61160538       1.30959271
H       -0.62248437      -2.20939867       0.78566052
H       -1.60426697      -1.87022272      -0.70228601
H       -2.43201317       1.33064646       0.05595644
H       -0.85605582       1.77617040      -0.62959787
H       -1.83006391       0.56844748      -1.44286116
15
Frame=10 idx=011838 GeodesicLength=1.1906853450477635 rxn_smarts="[C:1]([C:2]#[C:3][C:4]([C:5](=[O:6])[C:7]([H:13])([H:14])[H:15])([H:11])[H:12])([H:8])([H:9])[H:10]>>[C:1](=[C:2]=[C:3]1[C:4]([H:11])([H:12])[C@:5]1([O:6][H:10])[C:7]([H:13])([H:14])[H:15])([H:8])[H:9]"
C        2.33449597       0.39064219       0.17277363
C        1.50848822      -0.44383359      -0.56618756
C        0.38215329      -0.96996504      -0.69276899
C       -0.81509804      -1.52065801      -0.03329078
C       -0.92890196      -0.09339014       0.40379392
O       -0.43299953       0.29083052       1.54556962
C       -1.56909314       0.95061280      -0.46457679
H        2.64330503       1.30243906      -0.33635711
H        3.20446901      -0.11848700       0.58430102
H        1.04693302       0.61264847       1.33816648
H       -0.61383015      -2.19855831       0.79139713
H       -1.58891546      -1.87832489      -0.70570852
H       -2.45465238       1.33036841       0.04626693
H       -0.87599765       1.77799303      -0.63480105
H       -1.84035624       0.56768251      -1.44857794
15
Frame=11 idx=011838 GeodesicLength=1.3107157757671275 rxn_smarts="[C:1]([C:2]#[C:3][C:4]([C:5](=[O:6])[C:7]([H:13])([H:14])[H:15])([H:11])[H:12])([H:8])([H:9])[H:10]>>[C:1](=[C:2]=[C:3]1[C:4]([H:11])([H:12])[C@:5]1([O:6][H:10])[C:7]([H:13])([H:14])[H:15])([H:8])[H:9]"
C        2.35388842       0.37802475       0.17732649
C        1.52138112      -0.44393277      -0.57297043
C        0.38144045      -0.94606759      -0.68595304
C       -0.80882124      -1.51606659      -0.03212952
C       -0.95002420      -0.08922028       0.40525298
O       -0.47364319       0.29651065       1.55578488
C       -1.58818753       0.95180352      -0.46871890
H        2.66181609       1.29287397      -0.32757250
H        3.23534505      -0.14072802       0.55157040
H        1.06890133       0.61345737       1.36765270
H       -0.60568762      -2.18732537       0.79752264
H       -1.57260793      -1.88609791      -0.70934150
H       -2.47790699       1.32971108       0.03564863
H       -0.89610921       1.77999155      -0.63934647
H       -1.84978456       0.56706562      -1.45472637
15
Frame=12 idx=011838 GeodesicLength=1.4307673239216727 rxn_smarts="[C:1]([C:2]#[C:3][C:4]([C:5](=[O:6])[C:7]([H:13])([H:14])[H:15])([H:11])[H:12])([H:8])([H:9])[H:10]>>[C:1](=[C:2]=[C:3]1[C:4]([H:11])([H:12])[C@:5]1([O:6][H:10])[C:7]([H:13])([H:14])[H:15])([H:8])[H:9]"
C        2.37385959       0.36459718       0.18136436
C        1.53420499      -0.44417299      -0.57993798
C        0.38097990      -0.92158262      -0.67761801
C       -0.80245698      -1.51109014      -0.03058905
C       -0.97191142      -0.08519305       0.40680758
O       -0.51673731       0.30155833       1.56648441
C       -1.60735158       0.95296571      -0.47307768
H        2.67985300       1.28319448      -0.31861584
H        3.26637229      -0.16252331       0.51667510
H        1.09290671       0.61400961       1.39811402
H       -0.59815987      -2.17573149       0.80409350
H       -1.55529444      -1.89351319      -0.71318297
H       -2.50178047       1.32864855       0.02396019
H       -0.91632403       1.78217647      -0.64312137
H       -1.85816038       0.56665647      -1.46135624
15
Frame=13 idx=011838 GeodesicLength=1.550665617215785 rxn_smarts="[C:1]([C:2]#[C:3][C:4]([C:5](=[O:6])[C:7]([H:13])([H:14])[H:15])([H:11])[H:12])([H:8])([H:9])[H:10]>>[C:1](=[C:2]=[C:3]1[C:4]([H:11])([H:12])[C@:5]1([O:6][H:10])[C:7]([H:13])([H:14])[H:15])([H:8])[H:9]"
C        2.39442204       0.35036532       0.18476042
C        1.54688265      -0.44454300      -0.58706515
C        0.38078034      -0.89650018      -0.66755747
C       -0.79603922      -1.50573262      -0.02861321
C       -0.99463838      -0.08135346       0.40845759
O       -0.56261618       0.30582778       1.57771278
C       -1.62651726       0.95410158      -0.47767125
H        2.69735616       1.27342161      -0.30961908
H        3.29750355      -0.18374638       0.47949067
H        1.11923220       0.61428409       1.42962980
H       -0.59136948      -2.16381197       0.81116245
H       -1.53691242      -1.90054489      -0.71724100
H       -2.52626312       1.32714569       0.01105701
H       -0.93655583       1.78456929      -0.64598941
H       -1.86526504       0.56651716      -1.46851415
15
Frame=14 idx=011838 GeodesicLength=1.6703360271283318 rxn_smarts="[C:1]([C:2]#[C:3][C:4]([C:5](=[O:6])[C:7]([H:13])([H:14])[H:15])([H:11])[H:12])([H:8])([H:9])[H:10]>>[C:1](=[C:2]=[C:3]1[C:4]([H:11])([H:12])[C@:5]1([O:6][H:10])[C:7]([H:13])([H:14])[H:15])([H:8])[H:9]"
C        2.41559061       0.33539422       0.18736131
C        1.55931192      -0.44503521      -0.59429981
C        0.38085486      -0.87085046      -0.65549527
C       -0.78962864      -1.50001614      -0.02611375
C       -1.01829952      -0.07776246       0.41021565
O       -0.61173882       0.30908687       1.58953562
C       -1.64558625       0.95522538      -0.48253622
H        2.71425795       1.26361799      -0.30073292
H        3.32868637      -0.20418497       0.43977909
H        1.14825709       0.61419145       1.46231046
H       -0.58549673      -2.15163087       0.81882123
H       -1.51741874      -1.90716028      -0.72150717
H       -2.55132743       1.32518434      -0.00328285
H       -0.95666767       1.78718852      -0.64778208
H       -1.87079501       0.56675162      -1.47627328
15
Frame=15 idx=011838 GeodesicLength=1.7896287016759669 rxn_smarts="[C:1]([C:2]#[C:3][C:4]([C:5](=[O:6])[C:7]([H:13])([H:14])[H:15])([H:11])[H:12])([H:8])([H:9])[H:10]>>[C:1](=[C:2]=[C:3]1[C:4]([H:11])([H:12])[C@:5]1([O:6][H:10])[C:7]([H:13])([H:14])[H:15])([H:8])[H:9]"
C        2.43738386       0.31975094       0.18897982
C        1.57137541      -0.44565463      -0.60157316
C        0.38120995      -0.84466482      -0.64110414
C       -0.78329570      -1.49396669      -0.02298946
C       -1.04300404      -0.07448836       0.41208168
O       -0.66460789       0.31109612       1.60199003
C       -1.66443137       0.95635484      -0.48771377
H        2.73042734       1.25385920      -0.29214710
H        3.35985919      -0.22358147       0.39729428
H        1.18041454       0.61360005       1.49629692
H       -0.58075399      -2.13925755       0.82717131
H       -1.49675764      -1.91333021      -0.72596863
H       -2.57692695       1.32274984      -0.01930593
H       -0.97649298       1.79005917      -0.64830499
H       -1.87439972       0.56747357      -1.48470687
15
Frame=16 idx=011838 GeodesicLength=1.9083844047982688 rxn_smarts="[C:1]([C:2]#[C:3][C:4]([C:5](=[O:6])[C:7]([H:13])([H:14])[H:15])([H:11])[H:12])([H:8])([H:9])[H:10]>>[C:1](=[C:2]=[C:3]1[C:4]([H:11])([H:12])[C@:5]1([O:6][H:10])[C:7]([H:13])([H:14])[H:15])([H:8])[H:9]"
C        2.45982779       0.30352193       0.18943086
C        1.58291362      -0.44635569      -0.60882098
C        0.38185528      -0.81798370      -0.62398899
C       -0.77711635      -1.48761682      -0.01909885
C       -1.06888559      -0.07160397       0.41405770
O       -0.72181629       0.31157928       1.61509899
C       -1.68291758       0.95751384      -0.49326882
H        2.74574796       1.24425322      -0.28400956
H        3.39094974      -0.24167973       0.35165396
H        1.21621777       0.61230776       1.53175856
H       -0.57737378      -2.12676428       0.83636424
H       -1.47486163      -1.91902985      -0.73057746
H       -2.60301586       1.31983254      -0.03733593
H       -0.99585731       1.79320828      -0.64735286
H       -1.87566777       0.56881719      -1.49391086
