16
Frame=0 idx=011354 GeodesicLength=0.0 rxn_smarts="[C:1]([c:2]1[c:3]([C:4]([H:11])([H:12])[H:13])[c:5]([H:14])[c:6]([H:15])[n:7]1[H:16])([H:8])([H:9])[H:10]>>[C:1]([C+:2]1[C@@:3]([C:4]([H:11])([H:12])[H:13])([H:14])[C-:5]=[C:6]([H:15])[N:7]1[H:16])([H:8])([H:9])[H:10]"
C       -1.27116747       1.41502724      -0.09622242
C       -0.01698238       0.61341091      -0.08740226
C        0.17760616      -0.78917631       0.03561490
C       -0.90635207      -1.76209949       0.40314600
C        1.65941609      -1.08928116       0.12333864
C        2.18521373       0.17947215      -0.07061421
N        1.20257118       1.14227440      -0.15134212
H       -1.97303120       1.03205170      -0.83907423
H       -1.07950956       2.46477388      -0.32266367
H       -1.76989976       1.36727506       0.87519996
H       -0.54800393      -2.77916404       0.24960773
H       -1.81811475      -1.61768132      -0.18153717
H       -1.16293549      -1.66035680       1.45946488
H        0.73149145      -1.13341029      -0.96630732
H        3.21785214       0.49137414      -0.12846162
H        1.37184579       2.12550990      -0.30274705
16
Frame=1 idx=011354 GeodesicLength=0.05794257010081755 rxn_smarts="[C:1]([c:2]1[c:3]([C:4]([H:11])([H:12])[H:13])[c:5]([H:14])[c:6]([H:15])[n:7]1[H:16])([H:8])([H:9])[H:10]>>[C:1]([C+:2]1[C@@:3]([C:4]([H:11])([H:12])[H:13])([H:14])[C-:5]=[C:6]([H:15])[N:7]1[H:16])([H:8])([H:9])[H:10]"
C       -1.27195008       1.41545485      -0.10370015
C       -0.01823089       0.61322019      -0.09531919
C        0.17616881      -0.79046707       0.02287219
C       -0.90524423      -1.76031359       0.40636937
C        1.65516588      -1.08613324       0.11649588
C        2.18487686       0.18094640      -0.06201913
N        1.20085223       1.14485934      -0.14266991
H       -1.97956704       1.02370557      -0.83633146
H       -1.08365359       2.46248524      -0.34523552
H       -1.76321260       1.37951369       0.87204659
H       -0.56057476      -2.77876383       0.23168469
H       -1.83007411      -1.60362447      -0.15400437
H       -1.13509478      -1.67004324       1.46986512
H        0.74189317      -1.15348755      -0.98355230
H        3.21759102       0.49213471      -0.12120996
H        1.37105409       2.13051301      -0.27529185
16
Frame=2 idx=011354 GeodesicLength=0.1158905072928196 rxn_smarts="[C:1]([c:2]1[c:3]([C:4]([H:11])([H:12])[H:13])[c:5]([H:14])[c:6]([H:15])[n:7]1[H:16])([H:8])([H:9])[H:10]>>[C:1]([C+:2]1[C@@:3]([C:4]([H:11])([H:12])[H:13])([H:14])[C-:5]=[C:6]([H:15])[N:7]1[H:16])([H:8])([H:9])[H:10]"
C       -1.27274646       1.41593343      -0.11127172
C       -0.01945901       0.61312918      -0.10286802
C        0.17472300      -0.79168564       0.01018597
C       -0.90400549      -1.75840267       0.40960701
C        1.65092410      -1.08294849       0.10929067
C        2.18440368       0.18235798      -0.05358073
N        1.19898011       1.14742736      -0.13355932
H       -1.98580155       1.01551575      -0.83375377
H       -1.08772870       2.46003659      -0.36774989
H       -1.75683182       1.39184931       0.86843753
H       -0.57370150      -2.77790360       0.21411322
H       -1.84118709      -1.58939150      -0.12599224
H       -1.10705513      -1.67987930       1.47947398
H        0.75253187      -1.17413237      -1.00051302
H        3.21715017       0.49287861      -0.11464815
H        1.36980384       2.13521534      -0.24717152
16
Frame=3 idx=011354 GeodesicLength=0.17384390568311248 rxn_smarts="[C:1]([c:2]1[c:3]([C:4]([H:11])([H:12])[H:13])[c:5]([H:14])[c:6]([H:15])[n:7]1[H:16])([H:8])([H:9])[H:10]>>[C:1]([C+:2]1[C@@:3]([C:4]([H:11])([H:12])[H:13])([H:14])[C-:5]=[C:6]([H:15])[N:7]1[H:16])([H:8])([H:9])[H:10]"
C       -1.27355612       1.41647149      -0.11890498
C       -0.02067114       0.61314140      -0.11001904
C        0.17326715      -0.79282686      -0.00243682
C       -0.90263950      -1.75637224       0.41283767
C        1.64669405      -1.07971350       0.10173874
C        2.18379984       0.18371515      -0.04526611
N        1.19695013       1.14997653      -0.12396712
H       -1.99174002       1.00749946      -0.83132240
H       -1.09171501       2.45744214      -0.39016030
H       -1.75076966       1.40427853       0.86440780
H       -0.58738276      -2.77657720       0.19685913
H       -1.85143966      -1.57497235      -0.09753058
H       -1.07884556      -1.68990428       1.48826855
H        0.76342741      -1.19536972      -1.01715245
H        3.21652843       0.49363529      -0.10870989
H        1.36809241       2.13957615      -0.21864221
16
Frame=4 idx=011354 GeodesicLength=0.231798848975493 rxn_smarts="[C:1]([c:2]1[c:3]([C:4]([H:11])([H:12])[H:13])[c:5]([H:14])[c:6]([H:15])[n:7]1[H:16])([H:8])([H:9])[H:10]>>[C:1]([C+:2]1[C@@:3]([C:4]([H:11])([H:12])[H:13])([H:14])[C-:5]=[C:6]([H:15])[N:7]1[H:16])([H:8])([H:9])[H:10]"
C       -1.27437824       1.41708232      -0.12650146
C       -0.02187130       0.61326572      -0.11669624
C        0.17180018      -0.79388188      -0.01497446
C       -0.90115867      -1.75423915       0.41600271
C        1.64247655      -1.07641112       0.09390092
C        2.18306937       0.18503323      -0.03695094
N        1.19475697       1.15251105      -0.11377025
H       -1.99738482       0.99969762      -0.82896683
H       -1.09559804       2.45473079      -0.41232420
H       -1.74504226       1.41677193       0.86005710
H       -0.60161798      -2.77478009       0.17983174
H       -1.86081362      -1.56035946      -0.06870515
H       -1.05053231      -1.70019797       1.49618469
H        0.77462870      -1.21719720      -1.03340993
H        3.21572484       0.49444135      -0.10320289
H        1.36594063       2.14353285      -0.19047480
16
Frame=5 idx=011354 GeodesicLength=0.28976905541484704 rxn_smarts="[C:1]([c:2]1[c:3]([C:4]([H:11])([H:12])[H:13])[c:5]([H:14])[c:6]([H:15])[n:7]1[H:16])([H:8])([H:9])[H:10]>>[C:1]([C+:2]1[C@@:3]([C:4]([H:11])([H:12])[H:13])([H:14])[C-:5]=[C:6]([H:15])[N:7]1[H:16])([H:8])([H:9])[H:10]"
C       -1.27521821       1.41776838      -0.13409127
C       -0.02306854       0.61349734      -0.12294461
C        0.17031924      -0.79485095      -0.02744749
C       -0.89956147      -1.75200053       0.41911379
C        1.63827706      -1.07303488       0.08574957
C        2.18221762       0.18630625      -0.02869673
N        1.19239259       1.15501236      -0.10303501
H       -2.00277217       0.99209574      -0.82669334
H       -1.09937240       2.45190198      -0.43430356
H       -1.73963421       1.42935738       0.85537693
H       -0.61640922      -2.77250067       0.16304327
H       -1.86930859      -1.54554860      -0.03948633
H       -1.02210460      -1.71076280       1.50323840
H        0.78614109      -1.23969109      -1.04926506
H        3.21473958       0.49531125      -0.09814161
H        1.36336224       2.14713886      -0.16241695
16
Frame=6 idx=011354 GeodesicLength=0.3478096380593082 rxn_smarts="[C:1]([c:2]1[c:3]([C:4]([H:11])([H:12])[H:13])[c:5]([H:14])[c:6]([H:15])[n:7]1[H:16])([H:8])([H:9])[H:10]>>[C:1]([C+:2]1[C@@:3]([C:4]([H:11])([H:12])[H:13])([H:14])[C-:5]=[C:6]([H:15])[N:7]1[H:16])([H:8])([H:9])[H:10]"
C       -1.27610353       1.41855707      -0.14159198
C       -0.02427473       0.61384450      -0.12873125
C        0.16883026      -0.79573338      -0.03985575
C       -0.89785621      -1.74967324       0.42211858
C        1.63412149      -1.06958757       0.07733529
C        2.18126839       0.18752880      -0.02040071
N        1.18985245       1.15747473      -0.09167977
H       -2.00796284       0.98473530      -0.82442651
H       -1.10307118       2.44899696      -0.45600541
H       -1.73455942       1.44204629       0.85048194
H       -0.63174512      -2.76974067       0.14640950
H       -1.87692264      -1.53053485      -0.00995015
H       -0.99361209      -1.72166208       1.50939028
H        0.79803703      -1.26289292      -1.06467528
H        3.21360438       0.49625167      -0.09333176
H        1.36039374       2.15038938      -0.13508702
16
Frame=7 idx=011354 GeodesicLength=0.40576449490590716 rxn_smarts="[C:1]([c:2]1[c:3]([C:4]([H:11])([H:12])[H:13])[c:5]([H:14])[c:6]([H:15])[n:7]1[H:16])([H:8])([H:9])[H:10]>>[C:1]([C+:2]1[C@@:3]([C:4]([H:11])([H:12])[H:13])([H:14])[C-:5]=[C:6]([H:15])[N:7]1[H:16])([H:8])([H:9])[H:10]"
C       -1.27696853       1.41938333      -0.14905236
C       -0.02546787       0.61427888      -0.13421788
C        0.16732117      -0.79651526      -0.05222711
C       -0.89606731      -1.74721910       0.42501492
C        1.62995073      -1.06599874       0.06866500
C        2.18017912       0.18873970      -0.01220013
N        1.18712683       1.15987916      -0.07972041
H       -2.01294005       0.97752164      -0.82210942
H       -1.10662115       2.44593387      -0.47752520
H       -1.72967088       1.45478337       0.84532980
H       -0.64756597      -2.76647351       0.13026658
H       -1.88354138      -1.51545286       0.01965990
H       -0.96531665      -1.73260700       1.51455287
H        0.81031756      -1.28690481      -1.07952103
H        3.21221402       0.49732045      -0.08931271
H        1.35705037       2.15333087      -0.10760282
16
Frame=8 idx=011354 GeodesicLength=0.46370593918716174 rxn_smarts="[C:1]([c:2]1[c:3]([C:4]([H:11])([H:12])[H:13])[c:5]([H:14])[c:6]([H:15])[n:7]1[H:16])([H:8])([H:9])[H:10]>>[C:1]([C+:2]1[C@@:3]([C:4]([H:11])([H:12])[H:13])([H:14])[C-:5]=[C:6]([H:15])[N:7]1[H:16])([H:8])([H:9])[H:10]"
C       -1.27782773       1.42029059      -0.15659325
C       -0.02669195       0.61481930      -0.13927991
C        0.16575613      -0.79719665      -0.06461263
C       -0.89412933      -1.74467253       0.42790591
C        1.62574659      -1.06230151       0.05944982
C        2.17891331       0.18991744      -0.00422560
N        1.18418172       1.16221377      -0.06739745
H       -2.01767827       0.97044954      -0.81988046
H       -1.10998657       2.44272339      -0.49907287
H       -1.72505081       1.46773190       0.83976252
H       -0.66409594      -2.76263520       0.11409626
H       -1.88931544      -1.50004279       0.05012050
H       -0.93655425      -1.74413090       1.51889570
H        0.82281922      -1.31170651      -1.09392578
H        3.21059455       0.49856470      -0.08520500
H        1.35331878       2.15597545      -0.08003777
16
Frame=9 idx=011354 GeodesicLength=0.5217320617454879 rxn_smarts="[C:1]([c:2]1[c:3]([C:4]([H:11])([H:12])[H:13])[c:5]([H:14])[c:6]([H:15])[n:7]1[H:16])([H:8])([H:9])[H:10]>>[C:1]([C+:2]1[C@@:3]([C:4]([H:11])([H:12])[H:13])([H:14])[C-:5]=[C:6]([H:15])[N:7]1[H:16])([H:8])([H:9])[H:10]"
C       -1.27873911       1.42130019      -0.16415041
C       -0.02794948       0.61546056      -0.14402888
C        0.16416332      -0.79778473      -0.07703133
C       -0.89206612      -1.74201557       0.43073149
C        1.62158506      -1.05850004       0.04978920
C        2.17755039       0.19104193       0.00355954
N        1.18103940       1.16445815      -0.05465577
H       -2.02232479       0.96355338      -0.81763878
H       -1.11325917       2.43939698      -0.52058900
H       -1.72067861       1.48089900       0.83392662
H       -0.68121922      -2.75824141       0.09812640
H       -1.89416451      -1.48440590       0.08105839
H       -0.90763660      -1.75599502       1.52234587
H        0.83569123      -1.33744895      -1.10780990
H        3.20881670       0.49994730      -0.08129192
H        1.34919152       2.15833414      -0.05234151
16
Frame=10 idx=011354 GeodesicLength=0.5797949684900054 rxn_smarts="[C:1]([c:2]1[c:3]([C:4]([H:11])([H:12])[H:13])[c:5]([H:14])[c:6]([H:15])[n:7]1[H:16])([H:8])([H:9])[H:10]>>[C:1]([C+:2]1[C@@:3]([C:4]([H:11])([H:12])[H:13])([H:14])[C-:5]=[C:6]([H:15])[N:7]1[H:16])([H:8])([H:9])[H:10]"
C       -1.27968183       1.42240353      -0.17166982
C       -0.02924402       0.61620228      -0.14849519
C        0.16253060      -0.79826860      -0.08950649
C       -0.88988625      -1.73924931       0.43344744
C        1.61743340      -1.05456018       0.03969799
C        2.17605803       0.19213677       0.01120198
N        1.17768390       1.16660944      -0.04153647
H       -2.02689156       0.95683567      -0.81528449
H       -1.11642695       2.43595010      -0.54200641
H       -1.71647804       1.49425201       0.82788453
H       -0.69895503      -2.75326209       0.08232909
H       -1.89804840      -1.46855507       0.11242875
H       -0.87860595      -1.76822002       1.52482287
H        0.84897183      -1.36419229      -1.12107109
H        3.20684562       0.50150641      -0.07741840
H        1.34469465       2.16041134      -0.02482429
16
Frame=11 idx=011354 GeodesicLength=0.6378872011112383 rxn_smarts="[C:1]([c:2]1[c:3]([C:4]([H:11])([H:12])[H:13])[c:5]([H:14])[c:6]([H:15])[n:7]1[H:16])([H:8])([H:9])[H:10]>>[C:1]([C+:2]1[C@@:3]([C:4]([H:11])([H:12])[H:13])([H:14])[C-:5]=[C:6]([H:15])[N:7]1[H:16])([H:8])([H:9])[H:10]"
C       -1.28065861       1.42360196      -0.17910160
C       -0.03058147       0.61704681      -0.15270349
C        0.16085416      -0.79863959      -0.10205841
C       -0.88759924      -1.73637370       0.43601180
C        1.61328473      -1.05045917       0.02919408
C        2.17442835       0.19321279       0.01875326
N        1.17410875       1.16866299      -0.02807970
H       -2.03141170       0.95030993      -0.81273965
H       -1.11950817       2.43239134      -0.56326246
H       -1.71241071       1.50776899       0.82170400
H       -0.71730826      -2.74767151       0.06668404
H       -1.90093631      -1.45250079       0.14416869
H       -0.84951802      -1.78081940       1.52626360
H        0.86272064      -1.39200956      -1.13360369
H        3.20467728       0.50325443      -0.07348872
H        1.33985858       2.16222449       0.00225827
16
Frame=12 idx=011354 GeodesicLength=0.696009604749118 rxn_smarts="[C:1]([c:2]1[c:3]([C:4]([H:11])([H:12])[H:13])[c:5]([H:14])[c:6]([H:15])[n:7]1[H:16])([H:8])([H:9])[H:10]>>[C:1]([C+:2]1[C@@:3]([C:4]([H:11])([H:12])[H:13])([H:14])[C-:5]=[C:6]([H:15])[N:7]1[H:16])([H:8])([H:9])[H:10]"
C       -1.28167560       1.42489740      -0.18642543
C       -0.03196820       0.61799611      -0.15669827
C        0.15913017      -0.79889038      -0.11471745
C       -0.88520858      -1.73338271       0.43839869
C        1.60913546      -1.04617828       0.01826423
C        2.17265570       0.19427521       0.02622550
N        1.17030970       1.17061405      -0.01435775
H       -2.03592036       0.94398251      -0.80995238
H       -1.12252574       2.42872677      -0.58433439
H       -1.70844042       1.52144127       0.81542388
H       -0.73628233      -2.74144127       0.05119135
H       -1.90279837      -1.43625143       0.17624267
H       -0.82040586      -1.79378848       1.52662378
H        0.87698578      -1.42099120      -1.14530167
H        3.20231074       0.50519589      -0.06945694
H        1.33469792       2.16379454       0.02887416
16
Frame=13 idx=011354 GeodesicLength=0.7541640889383324 rxn_smarts="[C:1]([c:2]1[c:3]([C:4]([H:11])([H:12])[H:13])[c:5]([H:14])[c:6]([H:15])[n:7]1[H:16])([H:8])([H:9])[H:10]>>[C:1]([C+:2]1[C@@:3]([C:4]([H:11])([H:12])[H:13])([H:14])[C-:5]=[C:6]([H:15])[N:7]1[H:16])([H:8])([H:9])[H:10]"
C       -1.28274080       1.42629222      -0.19362121
C       -0.03341050       0.61905330      -0.16053031
C        0.15735401      -0.79901295      -0.12752084
C       -0.88271618      -1.73026837       0.44058206
C        1.60498169      -1.04169949       0.00687996
C        2.17073378       0.19532648       0.03362494
N        1.16628438       1.17245961      -0.00045197
H       -2.04045369       0.93786125      -0.80687028
H       -1.12550910       2.42496475      -0.60519719
H       -1.70452993       1.53525729       0.80908417
H       -0.75587651      -2.73454229       0.03585747
H       -1.90360320      -1.41981753       0.20861268
H       -0.79130031      -1.80711370       1.52585941
H        0.89181454      -1.45123141      -1.15604908
H        3.19974671       0.50733042      -0.06526484
H        1.32922511       2.16514044       0.05500502
16
Frame=14 idx=011354 GeodesicLength=0.8123543616833583 rxn_smarts="[C:1]([c:2]1[c:3]([C:4]([H:11])([H:12])[H:13])[c:5]([H:14])[c:6]([H:15])[n:7]1[H:16])([H:8])([H:9])[H:10]>>[C:1]([C+:2]1[C@@:3]([C:4]([H:11])([H:12])[H:13])([H:14])[C-:5]=[C:6]([H:15])[N:7]1[H:16])([H:8])([H:9])[H:10]"
C       -1.28386353       1.42778895      -0.20068563
C       -0.03491480       0.62022184      -0.16426663
C        0.15551980      -0.79899943      -0.14051568
C       -0.88011934      -1.72701748       0.44254404
C        1.60081971      -1.03700520      -0.00501379
C        2.16865605       0.19636603       0.04093406
N        1.16203243       1.17419824       0.01353299
H       -2.04504884       0.93195108      -0.80345309
H       -1.12849048       2.42111232      -0.62584678
H       -1.70063993       1.54921077       0.80270855
H       -0.77608828      -2.72694329       0.02070395
H       -1.90331653      -1.40320607       0.24125526
H       -0.76221640      -1.82076750       1.52393470
H        0.90724673      -1.48283414      -1.16572082
H        3.19698721       0.50965293      -0.06087414
H        1.32343621       2.16627094       0.08076300
16
Frame=15 idx=011354 GeodesicLength=0.8705831573822965 rxn_smarts="[C:1]([c:2]1[c:3]([C:4]([H:11])([H:12])[H:13])[c:5]([H:14])[c:6]([H:15])[n:7]1[H:16])([H:8])([H:9])[H:10]>>[C:1]([C+:2]1[C@@:3]([C:4]([H:11])([H:12])[H:13])([H:14])[C-:5]=[C:6]([H:15])[N:7]1[H:16])([H:8])([H:9])[H:10]"
C       -1.28505531       1.42939085      -0.20760036
C       -0.03648724       0.62150740      -0.16797627
C        0.15362011      -0.79884023      -0.15375560
C       -0.87741544      -1.72361663       0.44425828
C        1.59664409      -1.03207677      -0.01748187
C        2.16641380       0.19739032       0.04814848
N        1.15755558       1.17583117       0.02749272
H       -2.04974415       0.92626376      -0.79964883
H       -1.13151235       2.41718390      -0.64625188
H       -1.69672940       1.56328183       0.79633870
H       -0.79690546      -2.71861589       0.00575519
H       -1.90190202      -1.38643143       0.27412305
H       -0.73317924      -1.83471080       1.52080678
H        0.92332672      -1.51590100      -1.17417388
H        3.19403618       0.51215099      -0.05620672
H        1.31733414       2.16719254       0.10617222
16
Frame=16 idx=011354 GeodesicLength=0.9288535637985065 rxn_smarts="[C:1]([c:2]1[c:3]([C:4]([H:11])([H:12])[H:13])[c:5]([H:14])[c:6]([H:15])[n:7]1[H:16])([H:8])([H:9])[H:10]>>[C:1]([C+:2]1[C@@:3]([C:4]([H:11])([H:12])[H:13])([H:14])[C-:5]=[C:6]([H:15])[N:7]1[H:16])([H:8])([H:9])[H:10]"
C       -1.28632835       1.43110315      -0.21435515
C       -0.03813521       0.62291738      -0.17172963
C        0.15164482      -0.79852488      -0.16729898
C       -0.87459684      -1.72005075       0.44570063
C        1.59244631      -1.02689516      -0.03061061
C        2.16399409       0.19839099       0.05525807
N        1.15285636       1.17736203       0.04131011
H       -2.05457632       0.92080768      -0.79540623
H       -1.13462037       2.41319191      -0.66639916
H       -1.69275546       1.57746283       0.79000622
H       -0.81831312      -2.70952928      -0.00896620
H       -1.89931761      -1.36950220       0.30718159
H       -0.70419792      -1.84890858       1.51643249
H        0.94009516      -1.55053076      -1.18124666
H        3.19089459       0.51480282      -0.05119039
H        1.31090987       2.16790284       0.13131391
