16
Frame=0 idx=003234 GeodesicLength=0.0 rxn_smarts="[C:1]([O:2][C@@:3]1([H:10])[C:4]([H:11])([H:12])[C@:5]1([C:6]([H:14])([H:15])[H:16])[H:13])([H:7])([H:8])[H:9]>>[C:1]([O:2][C:3]([C:6]([C:5](=[C:4]([H:11])[H:12])[H:13])([H:14])[H:16])([H:10])[H:15])([H:7])([H:8])[H:9]"
C       -2.24663236      -1.48424543       0.56593830
O       -1.19071607      -1.61795121      -0.36559569
C       -0.55075996      -0.48724617      -0.76809946
C        1.90490705       2.08097789      -0.40929283
C        1.67443219       0.80426744      -0.67955697
C        0.99494392      -0.11896635       0.26515820
H       -2.72609666      -2.45755475       0.66852649
H       -2.98195567      -0.75100160       0.21911187
H       -1.85906116      -1.16557051       1.54234455
H       -1.18886310       0.41896098      -0.75924394
H        1.62601288       2.51813299       0.54417016
H        2.37314978       2.73653360      -1.13255322
H        1.92764579       0.38073676      -1.64394465
H        1.34143951      -1.14560891       0.22464755
H       -0.22578221       0.05053504       0.42396114
H        1.12733604       0.23800019       1.30442854
16
Frame=1 idx=003234 GeodesicLength=0.15142248539936426 rxn_smarts="[C:1]([O:2][C@@:3]1([H:10])[C:4]([H:11])([H:12])[C@:5]1([C:6]([H:14])([H:15])[H:16])[H:13])([H:7])([H:8])[H:9]>>[C:1]([O:2][C:3]([C:6]([C:5](=[C:4]([H:11])[H:12])[H:13])([H:14])[H:16])([H:10])[H:15])([H:7])([H:8])[H:9]"
C       -2.21593843      -1.49320345       0.56020487
O       -1.24412401      -1.53565715      -0.46011476
C       -0.52878559      -0.42562456      -0.77519449
C        1.83549943       2.06830177      -0.45149257
C        1.68058670       0.76256134      -0.65252484
C        0.98348828      -0.12259844       0.31651781
H       -2.74561416      -2.44544706       0.56555930
H       -2.92964450      -0.68141257       0.38542240
H       -1.72990267      -1.33728070       1.53253030
H       -1.16179228       0.47981581      -0.83826375
H        1.56440404       2.53321395       0.49098218
H        2.33825026       2.69542711      -1.17680795
H        1.98164700       0.30266675      -1.58600847
H        1.30283154      -1.15880489       0.29832289
H       -0.24536679       0.09672199       0.44611489
H        1.11446118       0.26132010       1.34475219
16
Frame=2 idx=003234 GeodesicLength=0.3041852092803188 rxn_smarts="[C:1]([O:2][C@@:3]1([H:10])[C:4]([H:11])([H:12])[C@:5]1([C:6]([H:14])([H:15])[H:16])[H:13])([H:7])([H:8])[H:9]>>[C:1]([O:2][C:3]([C:6]([C:5](=[C:4]([H:11])[H:12])[H:13])([H:14])[H:16])([H:10])[H:15])([H:7])([H:8])[H:9]"
C       -2.18375929      -1.50722551       0.55259665
O       -1.30116809      -1.43872219      -0.53903123
C       -0.51159882      -0.36203135      -0.77586662
C        1.77877486       2.04926114      -0.49380360
C        1.68199196       0.72378917      -0.62394098
C        0.96582412      -0.12000631       0.36889152
H       -2.76602842      -2.42433558       0.46977150
H       -2.86131493      -0.64689605       0.55932175
H       -1.60691461      -1.51500208       1.48742205
H       -1.12984815       0.54244272      -0.92064627
H        1.51388387       2.54672406       0.43377796
H        2.31028563       2.64822235      -1.22257673
H        2.02293215       0.22888446      -1.52527365
H        1.25562479      -1.16525438       0.37345243
H       -0.26854334       0.14994877       0.47086257
H        1.09985825       0.29020080       1.38504264
16
Frame=3 idx=003234 GeodesicLength=0.4580076921295818 rxn_smarts="[C:1]([O:2][C@@:3]1([H:10])[C:4]([H:11])([H:12])[C@:5]1([C:6]([H:14])([H:15])[H:16])[H:13])([H:7])([H:8])[H:9]>>[C:1]([O:2][C:3]([C:6]([C:5](=[C:4]([H:11])[H:12])[H:13])([H:14])[H:16])([H:10])[H:15])([H:7])([H:8])[H:9]"
C       -2.15019949      -1.52549032       0.54285176
O       -1.36191235      -1.32785894      -0.59904345
C       -0.49984929      -0.29615286      -0.76979967
C        1.73331332       2.02525115      -0.53516745
C        1.67830634       0.68715778      -0.59475895
C        0.94308574      -0.11176995       0.42190936
H       -2.78463018      -2.39667469       0.38409723
H       -2.78020738      -0.65012142       0.73400400
H       -1.49229321      -1.68927932       1.40753504
H       -1.09124296       0.60561671      -1.00594139
H        1.47273380       2.55824479       0.37378078
H        2.28869312       2.59514762      -1.26954161
H        2.05155044       0.15799467      -1.46318263
H        1.20140582      -1.16517097       0.44922884
H       -0.29412894       0.20960206       0.49904920
H        1.08537522       0.32350369       1.42497894
16
Frame=4 idx=003234 GeodesicLength=0.6117789685405034 rxn_smarts="[C:1]([O:2][C@@:3]1([H:10])[C:4]([H:11])([H:12])[C@:5]1([C:6]([H:14])([H:15])[H:16])[H:13])([H:7])([H:8])[H:9]>>[C:1]([O:2][C:3]([C:6]([C:5](=[C:4]([H:11])[H:12])[H:13])([H:14])[H:16])([H:10])[H:15])([H:7])([H:8])[H:9]"
C       -2.11532740      -1.54634025       0.53123093
O       -1.42721357      -1.20521515      -0.63708510
C       -0.49324416      -0.23027590      -0.75837375
C        1.69660796       1.99792801      -0.57394644
C        1.66922676       0.65243153      -0.56550290
C        0.91595363      -0.09872992       0.47497628
H       -2.80105651      -2.36374027       0.31218474
H       -2.68672399      -0.68918187       0.90389736
H       -1.38577899      -1.85179464       1.29429698
H       -1.04349788       0.66369098      -1.09713598
H        1.44109593       2.56726340       0.31424852
H        2.27159408       2.53778522      -1.31607292
H        2.06702434       0.08995830      -1.40147489
H        1.14186004      -1.15906670       0.52537400
H       -0.32145766       0.27521605       0.52918219
H        1.07093741       0.36007122       1.46420097
16
Frame=5 idx=003234 GeodesicLength=0.7637636236102575 rxn_smarts="[C:1]([O:2][C@@:3]1([H:10])[C:4]([H:11])([H:12])[C@:5]1([C:6]([H:14])([H:15])[H:16])[H:13])([H:7])([H:8])[H:9]>>[C:1]([O:2][C:3]([C:6]([C:5](=[C:4]([H:11])[H:12])[H:13])([H:14])[H:16])([H:10])[H:15])([H:7])([H:8])[H:9]"
C       -2.08014683      -1.56813927       0.51685905
O       -1.49567925      -1.07235284      -0.64902162
C       -0.49116555      -0.16483147      -0.74072398
C        1.66530267       1.96852383      -0.61094225
C        1.65510346       0.61953912      -0.53683669
C        0.88678036      -0.08127867       0.52828592
H       -2.81734386      -2.32484709       0.25209104
H       -2.58018919      -0.76114942       1.06388813
H       -1.29165901      -1.99916380       1.14983075
H       -0.98679019       0.70985874      -1.19298952
H        1.41546466       2.57424643       0.25458230
H        2.25775847       2.47695622      -1.36160324
H        2.07087984       0.02452301      -1.34090208
H        1.08075024      -1.14697853       0.60194553
H       -0.34840603       0.34562621       0.56278766
H        1.05934023       0.39946754       1.50274900
16
Frame=6 idx=003234 GeodesicLength=0.9115834716454922 rxn_smarts="[C:1]([O:2][C@@:3]1([H:10])[C:4]([H:11])([H:12])[C@:5]1([C:6]([H:14])([H:15])[H:16])[H:13])([H:7])([H:8])[H:9]>>[C:1]([O:2][C:3]([C:6]([C:5](=[C:4]([H:11])[H:12])[H:13])([H:14])[H:16])([H:10])[H:15])([H:7])([H:8])[H:9]"
C       -2.04581902      -1.58785672       0.49858814
O       -1.56374346      -0.93333381      -0.63261985
C       -0.49157216      -0.10211630      -0.71729774
C        1.63548653       1.93829069      -0.64549860
C        1.63679942       0.58889440      -0.50868387
C        0.85823592      -0.06063746       0.58185448
H       -2.83561433      -2.27762252       0.20450976
H       -2.46003122      -0.85998937       1.20544575
H       -1.21488078      -2.12542929       0.97699455
H       -0.92299956       0.73363183      -1.29144601
H        1.39551227       2.57892614       0.19744194
H        2.24089733       2.41506960      -1.40670327
H        2.06506009      -0.03711424      -1.28204350
H        1.02275982      -1.12986309       0.67895900
H       -0.37254419       0.41896274       0.59981454
H        1.05245334       0.44018740       1.54068468
16
Frame=7 idx=003234 GeodesicLength=1.054732141722519 rxn_smarts="[C:1]([O:2][C@@:3]1([H:10])[C:4]([H:11])([H:12])[C@:5]1([C:6]([H:14])([H:15])[H:16])[H:13])([H:7])([H:8])[H:9]>>[C:1]([O:2][C:3]([C:6]([C:5](=[C:4]([H:11])[H:12])[H:13])([H:14])[H:16])([H:10])[H:15])([H:7])([H:8])[H:9]"
C       -2.01447170      -1.60311984       0.47475782
O       -1.62667464      -0.79192302      -0.58732787
C       -0.49251835      -0.04285181      -0.68663617
C        1.60389380       1.90842070      -0.67851864
C        1.61619419       0.56122557      -0.48092374
C        0.83412661      -0.03792933       0.63647533
H       -2.85789544      -2.21970911       0.16713989
H       -2.32960380      -0.98086388       1.32034072
H       -1.16206760      -2.22622300       0.78040248
H       -0.85515256       0.72515325      -1.38826363
H        1.37755361       2.58213961       0.14221705
H        2.21677235       2.35415590      -1.45268823
H        2.05297203      -0.09360122      -1.22510874
H        0.97352262      -1.10890147       0.75670142
H       -0.39078851       0.49302982       0.64270311
H        1.05413737       0.48099781       1.57872922
16
Frame=8 idx=003234 GeodesicLength=1.1948374873422656 rxn_smarts="[C:1]([O:2][C@@:3]1([H:10])[C:4]([H:11])([H:12])[C@:5]1([C:6]([H:14])([H:15])[H:16])[H:13])([H:7])([H:8])[H:9]>>[C:1]([O:2][C:3]([C:6]([C:5](=[C:4]([H:11])[H:12])[H:13])([H:14])[H:16])([H:10])[H:15])([H:7])([H:8])[H:9]"
C       -1.98921104      -1.60931587       0.44445425
O       -1.67413845      -0.65885733      -0.52078763
C       -0.48906230       0.00957362      -0.64930347
C        1.56691100       1.88064771      -0.70839698
C        1.59661582       0.53807939      -0.45300192
C        0.81960139      -0.01626041       0.69143348
H       -2.88629271      -2.14677486       0.14027863
H       -2.19667928      -1.10947188       1.39789001
H       -1.14345094      -2.29925317       0.57309160
H       -0.78459808       0.67582559      -1.47479987
H        1.35496115       2.58468553       0.09040967
H        2.17536323       2.29896606      -1.50115606
H        2.03993502      -0.14095362      -1.17115695
H        0.94143091      -1.08731235       0.83252720
H       -0.39918141       0.56220197       0.69194937
H        1.06779569       0.51821962       1.61656866
16
Frame=9 idx=003234 GeodesicLength=1.3363292213453832 rxn_smarts="[C:1]([O:2][C@@:3]1([H:10])[C:4]([H:11])([H:12])[C@:5]1([C:6]([H:14])([H:15])[H:16])[H:13])([H:7])([H:8])[H:9]>>[C:1]([O:2][C:3]([C:6]([C:5](=[C:4]([H:11])[H:12])[H:13])([H:14])[H:16])([H:10])[H:15])([H:7])([H:8])[H:9]"
C       -1.96888170      -1.60723556       0.40776137
O       -1.70568255      -0.53846566      -0.44252083
C       -0.48241059       0.05764479      -0.60785065
C        1.52454970       1.85463274      -0.73622108
C        1.57824015       0.51908908      -0.42499451
C        0.81263381       0.00461976       0.74636542
H       -2.91579459      -2.06493072       0.12473423
H       -2.06601977      -1.24099244       1.43666645
H       -1.15224009      -2.34098708       0.36136181
H       -0.71671340       0.58860665      -1.54334740
H        1.33026402       2.58649187       0.04186022
H        2.12113605       2.24754572      -1.55064358
H        2.02720212      -0.18038892      -1.11969640
H        0.92349832      -1.06542031       0.90672115
H       -0.40022806       0.62725741       0.74593932
H        1.09044659       0.55253268       1.65386448
16
Frame=10 idx=003234 GeodesicLength=1.4813104444106502 rxn_smarts="[C:1]([O:2][C@@:3]1([H:10])[C:4]([H:11])([H:12])[C@:5]1([C:6]([H:14])([H:15])[H:16])[H:13])([H:7])([H:8])[H:9]>>[C:1]([O:2][C:3]([C:6]([C:5](=[C:4]([H:11])[H:12])[H:13])([H:14])[H:16])([H:10])[H:15])([H:7])([H:8])[H:9]"
C       -1.95173220      -1.59836222       0.36598114
O       -1.72246709      -0.43485470      -0.36257912
C       -0.47322181       0.10265222      -0.56620417
C        1.47887004       1.82964618      -0.76183493
C        1.56122236       0.50343724      -0.39663149
C        0.81029500       0.02499834       0.80046324
H       -2.94228728      -1.98067068       0.12266275
H       -1.93767398      -1.36929988       1.43826061
H       -1.18346569      -2.35351319       0.15029695
H       -0.65438116       0.47379907      -1.58666262
H        1.30535808       2.58745029      -0.00385788
H        2.05755191       2.19789729      -1.60048178
H        2.01590769      -0.21348401      -1.06957081
H        0.91557799      -1.04332138       0.97917171
H       -0.39716086       0.68886655       0.80102884
H        1.11760699       0.58475888       1.68995756
16
Frame=11 idx=003234 GeodesicLength=1.630817023733911 rxn_smarts="[C:1]([O:2][C@@:3]1([H:10])[C:4]([H:11])([H:12])[C@:5]1([C:6]([H:14])([H:15])[H:16])[H:13])([H:7])([H:8])[H:9]>>[C:1]([O:2][C:3]([C:6]([C:5](=[C:4]([H:11])[H:12])[H:13])([H:14])[H:16])([H:10])[H:15])([H:7])([H:8])[H:9]"
C       -1.93402532      -1.58508911       0.32058968
O       -1.72861038      -0.34797663      -0.28609447
C       -0.46395163       0.14715073      -0.52759071
C        1.43298616       1.80330564      -0.78504562
C        1.54345235       0.48867542      -0.36846779
C        0.80765840       0.04592979       0.85248806
H       -2.95901093      -1.90363672       0.13477737
H       -1.80873614      -1.49156151       1.40596070
H       -1.22720375      -2.33697580      -0.05591460
H       -0.60050457       0.34762596      -1.60145395
H        1.28370583       2.58571173      -0.04706259
H        1.99109174       2.14511368      -1.64845583
H        2.00315586      -0.24438994      -1.02041770
H        0.91041655      -1.01989809       1.04953147
H       -0.39401285       0.74983418       0.85357210
H        1.14358868       0.61618066       1.72358389
16
Frame=12 idx=003234 GeodesicLength=1.78531160994382 rxn_smarts="[C:1]([O:2][C@@:3]1([H:10])[C:4]([H:11])([H:12])[C@:5]1([C:6]([H:14])([H:15])[H:16])[H:13])([H:7])([H:8])[H:9]>>[C:1]([O:2][C:3]([C:6]([C:5](=[C:4]([H:11])[H:12])[H:13])([H:14])[H:16])([H:10])[H:15])([H:7])([H:8])[H:9]"
C       -1.91814235      -1.56989186       0.27386936
O       -1.72522052      -0.27854542      -0.21688646
C       -0.45091568       0.18339056      -0.49586735
C        1.38807539       1.77699268      -0.80581520
C        1.52783656       0.47599758      -0.33925405
C        0.80537955       0.06715569       0.90243393
H       -2.97106769      -1.82947039       0.16969046
H       -1.67402531      -1.60989026       1.34210308
H       -1.29585286      -2.30181999      -0.25848851
H       -0.55020044       0.22034223      -1.59211594
H        1.25912942       2.58315808      -0.08982641
H        1.92392707       2.09191198      -1.69323208
H        1.99575197      -0.27101787      -0.96930976
H        0.91135080      -0.99513894       1.11955951
H       -0.39152932       0.80834600       0.89790601
H        1.16550340       0.64847994       1.75523343
16
Frame=13 idx=003234 GeodesicLength=1.943510829152746 rxn_smarts="[C:1]([O:2][C@@:3]1([H:10])[C:4]([H:11])([H:12])[C@:5]1([C:6]([H:14])([H:15])[H:16])[H:13])([H:7])([H:8])[H:9]>>[C:1]([O:2][C:3]([C:6]([C:5](=[C:4]([H:11])[H:12])[H:13])([H:14])[H:16])([H:10])[H:15])([H:7])([H:8])[H:9]"
C       -1.90352999      -1.55352463       0.22757570
O       -1.71332250      -0.22431669      -0.15622622
C       -0.43299058       0.20927755      -0.47159131
C        1.34512260       1.75017372      -0.82375835
C        1.51510654       0.46518220      -0.30880708
C        0.80321689       0.08786986       0.95005267
H       -2.97324528      -1.76018612       0.22791794
H       -1.53741386      -1.72360909       1.24685194
H       -1.39203682      -2.24981065      -0.45022424
H       -0.50047821       0.09942809      -1.56605253
H        1.22809745       2.57905275      -0.13215849
H        1.85715947       2.03829493      -1.73395233
H        1.99487916      -0.29296915      -0.91637286
H        0.91723945      -0.96956585       1.18865406
H       -0.38986868       0.86358928       0.93283564
H        1.18206437       0.68111380       1.78525545
16
Frame=14 idx=003234 GeodesicLength=2.1020999289075117 rxn_smarts="[C:1]([O:2][C@@:3]1([H:10])[C:4]([H:11])([H:12])[C@:5]1([C:6]([H:14])([H:15])[H:16])[H:13])([H:7])([H:8])[H:9]>>[C:1]([O:2][C:3]([C:6]([C:5](=[C:4]([H:11])[H:12])[H:13])([H:14])[H:16])([H:10])[H:15])([H:7])([H:8])[H:9]"
C       -1.88609274      -1.53797334       0.18258481
O       -1.69867869      -0.18114503      -0.10018387
C       -0.41663937       0.23315016      -0.45248671
C        1.30671681       1.72116459      -0.83994551
C        1.50131746       0.45296799      -0.27874697
C        0.79736499       0.10864745       0.99517517
H       -2.95552752      -1.71138176       0.29848182
H       -1.40281852      -1.82799358       1.12267834
H       -1.49811604      -2.17751197      -0.62113213
H       -0.45723925      -0.00545247      -1.52843550
H        1.19984082       2.57191735      -0.17378415
H        1.79654305       1.98025515      -1.77078817
H        1.99140566      -0.31623930      -0.86401033
H        0.91875318      -0.94337256       1.25629948
H       -0.39069855       0.92004083       0.96122633
H        1.19386871       0.71292649       1.81306738
16
Frame=15 idx=003234 GeodesicLength=2.2608414489403557 rxn_smarts="[C:1]([O:2][C@@:3]1([H:10])[C:4]([H:11])([H:12])[C@:5]1([C:6]([H:14])([H:15])[H:16])[H:13])([H:7])([H:8])[H:9]>>[C:1]([O:2][C:3]([C:6]([C:5](=[C:4]([H:11])[H:12])[H:13])([H:14])[H:16])([H:10])[H:15])([H:7])([H:8])[H:9]"
C       -1.86448978      -1.52347486       0.13976584
O       -1.68318554      -0.14667657      -0.04624837
C       -0.40379443       0.25745947      -0.43780662
C        1.27304073       1.68973011      -0.85460198
C        1.48489611       0.43826065      -0.24957886
C        0.78676827       0.12918375       1.03760800
H       -2.91588241      -1.68682772       0.37453732
H       -1.27160422      -1.91732945       0.97308305
H       -1.60591719      -2.08751424      -0.76589418
H       -0.42159748      -0.09292422      -1.48439393
H        1.17651018       2.56122717      -0.21428584
H        1.74324567       1.91754964      -1.80347117
H        1.98228918      -0.34274350      -0.81292195
H        0.91211607      -0.91722183       1.32167740
H       -0.39387083       0.97872487       0.98403631
H        1.20147566       0.74257673       1.83849498
16
Frame=16 idx=003234 GeodesicLength=2.4203396879372256 rxn_smarts="[C:1]([O:2][C@@:3]1([H:10])[C:4]([H:11])([H:12])[C@:5]1([C:6]([H:14])([H:15])[H:16])[H:13])([H:7])([H:8])[H:9]>>[C:1]([O:2][C:3]([C:6]([C:5](=[C:4]([H:11])[H:12])[H:13])([H:14])[H:16])([H:10])[H:15])([H:7])([H:8])[H:9]"
C       -1.83898721      -1.50918315       0.10069936
O       -1.66750240      -0.11901067       0.00433859
C       -0.39435998       0.28229228      -0.42842011
C        1.24310130       1.65710377      -0.86733442
C        1.46550029       0.42125567      -0.22222627
C        0.77169431       0.14775821       1.07617200
H       -2.85598997      -1.68456572       0.44967499
H       -1.14786470      -1.98246924       0.80726853
H       -1.70854315      -1.98740417      -0.87876181
H       -0.39182239      -0.16615735      -1.43835283
H        1.15732248       2.54711644      -0.25167520
H        1.69711339       1.85354518      -1.83086924
H        1.96759968      -0.37143865      -0.76483521
H        0.89623570      -0.89353727       1.38159423
H       -0.39878355       1.03778707       1.00133493
H        1.20528619       0.76690761       1.86139247
