17
Frame=0 idx=011169 GeodesicLength=0.0 rxn_smarts="[C:1]1([H:8])([H:9])[C@:2]2([H:10])[C@@:3]1([H:11])[C@:4]1([H:12])[C:5]([H:13])([H:14])[C:6]([H:15])([H:16])[C@:7]21[H:17]>>[C:1]1([H:8])([H:9])[C@@:2]2([H:10])[C@:3]1([H:11])[C:4]([H:12])=[C:5]([H:13])[C:6]([H:15])([H:16])[C:7]2.[H:14][H:17]"
C        1.51517658      -0.12250919       1.22443898
C        1.32928229       0.77307278       0.03430448
C        1.28486423      -0.71633105      -0.12363163
C       -0.14775832      -0.75195677      -0.78048891
C       -1.43652184      -0.75167988      -0.12861084
C       -1.26008166       0.54422767       0.57392226
C       -0.13257517       0.78782980      -0.46798593
H        2.53753062      -0.23270029       1.57099967
H        0.78967740      -0.19743752       2.02227687
H        2.09377995       1.45779832      -0.30486245
H        2.02767486      -1.35956578      -0.57606188
H       -0.07793076      -1.19484602      -1.76951077
H       -2.32992042      -1.32099352      -0.34318314
H       -1.94834323       0.42760208      -1.57373819
H       -2.12269683       1.20387164       0.60002476
H       -0.84688309       0.47398698       1.57611498
H       -1.27527458       0.97963077      -1.53400828
17
Frame=1 idx=011169 GeodesicLength=0.11623191638947192 rxn_smarts="[C:1]1([H:8])([H:9])[C@:2]2([H:10])[C@@:3]1([H:11])[C@:4]1([H:12])[C:5]([H:13])([H:14])[C:6]([H:15])([H:16])[C@:7]21[H:17]>>[C:1]1([H:8])([H:9])[C@@:2]2([H:10])[C@:3]1([H:11])[C:4]([H:12])=[C:5]([H:13])[C:6]([H:15])([H:16])[C:7]2.[H:14][H:17]"
C        1.51168902      -0.13331617       1.22170205
C        1.32749362       0.77448766       0.03948414
C        1.28766619      -0.71690569      -0.13058796
C       -0.14254107      -0.75703031      -0.78009759
C       -1.43213372      -0.74384348      -0.13243284
C       -1.25596461       0.55412631       0.57139618
C       -0.12870979       0.80890271      -0.46536091
H        2.53265618      -0.23810678       1.57342907
H        0.78096091      -0.22566149       2.01301327
H        2.09798766       1.45724195      -0.29014136
H        2.03871577      -1.34731646      -0.58756948
H       -0.07686452      -1.21176306      -1.76442714
H       -2.31436716      -1.34010006      -0.31380188
H       -1.96590061       0.41608812      -1.57565497
H       -2.11575568       1.21817197       0.58826027
H       -0.85839672       0.49056147       1.58047224
H       -1.28653547       0.99446332      -1.54768310
17
Frame=2 idx=011169 GeodesicLength=0.23210645793690501 rxn_smarts="[C:1]1([H:8])([H:9])[C@:2]2([H:10])[C@@:3]1([H:11])[C@:4]1([H:12])[C:5]([H:13])([H:14])[C:6]([H:15])([H:16])[C@:7]21[H:17]>>[C:1]1([H:8])([H:9])[C@@:2]2([H:10])[C@:3]1([H:11])[C:4]([H:12])=[C:5]([H:13])[C:6]([H:15])([H:16])[C:7]2.[H:14][H:17]"
C        1.50798175      -0.14413702       1.21880978
C        1.32571823       0.77576254       0.04453918
C        1.29042782      -0.71751223      -0.13761644
C       -0.13728476      -0.76238781      -0.77990754
C       -1.42782249      -0.73594305      -0.13692019
C       -1.25180809       0.56383326       0.56875853
C       -0.12469398       0.83033060      -0.46243982
H        2.52738111      -0.24370969       1.57600564
H        0.77200788      -0.25332122       2.00320067
H        2.10223858       1.45638572      -0.27542015
H        2.04957541      -1.33514135      -0.59877279
H       -0.07564445      -1.22893491      -1.75936563
H       -2.29730060      -1.35881435      -0.28320139
H       -1.98371293       0.40469835      -1.57741453
H       -2.10877343       1.23213626       0.57658359
H       -0.87026889       0.50667859       1.58454516
H       -1.29802113       1.01007633      -1.56138407
17
Frame=3 idx=011169 GeodesicLength=0.3477805177270829 rxn_smarts="[C:1]1([H:8])([H:9])[C@:2]2([H:10])[C@@:3]1([H:11])[C@:4]1([H:12])[C:5]([H:13])([H:14])[C:6]([H:15])([H:16])[C@:7]21[H:17]>>[C:1]1([H:8])([H:9])[C@@:2]2([H:10])[C@:3]1([H:11])[C:4]([H:12])=[C:5]([H:13])[C:6]([H:15])([H:16])[C:7]2.[H:14][H:17]"
C        1.50405460      -0.15497849       1.21575755
C        1.32394503       0.77689467       0.04947044
C        1.29314775      -0.71815321      -0.14471911
C       -0.13199162      -0.76804850      -0.77991305
C       -1.42358953      -0.72799864      -0.14208246
C       -1.24762510       0.57333977       0.56599689
C       -0.12052558       0.85212036      -0.45918388
H        2.52170673      -0.24951463       1.57871352
H        0.76282710      -0.28045392       1.99285200
H        2.10651678       1.45522759      -0.26069303
H        2.06026118      -1.32304508      -0.60968094
H       -0.07427021      -1.24640590      -1.75430760
H       -2.27857695      -1.37697037      -0.25136639
H       -2.00185186       0.39335583      -1.57902210
H       -2.10177353       1.24575233       0.56496926
H       -0.88253702       0.52234175       1.58831875
H       -1.30971778       1.02653645      -1.57510983
17
Frame=4 idx=011169 GeodesicLength=0.46336141979188916 rxn_smarts="[C:1]1([H:8])([H:9])[C@:2]2([H:10])[C@@:3]1([H:11])[C@:4]1([H:12])[C:5]([H:13])([H:14])[C:6]([H:15])([H:16])[C@:7]21[H:17]>>[C:1]1([H:8])([H:9])[C@@:2]2([H:10])[C@:3]1([H:11])[C:4]([H:12])=[C:5]([H:13])[C:6]([H:15])([H:16])[C:7]2.[H:14][H:17]"
C        1.49991490      -0.16584196       1.21254257
C        1.32216386       0.77788148       0.05427614
C        1.29582835      -0.71883260      -0.15189580
C       -0.12666267      -0.77404217      -0.78009967
C       -1.41943194      -0.72004262      -0.14791571
C       -1.24342635       0.58263190       0.56310322
C       -0.11620502       0.87427366      -0.45555015
H        2.51564332      -0.25551846       1.58153448
H        0.75343472      -0.30708987       1.98198881
H        2.11080392       1.45376650      -0.24596242
H        2.07078081      -1.31103498      -0.62029917
H       -0.07274046      -1.26422371      -1.74922974
H       -2.25807805      -1.39435593      -0.21834425
H       -2.02038956       0.38197707      -1.58047300
H       -2.09477930       1.25899939       0.55339560
H       -0.89523630       0.53755112       1.59177891
H       -1.32162023       1.04390120      -1.58884983
17
Frame=5 idx=011169 GeodesicLength=0.579027092656718 rxn_smarts="[C:1]1([H:8])([H:9])[C@:2]2([H:10])[C@@:3]1([H:11])[C@:4]1([H:12])[C:5]([H:13])([H:14])[C:6]([H:15])([H:16])[C@:7]21[H:17]>>[C:1]1([H:8])([H:9])[C@@:2]2([H:10])[C@:3]1([H:11])[C:4]([H:12])=[C:5]([H:13])[C:6]([H:15])([H:16])[C:7]2.[H:14][H:17]"
C        1.49557605      -0.17672829       1.20916274
C        1.32036850       0.77872133       0.05895632
C        1.29847703      -0.71955226      -0.15914460
C       -0.12129456      -0.78039457      -0.78045169
C       -1.41533355      -0.71211639      -0.15439422
C       -1.23921879       0.59169480       0.56007398
C       -0.11172935       0.89679018      -0.45148872
H        2.50920849      -0.26171754       1.58444890
H        0.74385487      -0.33325248       1.97062983
H        2.11508534       1.45200255      -0.23122755
H        2.08114715      -1.29911251      -0.63063407
H       -0.07105472      -1.28244881      -1.74409406
H       -2.23573757      -1.41072655      -0.18427119
H       -2.03943178       0.37042676      -1.58172834
H       -2.08781293       1.27185443       0.54183965
H       -0.90839352       0.55231976       1.59491411
H       -1.33371065       1.06223958      -1.60259107
17
Frame=6 idx=011169 GeodesicLength=0.6949301433718583 rxn_smarts="[C:1]1([H:8])([H:9])[C@:2]2([H:10])[C@@:3]1([H:11])[C@:4]1([H:12])[C:5]([H:13])([H:14])[C:6]([H:15])([H:16])[C@:7]21[H:17]>>[C:1]1([H:8])([H:9])[C@@:2]2([H:10])[C@:3]1([H:11])[C:4]([H:12])=[C:5]([H:13])[C:6]([H:15])([H:16])[C:7]2.[H:14][H:17]"
C        1.49106065      -0.18763427       1.20561725
C        1.31855437       0.77941234       0.06350862
C        1.30110383      -0.72031661      -0.16646068
C       -0.11588185      -0.78713799      -0.78094532
C       -1.41127205      -0.70427087      -0.16147373
C       -1.23500746       0.60051268       0.55691085
C       -0.10709818       0.91966611      -0.44694638
H        2.50242859      -0.26810093       1.58743667
H        0.73412128      -0.35895260       1.95880602
H        2.11934557       1.44993771      -0.21649815
H        2.09137417      -1.28728402      -0.64068961
H       -0.06921135      -1.30113860      -1.73885999
H       -2.21153098      -1.42579637      -0.14936256
H       -2.05908943       0.35854113      -1.58272825
H       -2.08089547       1.28428604       0.53027984
H       -0.92203061       0.56665742       1.59771609
H       -1.34597108       1.08161881      -1.61631066
17
Frame=7 idx=011169 GeodesicLength=0.8110068098789434 rxn_smarts="[C:1]1([H:8])([H:9])[C@:2]2([H:10])[C@@:3]1([H:11])[C@:4]1([H:12])[C:5]([H:13])([H:14])[C:6]([H:15])([H:16])[C@:7]21[H:17]>>[C:1]1([H:8])([H:9])[C@@:2]2([H:10])[C@:3]1([H:11])[C:4]([H:12])=[C:5]([H:13])[C:6]([H:15])([H:16])[C:7]2.[H:14][H:17]"
C        1.48640675      -0.19854105       1.20190738
C        1.31672049       0.77995609       0.06792367
C        1.30372500      -0.72112883      -0.17382964
C       -0.11041524      -0.79431607      -0.78153853
C       -1.40721548      -0.69656569      -0.16908619
C       -1.23078698       0.60906388       0.55363331
C       -0.10231183       0.94289072      -0.44186064
H        2.49535019      -0.27463505       1.59047135
H        0.72429139      -0.38418171       1.94655223
H        2.12356970       1.44757584      -0.20180220
H        2.10148113      -1.27555331      -0.65046143
H       -0.06720627      -1.32037329      -1.73345843
H       -2.18555629      -1.43926401      -0.11398711
H       -2.07942982       0.34619398      -1.58339885
H       -2.07404255       1.29625584       0.51872027
H       -0.93615587       0.58057226       1.60019052
H       -1.35842431       1.10205040      -1.62997572
17
Frame=8 idx=011169 GeodesicLength=0.9274184946556141 rxn_smarts="[C:1]1([H:8])([H:9])[C@:2]2([H:10])[C@@:3]1([H:11])[C@:4]1([H:12])[C:5]([H:13])([H:14])[C:6]([H:15])([H:16])[C@:7]21[H:17]>>[C:1]1([H:8])([H:9])[C@@:2]2([H:10])[C@:3]1([H:11])[C:4]([H:12])=[C:5]([H:13])[C:6]([H:15])([H:16])[C:7]2.[H:14][H:17]"
C        1.48165997      -0.20943247       1.19803886
C        1.31487584       0.78035539       0.07219520
C        1.30636330      -0.72199168      -0.18123762
C       -0.10487491      -0.80196365      -0.78219495
C       -1.40311672      -0.68905534      -0.17714549
C       -1.22655085       0.61733697       0.55025493
C       -0.09736659       0.96645785      -0.43616580
H        2.48802703      -0.28129171       1.59353008
H        0.71442842      -0.40892791       1.93391334
H        2.12775561       1.44492317      -0.18716325
H        2.11149058      -1.26392503      -0.65994702
H       -0.06502728      -1.34021966      -1.72783201
H       -2.15799136      -1.45084607      -0.07855911
H       -2.10058631       0.33314675      -1.58362046
H       -2.06726349       1.30773217       0.50714029
H       -0.95077428       0.59408527       1.60233605
H       -1.37104895       1.12361595      -1.64354302
17
Frame=9 idx=011169 GeodesicLength=1.0443217668443212 rxn_smarts="[C:1]1([H:8])([H:9])[C@:2]2([H:10])[C@@:3]1([H:11])[C@:4]1([H:12])[C:5]([H:13])([H:14])[C:6]([H:15])([H:16])[C@:7]21[H:17]>>[C:1]1([H:8])([H:9])[C@@:2]2([H:10])[C@:3]1([H:11])[C:4]([H:12])=[C:5]([H:13])[C:6]([H:15])([H:16])[C:7]2.[H:14][H:17]"
C        1.47688481      -0.22027752       1.19401453
C        1.31304016       0.78061873       0.07631097
C        1.30904205      -0.72290162      -0.18867221
C       -0.09924360      -0.81013901      -0.78285640
C       -1.39888175      -0.68177008      -0.18555551
C       -1.22227027       0.62536186       0.54677927
C       -0.09221279       0.99038534      -0.42977589
H        2.48053789      -0.28802531       1.59657422
H        0.70460178      -0.43314167       1.92095597
H        2.13191225       1.44198727      -0.17260889
H        2.12142262      -1.25238795      -0.66915317
H       -0.06268370      -1.36079996      -1.72184745
H       -2.12921517      -1.46069659      -0.04358138
H       -2.12273539       0.31931898      -1.58325322
H       -2.06055839       1.31873941       0.49549896
H       -0.96587502       0.60725407       1.60414553
H       -1.38376548       1.14647405      -1.65697532
17
Frame=10 idx=011169 GeodesicLength=1.16152123122431 rxn_smarts="[C:1]1([H:8])([H:9])[C@:2]2([H:10])[C@@:3]1([H:11])[C@:4]1([H:12])[C:5]([H:13])([H:14])[C:6]([H:15])([H:16])[C@:7]21[H:17]>>[C:1]1([H:8])([H:9])[C@@:2]2([H:10])[C@:3]1([H:11])[C:4]([H:12])=[C:5]([H:13])[C:6]([H:15])([H:16])[C:7]2.[H:14][H:17]"
C        1.47211403      -0.23106077       1.18984195
C        1.31122194       0.78075092       0.08026454
C        1.31178150      -0.72386169      -0.19611565
C       -0.09349610      -0.81884205      -0.78350358
C       -1.39449539      -0.67475200      -0.19426547
C       -1.21794372       0.63310886       0.54323065
C       -0.08686707       1.01466262      -0.42264138
H        2.47292115      -0.29481300       1.59959900
H        0.69487091      -0.45683550       1.90769635
H        2.13604276       1.43877213      -0.15817018
H        2.13129872      -1.24095867      -0.67806749
H       -0.06013969      -1.38212868      -1.71548200
H       -2.09937092      -1.46834831      -0.00940750
H       -2.14592350       0.30442222      -1.58215793
H       -2.05392886       1.32922082       0.48380403
H       -0.98147812       0.62005927       1.60562188
H       -1.39660763       1.17060384      -1.67024722
17
Frame=11 idx=011169 GeodesicLength=1.2790284273309773 rxn_smarts="[C:1]1([H:8])([H:9])[C@:2]2([H:10])[C@@:3]1([H:11])[C@:4]1([H:12])[C:5]([H:13])([H:14])[C:6]([H:15])([H:16])[C@:7]21[H:17]>>[C:1]1([H:8])([H:9])[C@@:2]2([H:10])[C@:3]1([H:11])[C:4]([H:12])=[C:5]([H:13])[C:6]([H:15])([H:16])[C:7]2.[H:14][H:17]"
C        1.46739427      -0.24176065       1.18552774
C        1.30944367       0.78076287       0.08405043
C        1.31460456      -0.72486673      -0.20355687
C       -0.08760660      -0.82808996      -0.78411001
C       -1.38989377      -0.66800989      -0.20322745
C       -1.21355098       0.64059195       0.53961290
C       -0.08129822       1.03930560      -0.41469132
H        2.46522958      -0.30162838       1.60258745
H        0.68529509      -0.47999479       1.89417063
H        2.14016549       1.43528497      -0.14386700
H        2.14114018      -1.22963514      -0.68669157
H       -0.05737808      -1.40426784      -1.70865602
H       -2.06876837      -1.47375263       0.02357596
H       -2.17030051       0.28824463      -1.58015598
H       -2.04736856       1.33918094       0.47202199
H       -0.99759398       0.63252238       1.60675024
H       -1.40951379       1.19611265      -1.68334113
17
Frame=12 idx=011169 GeodesicLength=1.3967218751171342 rxn_smarts="[C:1]1([H:8])([H:9])[C@:2]2([H:10])[C@@:3]1([H:11])[C@:4]1([H:12])[C:5]([H:13])([H:14])[C:6]([H:15])([H:16])[C@:7]21[H:17]>>[C:1]1([H:8])([H:9])[C@@:2]2([H:10])[C@:3]1([H:11])[C:4]([H:12])=[C:5]([H:13])[C:6]([H:15])([H:16])[C:7]2.[H:14][H:17]"
C        1.46277145      -0.25235124       1.18107981
C        1.30772681       0.78066478       0.08765769
C        1.31753458      -0.72591458      -0.21098182
C       -0.08154709      -0.83790430      -0.78464493
C       -1.38501835      -0.66153882      -0.21240903
C       -1.20906987       0.64782888       0.53592751
C       -0.07547596       1.06433081      -0.40585535
H        2.45751731      -0.30843604       1.60552497
H        0.67593151      -0.50259804       1.88042095
H        2.14429952       1.43153063      -0.12972830
H        2.15096839      -1.21842006      -0.69502195
H       -0.05437760      -1.42726906      -1.70130367
H       -2.03774279      -1.47692637       0.05501412
H       -2.19599134       0.27061216      -1.57708340
H       -2.04086083       1.34862998       0.46012226
H       -1.01423361       0.64465634       1.60751277
H       -1.42243214       1.22310493      -1.69623165
17
Frame=13 idx=011169 GeodesicLength=1.514528294393772 rxn_smarts="[C:1]1([H:8])([H:9])[C@:2]2([H:10])[C@@:3]1([H:11])[C@:4]1([H:12])[C:5]([H:13])([H:14])[C:6]([H:15])([H:16])[C@:7]21[H:17]>>[C:1]1([H:8])([H:9])[C@@:2]2([H:10])[C@:3]1([H:11])[C:4]([H:12])=[C:5]([H:13])[C:6]([H:15])([H:16])[C:7]2.[H:14][H:17]"
C        1.45827840      -0.26282008       1.17650194
C        1.30609551       0.78046902       0.09108312
C        1.32058925      -0.72699840      -0.21838742
C       -0.07528938      -0.84828864      -0.78510224
C       -1.37981458      -0.65531264      -0.22181158
C       -1.20448251       0.65484826       0.53215502
C       -0.06936211       1.08976555      -0.39605532
H        2.44982133      -0.31522676       1.60840145
H        0.66681192      -0.52463835       1.86647160
H        2.14847333       1.42751484      -0.11576128
H        2.16079957      -1.20731104      -0.70306625
H       -0.05111328      -1.45118031      -1.69336027
H       -2.00655830      -1.47795628       0.08468320
H       -2.22315693       0.25132227      -1.57274752
H       -2.03438863       1.35759665       0.44803806
H       -1.03142723       0.65647391       1.60786607
H       -1.43527634       1.25174200      -1.70890857
17
Frame=14 idx=011169 GeodesicLength=1.6322916050563083 rxn_smarts="[C:1]1([H:8])([H:9])[C@:2]2([H:10])[C@@:3]1([H:11])[C@:4]1([H:12])[C:5]([H:13])([H:14])[C:6]([H:15])([H:16])[C@:7]21[H:17]>>[C:1]1([H:8])([H:9])[C@@:2]2([H:10])[C@:3]1([H:11])[C:4]([H:12])=[C:5]([H:13])[C:6]([H:15])([H:16])[C:7]2.[H:14][H:17]"
C        1.45394221      -0.27315583       1.17179862
C        1.30457034       0.78018546       0.09432121
C        1.32378401      -0.72811386      -0.22577103
C       -0.06880643      -0.85924561      -0.78547682
C       -1.37423221      -0.64929930      -0.23144601
C       -1.19977126       0.66168404       0.52827247
C       -0.06291889       1.11563608      -0.38521423
H        2.44217307      -0.32199033       1.61120814
H        0.65796177      -0.54610694       1.85234957
H        2.15271190       1.42323872      -0.10197529
H        2.17064911      -1.19630856      -0.71083033
H       -0.04756071      -1.47603273      -1.68477556
H       -1.97545532      -1.47696609       0.11239894
H       -2.25195737       0.23018627      -1.56695900
H       -2.02793023       1.36611586       0.43569999
H       -1.04920908       0.66798619       1.60776269
H       -1.44795090       1.28218664      -1.72136337
17
Frame=15 idx=011169 GeodesicLength=1.7498554485828115 rxn_smarts="[C:1]1([H:8])([H:9])[C@:2]2([H:10])[C@@:3]1([H:11])[C@:4]1([H:12])[C:5]([H:13])([H:14])[C:6]([H:15])([H:16])[C@:7]21[H:17]>>[C:1]1([H:8])([H:9])[C@@:2]2([H:10])[C@:3]1([H:11])[C:4]([H:12])=[C:5]([H:13])[C:6]([H:15])([H:16])[C:7]2.[H:14][H:17]"
C        1.44978081      -0.28335271       1.16697094
C        1.30316958       0.77982473       0.09736796
C        1.32713149      -0.72925453      -0.23313615
C       -0.06207076      -0.87077547      -0.78577397
C       -1.36822451      -0.64345776      -0.24135131
C       -1.19492150       0.66837043       0.52424229
C       -0.05610400       1.14197258      -0.37324463
H        2.43459261      -0.32872623       1.61393864
H        0.64939233      -0.56700336       1.83806954
H        2.15704142       1.41870375      -0.08836952
H        2.18052985      -1.18540916      -0.71832434
H       -0.04368984      -1.50186275      -1.67549422
H       -1.94462004      -1.47409850       0.13804725
H       -2.28257621       0.20701010      -1.55950037
H       -2.02145731       1.37423089       0.42301758
H       -1.06762997       0.67919702       1.60713523
H       -1.46034394       1.31463095      -1.73359495
17
Frame=16 idx=011169 GeodesicLength=1.8670636792902502 rxn_smarts="[C:1]1([H:8])([H:9])[C@:2]2([H:10])[C@@:3]1([H:11])[C@:4]1([H:12])[C:5]([H:13])([H:14])[C:6]([H:15])([H:16])[C@:7]21[H:17]>>[C:1]1([H:8])([H:9])[C@@:2]2([H:10])[C@:3]1([H:11])[C:4]([H:12])=[C:5]([H:13])[C:6]([H:15])([H:16])[C:7]2.[H:14][H:17]"
C        1.44580269      -0.29341022       1.16201821
C        1.30190838       0.77939676       0.10022120
C        1.33064120      -0.73041398      -0.24049020
C       -0.05505646      -0.88287223      -0.78600947
C       -1.36174894      -0.63774221      -0.25158378
C       -1.18992222       0.67494426       0.52001628
C       -0.04887434       1.16880452      -0.36005231
H        2.42708846      -0.33544160       1.61658986
H        0.64110046      -0.58733221       1.82363767
H        2.16148586       1.41390880      -0.07493660
H        2.19045330      -1.17461002      -0.72555990
H       -0.03947292      -1.52869500      -1.66547233
H       -1.91418045      -1.46950266       0.16157020
H       -2.31522101       0.18157146      -1.55012400
H       -2.01493816       1.38199044       0.40988083
H       -1.08675215       0.69010870       1.60590006
H       -1.47231369       1.34929519      -1.74560570
