12
Frame=0 idx=003765 GeodesicLength=0.0 rxn_smarts="[C:1]([C@@:2]1([C:5]#[N:6])[C:3]([H:10])([H:11])[N:4]1[H:12])([H:7])([H:8])[H:9]>>[C:1]([N:6]=[C:5]=[C:2]1[C:3]([H:10])([H:11])[N:4]1[H:12])([H:7])([H:8])[H:9]"
C        2.16392584       0.17428475       0.09831266
C       -0.55267628       0.00698137       0.02932967
C       -1.57559813      -0.95292461      -0.36759384
N       -1.44007978      -0.45294305       1.01082470
C       -0.05811682       1.21726253      -0.35256108
N        0.77577021       2.01879811      -0.58329526
H        1.72301619      -0.03176087      -0.85251259
H        3.19353954      -0.14258647       0.25237959
H        1.63013956       0.53238283       0.95169019
H       -2.40399336      -0.59637119      -0.97117079
H       -1.31030821      -1.99466503      -0.49922531
H       -2.14561880       0.22154167       1.28382207
12
Frame=1 idx=003765 GeodesicLength=0.09827363023560176 rxn_smarts="[C:1]([C@@:2]1([C:5]#[N:6])[C:3]([H:10])([H:11])[N:4]1[H:12])([H:7])([H:8])[H:9]>>[C:1]([N:6]=[C:5]=[C:2]1[C:3]([H:10])([H:11])[N:4]1[H:12])([H:7])([H:8])[H:9]"
C        2.12500612       0.18372682       0.11012929
C       -0.53972361       0.00626697       0.02114208
C       -1.56523799      -0.95599454      -0.36517644
N       -1.41259476      -0.46386698       1.01394228
C       -0.07681467       1.22613805      -0.37093621
N        0.75756503       2.03002969      -0.59385133
H        1.79132149       0.02183347      -0.89267022
H        3.10070599      -0.27089621       0.28100747
H        1.64027351       0.61298367       0.96153449
H       -2.40508861      -0.60132022      -0.95381266
H       -1.29719607      -1.99563379      -0.50763048
H       -2.11821643       0.20673307       1.29632174
12
Frame=2 idx=003765 GeodesicLength=0.1995664805320032 rxn_smarts="[C:1]([C@@:2]1([C:5]#[N:6])[C:3]([H:10])([H:11])[N:4]1[H:12])([H:7])([H:8])[H:9]>>[C:1]([N:6]=[C:5]=[C:2]1[C:3]([H:10])([H:11])[N:4]1[H:12])([H:7])([H:8])[H:9]"
C        2.08727462       0.19487123       0.12511571
C       -0.52543550       0.00098818       0.00307413
C       -1.56097552      -0.95864393      -0.36453578
N       -1.37399860      -0.47998877       1.01476140
C       -0.09374122       1.22956265      -0.39837859
N        0.73970792       2.03757879      -0.61199925
H        1.87636665       0.08255171      -0.91836514
H        2.98806878      -0.39055814       0.31862576
H        1.64961862       0.69274052       0.96647012
H       -2.41716620      -0.60090364      -0.92716739
H       -1.29609198      -1.99659059      -0.52442182
H       -2.07362758       0.18839200       1.31682085
12
Frame=3 idx=003765 GeodesicLength=0.3008853093329261 rxn_smarts="[C:1]([C@@:2]1([C:5]#[N:6])[C:3]([H:10])([H:11])[N:4]1[H:12])([H:7])([H:8])[H:9]>>[C:1]([N:6]=[C:5]=[C:2]1[C:3]([H:10])([H:11])[N:4]1[H:12])([H:7])([H:8])[H:9]"
C        2.05113223       0.20033547       0.12856226
C       -0.51352364       0.00116056       0.00178012
C       -1.54817707      -0.96244108      -0.36004690
N       -1.35388914      -0.48804376       1.01936725
C       -0.10985099       1.23663747      -0.40832256
N        0.72417370       2.04499036      -0.62070551
H        1.96057252       0.14193990      -0.93780722
H        2.86146168      -0.50479593       0.33181549
H        1.67406046       0.76006546       0.96239125
H       -2.41121858      -0.60841074      -0.91446686
H       -1.27900737      -1.99822141      -0.52683537
H       -2.05573378       0.17678371       1.32426803
12
Frame=4 idx=003765 GeodesicLength=0.4031431853060922 rxn_smarts="[C:1]([C@@:2]1([C:5]#[N:6])[C:3]([H:10])([H:11])[N:4]1[H:12])([H:7])([H:8])[H:9]>>[C:1]([N:6]=[C:5]=[C:2]1[C:3]([H:10])([H:11])[N:4]1[H:12])([H:7])([H:8])[H:9]"
C        2.01607011       0.20532592       0.13712824
C       -0.50221152      -0.00333319      -0.00769854
C       -1.54279622      -0.96592870      -0.35706631
N       -1.32774306      -0.49948418       1.02164461
C       -0.12411358       1.23773321      -0.42592842
N        0.71109114       2.04614311      -0.63565209
H        2.05891456       0.20357296      -0.93524144
H        2.73290251      -0.59714055       0.33861900
H        1.69516203       0.82018923       0.95770099
H       -2.41577537      -0.61105333      -0.89511000
H       -1.27529363      -2.00031768      -0.53499771
H       -2.02620697       0.16429320       1.33660167
12
Frame=5 idx=003765 GeodesicLength=0.504415711944806 rxn_smarts="[C:1]([C@@:2]1([C:5]#[N:6])[C:3]([H:10])([H:11])[N:4]1[H:12])([H:7])([H:8])[H:9]>>[C:1]([N:6]=[C:5]=[C:2]1[C:3]([H:10])([H:11])[N:4]1[H:12])([H:7])([H:8])[H:9]"
C        1.98221980       0.20468097       0.13527337
C       -0.49507223      -0.00143268       0.00136947
C       -1.53032125      -0.96960366      -0.35073425
N       -1.32295980      -0.50336259       1.02887850
C       -0.13908181       1.24397338      -0.42391778
N        0.70107473       2.04489559      -0.64465271
H        2.15137650       0.25380389      -0.92486245
H        2.60955294      -0.67536820       0.31772217
H        1.73042099       0.86724056       0.94510739
H       -2.40406320      -0.62023715      -0.89110815
H       -1.25581789      -2.00187826      -0.53039909
H       -2.02732876       0.15728815       1.33732353
12
Frame=6 idx=003765 GeodesicLength=0.6044414219168904 rxn_smarts="[C:1]([C@@:2]1([C:5]#[N:6])[C:3]([H:10])([H:11])[N:4]1[H:12])([H:7])([H:8])[H:9]>>[C:1]([N:6]=[C:5]=[C:2]1[C:3]([H:10])([H:11])[N:4]1[H:12])([H:7])([H:8])[H:9]"
C        1.94924317       0.20460237       0.13596066
C       -0.48937335      -0.00262606       0.00487583
C       -1.52419332      -0.97274059      -0.34537752
N       -1.31502617      -0.50952428       1.03464190
C       -0.15380503       1.24641592      -0.42706921
N        0.69266626       2.03768312      -0.66049220
H        2.25253750       0.30294803      -0.89201993
H        2.49588408      -0.73460266       0.28803369
H        1.76112289       0.90702362       0.93197269
H       -2.40085553      -0.62549033      -0.88234121
H       -1.24685384      -2.00341696      -0.52994496
H       -2.02134665       0.14972782       1.34176025
12
Frame=7 idx=003765 GeodesicLength=0.7040497018371022 rxn_smarts="[C:1]([C@@:2]1([C:5]#[N:6])[C:3]([H:10])([H:11])[N:4]1[H:12])([H:7])([H:8])[H:9]>>[C:1]([N:6]=[C:5]=[C:2]1[C:3]([H:10])([H:11])[N:4]1[H:12])([H:7])([H:8])[H:9]"
C        1.91776044       0.20307368       0.13150575
C       -0.48608054      -0.00203413       0.01327892
C       -1.51712993      -0.97666913      -0.33765351
N       -1.31544351      -0.51058732       1.04218101
C       -0.16884316       1.24923178      -0.42695369
N        0.68558577       2.02852105      -0.67387128
H        2.35585621       0.35077918      -0.84248750
H        2.39047200      -0.78309228       0.23526715
H        1.79245595       0.93397487       0.91714661
H       -2.39355807      -0.63463501      -0.87829402
H       -1.23467507      -2.00621726      -0.52091940
H       -2.02640009       0.14765456       1.34079996
12
Frame=8 idx=003765 GeodesicLength=0.8031604713300262 rxn_smarts="[C:1]([C@@:2]1([C:5]#[N:6])[C:3]([H:10])([H:11])[N:4]1[H:12])([H:7])([H:8])[H:9]>>[C:1]([N:6]=[C:5]=[C:2]1[C:3]([H:10])([H:11])[N:4]1[H:12])([H:7])([H:8])[H:9]"
C        1.88849704       0.20029020       0.11912352
C       -0.48501639       0.00263991       0.03119174
C       -1.50555757      -0.98124921      -0.32662940
N       -1.32801645      -0.50462917       1.05259001
C       -0.18447999       1.25485085      -0.41920104
N        0.67939307       2.01941398      -0.68169300
H        2.45404887       0.39057830      -0.78136213
H        2.29311280      -0.82164360       0.15651124
H        1.82632889       0.94743344       0.90041132
H       -2.37644894      -0.64969575      -0.88248667
H       -1.21316292      -2.00979704      -0.49981402
H       -2.04869841       0.15180808       1.33135842
12
Frame=9 idx=003765 GeodesicLength=0.9007193762132243 rxn_smarts="[C:1]([C@@:2]1([C:5]#[N:6])[C:3]([H:10])([H:11])[N:4]1[H:12])([H:7])([H:8])[H:9]>>[C:1]([N:6]=[C:5]=[C:2]1[C:3]([H:10])([H:11])[N:4]1[H:12])([H:7])([H:8])[H:9]"
C        1.86187385       0.20034731       0.10691766
C       -0.48379390       0.00599167       0.04444607
C       -1.49678891      -0.98563723      -0.31540018
N       -1.33680173      -0.49850457       1.06195151
C       -0.19970151       1.25833795      -0.41762262
N        0.67421999       2.00753424      -0.69382161
H        2.54978435       0.42237797      -0.69903781
H        2.20453840      -0.84506453       0.06319618
H        1.85196367       0.95455283       0.88761884
H       -2.36379946      -0.66349216      -0.88268916
H       -1.19687284      -2.01358043      -0.47925319
H       -2.06462189       0.15713695       1.32369432
12
Frame=10 idx=003765 GeodesicLength=0.9972085928106572 rxn_smarts="[C:1]([C@@:2]1([C:5]#[N:6])[C:3]([H:10])([H:11])[N:4]1[H:12])([H:7])([H:8])[H:9]>>[C:1]([N:6]=[C:5]=[C:2]1[C:3]([H:10])([H:11])[N:4]1[H:12])([H:7])([H:8])[H:9]"
C        1.83775747       0.20386894       0.09387777
C       -0.48224655       0.01022359       0.05711377
C       -1.48769761      -0.98907190      -0.30467190
N       -1.34383728      -0.49317518       1.07099030
C       -0.21521573       1.26307133      -0.41549948
N        0.66919945       1.99413217      -0.70973620
H        2.63466134       0.43480597      -0.60564667
H        2.12315822      -0.85280650      -0.03704024
H        1.87432033       0.96005635       0.87598967
H       -2.35141097      -0.67595823      -0.88191365
H       -1.18016826      -2.01600317      -0.46077177
H       -2.07852040       0.16085664       1.31730840
12
Frame=11 idx=003765 GeodesicLength=1.0927809759727327 rxn_smarts="[C:1]([C@@:2]1([C:5]#[N:6])[C:3]([H:10])([H:11])[N:4]1[H:12])([H:7])([H:8])[H:9]>>[C:1]([N:6]=[C:5]=[C:2]1[C:3]([H:10])([H:11])[N:4]1[H:12])([H:7])([H:8])[H:9]"
C        1.81585551       0.20981038       0.08020934
C       -0.48017189       0.01569984       0.07028143
C       -1.47710010      -0.99197261      -0.29386604
N       -1.35041658      -0.48742703       1.07999416
C       -0.23075689       1.26907390      -0.41256780
N        0.66387238       1.98066075      -0.72657365
H        2.70674028       0.42741617      -0.50523627
H        2.04824349      -0.84546916      -0.14481233
H        1.89446681       0.96401643       0.86550980
H       -2.33727809      -0.68849397      -0.88139535
H       -1.16109135      -2.01752238      -0.44212107
H       -2.09236356       0.16420770       1.31057777
12
Frame=12 idx=003765 GeodesicLength=1.1854417828771904 rxn_smarts="[C:1]([C@@:2]1([C:5]#[N:6])[C:3]([H:10])([H:11])[N:4]1[H:12])([H:7])([H:8])[H:9]>>[C:1]([N:6]=[C:5]=[C:2]1[C:3]([H:10])([H:11])[N:4]1[H:12])([H:7])([H:8])[H:9]"
C        1.79619954       0.21974330       0.06795564
C       -0.47641478       0.01897856       0.07751387
C       -1.46910424      -0.99426325      -0.28489580
N       -1.35014797      -0.48433659       1.08732102
C       -0.24622412       1.27330348      -0.41476087
N        0.65729848       1.96701468      -0.74640711
H        2.76629426       0.40165090      -0.39670340
H        1.98496835      -0.82211591      -0.24879998
H        1.91021752       0.97067726       0.85660189
H       -2.32873663      -0.69757778      -0.87664011
H       -1.14778346      -2.01874681      -0.42925167
H       -2.09656695       0.16567214       1.30806653
12
Frame=13 idx=003765 GeodesicLength=1.275123042634026 rxn_smarts="[C:1]([C@@:2]1([C:5]#[N:6])[C:3]([H:10])([H:11])[N:4]1[H:12])([H:7])([H:8])[H:9]>>[C:1]([N:6]=[C:5]=[C:2]1[C:3]([H:10])([H:11])[N:4]1[H:12])([H:7])([H:8])[H:9]"
C        1.77870246       0.23529210       0.05881111
C       -0.47048387       0.01854939       0.07520187
C       -1.46593833      -0.99550865      -0.27958945
N       -1.33850706      -0.48701175       1.09204771
C       -0.26187978       1.27515336      -0.42356050
N        0.64887601       1.95186543      -0.77365318
H        2.81193073       0.35818739      -0.27857696
H        1.93466134      -0.78549371      -0.33905449
H        1.92237760       0.98600786       0.84744550
H       -2.33053126      -0.70036829      -0.86481356
H       -1.14421648      -2.01928379      -0.42820154
H       -2.08499135       0.16261066       1.31394349
12
Frame=14 idx=003765 GeodesicLength=1.3650242865343327 rxn_smarts="[C:1]([C@@:2]1([C:5]#[N:6])[C:3]([H:10])([H:11])[N:4]1[H:12])([H:7])([H:8])[H:9]>>[C:1]([N:6]=[C:5]=[C:2]1[C:3]([H:10])([H:11])[N:4]1[H:12])([H:7])([H:8])[H:9]"
C        1.76198275       0.25501830       0.04550287
C       -0.46409217       0.02115265       0.07504597
C       -1.45900304      -0.99599161      -0.27484343
N       -1.32624246      -0.49049360       1.09703974
C       -0.27912471       1.28095255      -0.42783290
N        0.63685899       1.93949594      -0.80181450
H        2.83972737       0.28835255      -0.15517549
H        1.88758661      -0.73997717      -0.42569167
H        1.93930584       1.00675297       0.83103006
H       -2.32840495      -0.70379960      -0.85436704
H       -1.13377722      -2.01786546      -0.42897527
H       -2.07481701       0.15640248       1.32008166
12
Frame=15 idx=003765 GeodesicLength=1.4551687252355128 rxn_smarts="[C:1]([C@@:2]1([C:5]#[N:6])[C:3]([H:10])([H:11])[N:4]1[H:12])([H:7])([H:8])[H:9]>>[C:1]([N:6]=[C:5]=[C:2]1[C:3]([H:10])([H:11])[N:4]1[H:12])([H:7])([H:8])[H:9]"
C        1.74667908       0.28059211       0.02623337
C       -0.45625349       0.02630547       0.07527343
C       -1.44779532      -0.99647616      -0.27018399
N       -1.31129602      -0.49400599       1.10208330
C       -0.29791645       1.28961011      -0.43086639
N        0.62034821       1.93287146      -0.82865218
H        2.84154798       0.18715432      -0.01718874
H        1.84488928      -0.68324236      -0.51442229
H        1.96269298       1.03391162       0.80522545
H       -2.32251961      -0.70934981      -0.84417104
H       -1.11692590      -2.01573267      -0.42969773
H       -2.06345076       0.14836189       1.32636681
12
Frame=16 idx=003765 GeodesicLength=1.5423498285230581 rxn_smarts="[C:1]([C@@:2]1([C:5]#[N:6])[C:3]([H:10])([H:11])[N:4]1[H:12])([H:7])([H:8])[H:9]>>[C:1]([N:6]=[C:5]=[C:2]1[C:3]([H:10])([H:11])[N:4]1[H:12])([H:7])([H:8])[H:9]"
C        1.73309819       0.31026269       0.00202510
C       -0.44586412       0.03340124       0.07835482
C       -1.43102697      -0.99695407      -0.26557037
N       -1.29570158      -0.49739943       1.10749462
C       -0.31706849       1.30077595      -0.42920679
N        0.59984916       1.93189168      -0.85203422
H        2.79921492       0.05962589       0.13034468
H        1.81172363      -0.61874842      -0.60137313
H        2.00145366       1.06785778       0.76481605
H       -2.30968216      -0.71647386      -0.83680757
H       -1.09273508      -2.01315600      -0.42908111
H       -2.05326116       0.13891654       1.33103791
