10
Frame=0 idx=004305 GeodesicLength=0.0 rxn_smarts="[O:1]([c:2]1[n:3][c:4]([H:8])[c:5]([H:9])[n:6]1[H:10])[H:7]>>[O:1](/[C:2]([N:3]1[C:4]([H:8])=[C:5]1[H:9])=[N:6]\[H:10])[H:7]"
O        2.09729622      -0.35196915      -0.11058250
C        0.82464064       0.11513975      -0.08247796
N       -0.08889977      -0.85307271      -0.34878098
C       -1.39114034      -0.84390218       0.15329553
C       -1.69699872       0.36823418      -0.07911253
N        0.56531269       1.35138106       0.11686410
H        2.05875644      -1.30486942      -0.23257456
H       -1.89801072      -1.73083911       0.50884437
H       -1.87011063       1.39189366      -0.32123664
H        1.39915419       1.85800392       0.39576117
10
Frame=1 idx=004305 GeodesicLength=0.06674561381382413 rxn_smarts="[O:1]([c:2]1[n:3][c:4]([H:8])[c:5]([H:9])[n:6]1[H:10])[H:7]>>[O:1](/[C:2]([N:3]1[C:4]([H:8])=[C:5]1[H:9])=[N:6]\[H:10])[H:7]"
O        2.10133809      -0.35006871      -0.12551886
C        0.82623193       0.10123787      -0.05502716
N       -0.09049615      -0.85559686      -0.35208261
C       -1.38721212      -0.83754919       0.17027119
C       -1.66684938       0.38126539      -0.07012210
N        0.54990667       1.33414865       0.15181470
H        2.06723689      -1.30132284      -0.26267892
H       -1.90876090      -1.71923784       0.51575915
H       -1.87224208       1.38449260      -0.36732645
H        1.38084705       1.86263093       0.39491107
10
Frame=2 idx=004305 GeodesicLength=0.1336216823203452 rxn_smarts="[O:1]([c:2]1[n:3][c:4]([H:8])[c:5]([H:9])[n:6]1[H:10])[H:7]>>[O:1](/[C:2]([N:3]1[C:4]([H:8])=[C:5]1[H:9])=[N:6]\[H:10])[H:7]"
O        2.10490816      -0.34774904      -0.13920663
C        0.82827051       0.08677266      -0.02843181
N       -0.09172873      -0.85809912      -0.35481517
C       -1.38342478      -0.83074909       0.18572484
C       -1.63702736       0.39358180      -0.06535125
N        0.53562880       1.31681858       0.18298146
H        2.07543928      -1.29713771      -0.29108536
H       -1.91964960      -1.70621637       0.52270136
H       -1.87338972       1.37614748      -0.40642884
H        1.36097345       1.86663082       0.39391141
10
Frame=3 idx=004305 GeodesicLength=0.20066342416786093 rxn_smarts="[O:1]([c:2]1[n:3][c:4]([H:8])[c:5]([H:9])[n:6]1[H:10])[H:7]>>[O:1](/[C:2]([N:3]1[C:4]([H:8])=[C:5]1[H:9])=[N:6]\[H:10])[H:7]"
O        2.10794009      -0.34554911      -0.15019396
C        0.83051417       0.07226844      -0.00443618
N       -0.09277549      -0.86034876      -0.35821984
C       -1.37959979      -0.82375539       0.19935253
C       -1.60760186       0.40512440      -0.06373150
N        0.52221516       1.29933383       0.21194421
H        2.08305586      -1.29263325      -0.31748841
H       -1.92976578      -1.69226527       0.53007494
H       -1.87400032       1.36764831      -0.43918082
H        1.34001797       1.87017678       0.39187903
10
Frame=4 idx=004305 GeodesicLength=0.2677318349887682 rxn_smarts="[O:1]([c:2]1[n:3][c:4]([H:8])[c:5]([H:9])[n:6]1[H:10])[H:7]>>[O:1](/[C:2]([N:3]1[C:4]([H:8])=[C:5]1[H:9])=[N:6]\[H:10])[H:7]"
O        2.11056585      -0.34357673      -0.15982668
C        0.83291666       0.05836135       0.01511134
N       -0.09379117      -0.86212216      -0.36333640
C       -1.37541422      -0.81655209       0.21138441
C       -1.57869171       0.41590511      -0.06448240
N        0.50960810       1.28209018       0.23753267
H        2.09006476      -1.28864808      -0.33955447
H       -1.93843261      -1.67761146       0.53816081
H       -1.87504189       1.35939980      -0.46583560
H        1.31821623       1.87275405       0.39084632
10
Frame=5 idx=004305 GeodesicLength=0.33494665984703853 rxn_smarts="[O:1]([c:2]1[n:3][c:4]([H:8])[c:5]([H:9])[n:6]1[H:10])[H:7]>>[O:1](/[C:2]([N:3]1[C:4]([H:8])=[C:5]1[H:9])=[N:6]\[H:10])[H:7]"
O        2.11302143      -0.34207113      -0.16653144
C        0.83532859       0.04454601       0.03263061
N       -0.09467580      -0.86355318      -0.36934588
C       -1.37117018      -0.80940439       0.22173327
C       -1.55019758       0.42605255      -0.06682233
N        0.49766995       1.26472590       0.26254871
H        2.09672523      -1.28472867      -0.35971992
H       -1.94633842      -1.66278160       0.54577415
H       -1.87605085       1.35181571      -0.48724054
H        1.29568763       1.87539882       0.38697337
10
Frame=6 idx=004305 GeodesicLength=0.4022142079690166 rxn_smarts="[O:1]([c:2]1[n:3][c:4]([H:8])[c:5]([H:9])[n:6]1[H:10])[H:7]>>[O:1](/[C:2]([N:3]1[C:4]([H:8])=[C:5]1[H:9])=[N:6]\[H:10])[H:7]"
O        2.11542845      -0.34093068      -0.17118987
C        0.83776469       0.03092657       0.04803848
N       -0.09544218      -0.86483523      -0.37582683
C       -1.36685525      -0.80211784       0.23098198
C       -1.52213725       0.43556005      -0.07087048
N        0.48634562       1.24749446       0.28575331
H        2.10320028      -1.28075040      -0.37871232
H       -1.95352842      -1.64742540       0.55382037
H       -1.87727751       1.34458458      -0.50498908
H        1.27250158       1.87749391       0.38299445
10
Frame=7 idx=004305 GeodesicLength=0.46953378283683905 rxn_smarts="[O:1]([c:2]1[n:3][c:4]([H:8])[c:5]([H:9])[n:6]1[H:10])[H:7]>>[O:1](/[C:2]([N:3]1[C:4]([H:8])=[C:5]1[H:9])=[N:6]\[H:10])[H:7]"
O        2.11780836      -0.34004670      -0.17477737
C        0.84018993       0.01765618       0.06118274
N       -0.09614260      -0.86610197      -0.38263230
C       -1.36242663      -0.79459495       0.23948984
C       -1.49450003       0.44443521      -0.07666519
N        0.47558073       1.23068849       0.30617859
H        2.10951457      -1.27679529      -0.39651754
H       -1.95996385      -1.63140169       0.56286305
H       -1.87897091       1.33744819      -0.52008067
H        1.24891044       1.87871254       0.38095883
10
Frame=8 idx=004305 GeodesicLength=0.5369117341376255 rxn_smarts="[O:1]([c:2]1[n:3][c:4]([H:8])[c:5]([H:9])[n:6]1[H:10])[H:7]>>[O:1](/[C:2]([N:3]1[C:4]([H:8])=[C:5]1[H:9])=[N:6]\[H:10])[H:7]"
O        2.12021663      -0.33948003      -0.17701703
C        0.84256189       0.00464274       0.07273568
N       -0.09675550      -0.86728545      -0.38971642
C       -1.35794377      -0.78691779       0.24714269
C       -1.46725887       0.45272946      -0.08381408
N        0.46529427       1.21417620       0.32473779
H        2.11569669      -1.27283968      -0.41328030
H       -1.96579997      -1.61492241       0.57224760
H       -1.88110734       1.33048679      -0.53238948
H        1.22509595       1.87941017       0.37935355
10
Frame=9 idx=004305 GeodesicLength=0.6043275705380475 rxn_smarts="[O:1]([c:2]1[n:3][c:4]([H:8])[c:5]([H:9])[n:6]1[H:10])[H:7]>>[O:1](/[C:2]([N:3]1[C:4]([H:8])=[C:5]1[H:9])=[N:6]\[H:10])[H:7]"
O        2.12261996      -0.33914618      -0.17848690
C        0.84487413      -0.00801037       0.08258522
N       -0.09732219      -0.86841889      -0.39711053
C       -1.35338120      -0.77905499       0.25407990
C       -1.44043036       0.46047015      -0.09227221
N        0.45542960       1.19812005       0.34105665
H        2.12175197      -1.26901944      -0.42873622
H       -1.97099528      -1.59797277       0.58214697
H       -1.88385112       1.32353980      -0.54230750
H        1.20130449       1.87949263       0.37904462
10
Frame=10 idx=004305 GeodesicLength=0.6717789265968045 rxn_smarts="[O:1]([c:2]1[n:3][c:4]([H:8])[c:5]([H:9])[n:6]1[H:10])[H:7]>>[O:1](/[C:2]([N:3]1[C:4]([H:8])=[C:5]1[H:9])=[N:6]\[H:10])[H:7]"
O        2.12504637      -0.33907603      -0.17910063
C        0.84709320      -0.02034181       0.09107379
N       -0.09782756      -0.86958032      -0.40465061
C       -1.34879321      -0.77100136       0.26034165
C       -1.41400128       0.46766235      -0.10203842
N        0.44589516       1.18251789       0.35532834
H        2.12773065      -1.26521539      -0.44333458
H       -1.97564965      -1.58052263       0.59255754
H       -1.88716633       1.31652502      -0.55011825
H        1.17767266       1.87903228       0.37994117
10
Frame=11 idx=004305 GeodesicLength=0.7392583831906885 rxn_smarts="[O:1]([c:2]1[n:3][c:4]([H:8])[c:5]([H:9])[n:6]1[H:10])[H:7]>>[O:1](/[C:2]([N:3]1[C:4]([H:8])=[C:5]1[H:9])=[N:6]\[H:10])[H:7]"
O        2.12748951      -0.33926609      -0.17894318
C        0.84919887      -0.03233904       0.09832805
N       -0.09828101      -0.87075740      -0.41237367
C       -1.34418923      -0.76277131       0.26591399
C       -1.38797406       0.47433679      -0.11300132
N        0.43662791       1.16737996       0.36771538
H        2.13364183      -1.26147131      -0.45700324
H       -1.97977475      -1.56261893       0.60335581
H       -1.89105240       1.30939789      -0.55584464
H        1.15431332       1.87810944       0.38185283
10
Frame=12 idx=004305 GeodesicLength=0.806763091688166 rxn_smarts="[O:1]([c:2]1[n:3][c:4]([H:8])[c:5]([H:9])[n:6]1[H:10])[H:7]>>[O:1](/[C:2]([N:3]1[C:4]([H:8])=[C:5]1[H:9])=[N:6]\[H:10])[H:7]"
O        2.12993306      -0.33971061      -0.17802147
C        0.85117783      -0.04402778       0.10451523
N       -0.09869861      -0.87195447      -0.42024394
C       -1.33959987      -0.75436066       0.27083085
C       -1.36235195       0.48052470      -0.12504539
N        0.42757749       1.15268894       0.37839178
H        2.13948370      -1.25774308      -0.46991968
H       -1.98341685      -1.54426324       0.61449329
H       -1.89539083       1.30204329      -0.55968434
H        1.13128602       1.87680291       0.38468367
10
Frame=13 idx=004305 GeodesicLength=0.8742851313992865 rxn_smarts="[O:1]([c:2]1[n:3][c:4]([H:8])[c:5]([H:9])[n:6]1[H:10])[H:7]>>[O:1](/[C:2]([N:3]1[C:4]([H:8])=[C:5]1[H:9])=[N:6]\[H:10])[H:7]"
O        2.13236025      -0.34040263      -0.17644999
C        0.85300335      -0.05538743       0.10972696
N       -0.09910212      -0.87311117      -0.42834465
C       -1.33502594      -0.74580112       0.27506843
C       -1.33714993       0.48627185      -0.13799188
N        0.41869882       1.13844274       0.38755272
H        2.14525686      -1.25410688      -0.48191170
H       -1.98656572      -1.52554198       0.62580559
H       -1.90008364       1.29444784      -0.56159920
H        1.10860806       1.87518877       0.38814371
10
Frame=14 idx=004305 GeodesicLength=0.9418209247984185 rxn_smarts="[O:1]([c:2]1[n:3][c:4]([H:8])[c:5]([H:9])[n:6]1[H:10])[H:7]>>[O:1](/[C:2]([N:3]1[C:4]([H:8])=[C:5]1[H:9])=[N:6]\[H:10])[H:7]"
O        2.13473278      -0.34132223      -0.17432252
C        0.85465691      -0.06641941       0.11404355
N       -0.09953362      -0.87417759      -0.43669948
C       -1.33048101      -0.73710336       0.27868630
C       -1.31240116       0.49163192      -0.15162520
N        0.40995895       1.12463364       0.39534950
H        2.15093680      -1.25056858      -0.49304691
H       -1.98922232      -1.50650091       0.63726148
H       -1.90492538       1.28650433      -0.56185182
H        1.08627806       1.87332219       0.39220510
10
Frame=15 idx=004305 GeodesicLength=1.0093731791567488 rxn_smarts="[O:1]([c:2]1[n:3][c:4]([H:8])[c:5]([H:9])[n:6]1[H:10])[H:7]>>[O:1](/[C:2]([N:3]1[C:4]([H:8])=[C:5]1[H:9])=[N:6]\[H:10])[H:7]"
O        2.13701018      -0.34245640      -0.17168698
C        0.85610964      -0.07714472       0.11758335
N       -0.10004632      -0.87509820      -0.44530140
C       -1.32598558      -0.72829080       0.28177698
C       -1.28814588       0.49666855      -0.16566333
N        0.40132757       1.11123555       0.40199978
H        2.15647459      -1.24707337      -0.50353102
H       -1.99139337      -1.48720329       0.64885834
H       -1.90963143       1.27810620      -0.56086114
H        1.06428060       1.87125648       0.39682541
10
Frame=16 idx=004305 GeodesicLength=1.0769318136267172 rxn_smarts="[O:1]([c:2]1[n:3][c:4]([H:8])[c:5]([H:9])[n:6]1[H:10])[H:7]>>[O:1](/[C:2]([N:3]1[C:4]([H:8])=[C:5]1[H:9])=[N:6]\[H:10])[H:7]"
O        2.13914290      -0.34377285      -0.16873467
C        0.85734284      -0.08752962       0.12036399
N       -0.10069947      -0.87575818      -0.45423364
C       -1.32152826      -0.71941480       0.28441866
C       -1.26444200       0.50145124      -0.17977522
N        0.39279493       1.09825231       0.40766559
H        2.16183050      -1.24370447      -0.51324433
H       -1.99304429      -1.46779042       0.66051212
H       -1.91399035       1.26923077      -0.55889176
H        1.04259320       1.86903601       0.40191927
