14
Frame=0 idx=011479 GeodesicLength=0.0 rxn_smarts="[C:1]([C@@:2]([C:3]#[N:4])([C:5](=[O:6])[C:7]([H:12])([H:13])[H:14])[H:11])([H:8])([H:9])[H:10]>>[C:1]([C@@:2]1([H:11])[C:3]([N:4]=[O:6])=[C:5]1[C:7]([H:12])([H:13])[H:14])([H:8])([H:9])[H:10]"
C       -1.77340250      -0.67998970       0.10532849
C       -0.77996477       0.25354984      -0.54388942
C       -0.18294515       1.48092261       0.14600082
N       -0.23870280       1.53115960       1.49770285
C        0.63886422       0.36577107      -0.10448562
O        0.53738348       0.59165715       1.88562248
C        1.95589028      -0.16706373      -0.45160053
H       -1.62137258      -0.74258494       1.18144758
H       -2.78707167      -0.32448595      -0.08076636
H       -1.68296479      -1.68162057      -0.31993832
H       -0.90030267       0.33571521      -1.62483988
H        2.76692704       0.40651278      -0.00827390
H        2.04756830      -0.15823924      -1.54276794
H        2.02009360      -1.21130412      -0.13954020
14
Frame=1 idx=011479 GeodesicLength=0.1255267364475996 rxn_smarts="[C:1]([C@@:2]([C:3]#[N:4])([C:5](=[O:6])[C:7]([H:12])([H:13])[H:14])[H:11])([H:8])([H:9])[H:10]>>[C:1]([C@@:2]1([H:11])[C:3]([N:4]=[O:6])=[C:5]1[C:7]([H:12])([H:13])[H:14])([H:8])([H:9])[H:10]"
C       -1.77853040      -0.68239928       0.11123989
C       -0.77545254       0.23988990      -0.53951286
C       -0.19612809       1.47747526       0.13879839
N       -0.24583434       1.56898291       1.48457089
C        0.64092123       0.34546775      -0.08441775
O        0.54745278       0.60672450       1.88981208
C        1.95939221      -0.16887813      -0.45520748
H       -1.64262380      -0.72937222       1.19040996
H       -2.78921569      -0.32749674      -0.09170382
H       -1.68125000      -1.69029788      -0.29700952
H       -0.89044812       0.31561818      -1.62142564
H        2.77183188       0.36630518       0.03115897
H        2.06656992      -0.08947568      -1.54201857
H        2.01331497      -1.23254376      -0.21469453
14
Frame=2 idx=011479 GeodesicLength=0.25076544142688284 rxn_smarts="[C:1]([C@@:2]([C:3]#[N:4])([C:5](=[O:6])[C:7]([H:12])([H:13])[H:14])[H:11])([H:8])([H:9])[H:10]>>[C:1]([C@@:2]1([H:11])[C:3]([N:4]=[O:6])=[C:5]1[C:7]([H:12])([H:13])[H:14])([H:8])([H:9])[H:10]"
C       -1.78351543      -0.68494676       0.11697016
C       -0.77076643       0.22618353      -0.53483817
C       -0.20913451       1.47372386       0.13160334
N       -0.25283628       1.60707570       1.47000449
C        0.64301468       0.32497635      -0.06395803
O        0.55834187       0.62123392       1.89378171
C        1.96250070      -0.17062538      -0.45853186
H       -1.66367566      -0.71648938       1.19870413
H       -2.79101501      -0.33080475      -0.10266538
H       -1.67967932      -1.69876901      -0.27427083
H       -0.88043195       0.29555144      -1.61765250
H        2.77618422       0.32290275       0.06789571
H        2.08465184      -0.02130140      -1.53627046
H        2.00636127      -1.24871087      -0.29077230
14
Frame=3 idx=011479 GeodesicLength=0.3757615313576676 rxn_smarts="[C:1]([C@@:2]([C:3]#[N:4])([C:5](=[O:6])[C:7]([H:12])([H:13])[H:14])[H:11])([H:8])([H:9])[H:10]>>[C:1]([C@@:2]1([H:11])[C:3]([N:4]=[O:6])=[C:5]1[C:7]([H:12])([H:13])[H:14])([H:8])([H:9])[H:10]"
C       -1.78831636      -0.68764754       0.12250812
C       -0.76594015       0.21250501      -0.52988253
C       -0.22202150       1.46972999       0.12444439
N       -0.25968648       1.64542549       1.45396973
C        0.64513515       0.30440274      -0.04321130
O        0.57016191       0.63510934       1.89747067
C        1.96519084      -0.17229908      -0.46156235
H       -1.68444282      -0.70400349       1.20632988
H       -2.79245947      -0.33445959      -0.11360802
H       -1.67817111      -1.70703714      -0.25179065
H       -0.87033005       0.27562619      -1.61353559
H        2.77993622       0.27651854       0.10173485
H        2.10190292       0.04585245      -1.52562108
H        1.99904090      -1.25972291      -0.36724615
14
Frame=4 idx=011479 GeodesicLength=0.5005596165679598 rxn_smarts="[C:1]([C@@:2]([C:3]#[N:4])([C:5](=[O:6])[C:7]([H:12])([H:13])[H:14])[H:11])([H:8])([H:9])[H:10]>>[C:1]([C@@:2]1([H:11])[C:3]([N:4]=[O:6])=[C:5]1[C:7]([H:12])([H:13])[H:14])([H:8])([H:9])[H:10]"
C       -1.79291975      -0.69051437       0.12786201
C       -0.76100872       0.19890574      -0.52466016
C       -0.23483308       1.46554110       0.11734217
N       -0.26634765       1.68404728       1.43642606
C        0.64727621       0.28381806      -0.02226640
O        0.58299967       0.64827015       1.90083808
C        1.96746241      -0.17388741      -0.46430549
H       -1.70492753      -0.69190180       1.21331933
H       -2.79356156      -0.33853647      -0.12454464
H       -1.67664789      -1.71512828      -0.22955024
H       -0.86020911       0.25590676      -1.60909467
H        2.78304217       0.22732505       0.13254747
H        2.11846352       0.11170923      -1.51019708
H        1.99121130      -1.26555503      -0.44371645
14
Frame=5 idx=011479 GeodesicLength=0.625212025807955 rxn_smarts="[C:1]([C@@:2]([C:3]#[N:4])([C:5](=[O:6])[C:7]([H:12])([H:13])[H:14])[H:11])([H:8])([H:9])[H:10]>>[C:1]([C@@:2]1([H:11])[C:3]([N:4]=[O:6])=[C:5]1[C:7]([H:12])([H:13])[H:14])([H:8])([H:9])[H:10]"
C       -1.79725225      -0.69353847       0.13301105
C       -0.75600034       0.18547401      -0.51918833
C       -0.24765128       1.46120618       0.11032432
N       -0.27287484       1.72290250       1.41730072
C        0.64941807       0.26330560      -0.00122281
O        0.59692931       0.66060936       1.90380820
C        1.96928046      -0.17539115      -0.46672817
H       -1.72493211      -0.68034725       1.21964229
H       -2.79427916      -0.34297443      -0.13532807
H       -1.67504837      -1.72298514      -0.20771283
H       -0.85013898       0.23654036      -1.60432520
H        2.78536233       0.17569531       0.16012236
H        2.13438685       0.17572635      -1.49014901
H        1.98280030      -1.26622323      -0.51955451
14
Frame=6 idx=011479 GeodesicLength=0.7497472991439497 rxn_smarts="[C:1]([C@@:2]([C:3]#[N:4])([C:5](=[O:6])[C:7]([H:12])([H:13])[H:14])[H:11])([H:8])([H:9])[H:10]>>[C:1]([C@@:2]1([H:11])[C:3]([N:4]=[O:6])=[C:5]1[C:7]([H:12])([H:13])[H:14])([H:8])([H:9])[H:10]"
C       -1.80134977      -0.69672974       0.13795638
C       -0.75094672       0.17226132      -0.51347455
C       -0.26048474       1.45677138       0.10345863
N       -0.27920773       1.76201908       1.39661941
C        0.65156627       0.24289740       0.01986683
O        0.61200203       0.67197942       1.90641173
C        1.97069002      -0.17678645      -0.46885703
H       -1.74458831      -0.66926460       1.22534734
H       -2.79466457      -0.34786860      -0.14606688
H       -1.67332353      -1.73065691      -0.18622737
H       -0.84016223       0.21759941      -1.59925800
H        2.78691298       0.12198532       0.18427314
H        2.14976449       0.23761791      -1.46575848
H        1.97379181      -1.26182493      -0.59429114
14
Frame=7 idx=011479 GeodesicLength=0.8742124652680883 rxn_smarts="[C:1]([C@@:2]([C:3]#[N:4])([C:5](=[O:6])[C:7]([H:12])([H:13])[H:14])[H:11])([H:8])([H:9])[H:10]>>[C:1]([C@@:2]1([H:11])[C:3]([N:4]=[O:6])=[C:5]1[C:7]([H:12])([H:13])[H:14])([H:8])([H:9])[H:10]"
C       -1.80519437      -0.70008060       0.14269993
C       -0.74586715       0.15931753      -0.50752664
C       -0.27336937       1.45226959       0.09677614
N       -0.28536520       1.80141757       1.37431568
C        0.65371431       0.22261204       0.04095294
O        0.62823923       0.68225072       1.90864678
C        1.97169934      -0.17806297      -0.47068352
H       -1.76385904      -0.65869598       1.23045145
H       -2.79471477      -0.35319954      -0.15672340
H       -1.67144178      -1.73813387      -0.16513329
H       -0.83031655       0.19916080      -1.59389995
H        2.78762300       0.06657657       0.20488618
H        2.16466543       0.29707411      -1.43727052
H        1.96418694      -1.25250596      -0.66749177
14
Frame=8 idx=011479 GeodesicLength=0.9986341530091923 rxn_smarts="[C:1]([C@@:2]([C:3]#[N:4])([C:5](=[O:6])[C:7]([H:12])([H:13])[H:14])[H:11])([H:8])([H:9])[H:10]>>[C:1]([C@@:2]1([H:11])[C:3]([N:4]=[O:6])=[C:5]1[C:7]([H:12])([H:13])[H:14])([H:8])([H:9])[H:10]"
C       -1.80882910      -0.70359939       0.14726784
C       -0.74078241       0.14665566      -0.50135668
C       -0.28629098       1.44772301       0.09028916
N       -0.29129779       1.84116225       1.35030953
C        0.65587053       0.20243401       0.06200613
O        0.64565025       0.69128747       1.91056745
C        1.97235293      -0.17919483      -0.47222213
H       -1.78284067      -0.64859613       1.23501795
H       -2.79447787      -0.35901130      -0.16733815
H       -1.66942751      -1.74545741      -0.14435382
H       -0.82063131       0.18123347      -1.58828858
H        2.78748045       0.00977777       0.22192021
H        2.17923021       0.35400303      -1.40491682
H        1.95399329      -1.23841761      -0.73890207
14
Frame=9 idx=011479 GeodesicLength=1.123068427906232 rxn_smarts="[C:1]([C@@:2]([C:3]#[N:4])([C:5](=[O:6])[C:7]([H:12])([H:13])[H:14])[H:11])([H:8])([H:9])[H:10]>>[C:1]([C@@:2]1([H:11])[C:3]([N:4]=[O:6])=[C:5]1[C:7]([H:12])([H:13])[H:14])([H:8])([H:9])[H:10]"
C       -1.81215464      -0.70721944       0.15167132
C       -0.73569578       0.13432270      -0.49493638
C       -0.29935083       1.44311600       0.08402597
N       -0.29718704       1.88123277       1.32441395
C        0.65801586       0.18235404       0.08298151
O        0.66416680       0.69894341       1.91210169
C        1.97262925      -0.18020297      -0.47345935
H       -1.80135269      -0.63902692       1.23901538
H       -2.79387944      -0.36515660      -0.17774613
H       -1.66716518      -1.75251076      -0.12398422
H       -0.81113119       0.16387789      -1.58233255
H        2.78632733      -0.04809083       0.23531044
H        2.19345025       0.40806559      -1.36886288
H        1.94332731      -1.21970487      -0.80819875
14
Frame=10 idx=011479 GeodesicLength=1.2474983470211445 rxn_smarts="[C:1]([C@@:2]([C:3]#[N:4])([C:5](=[O:6])[C:7]([H:12])([H:13])[H:14])[H:11])([H:8])([H:9])[H:10]>>[C:1]([C@@:2]1([H:11])[C:3]([N:4]=[O:6])=[C:5]1[C:7]([H:12])([H:13])[H:14])([H:8])([H:9])[H:10]"
C       -1.81527515      -0.71096128       0.15592711
C       -0.73061991       0.12232642      -0.48827834
C       -0.31246846       1.43847565       0.07803723
N       -0.30290214       1.92171029       1.29658668
C        0.66017946       0.16233158       0.10388367
O        0.68376826       0.70499150       1.91341156
C        1.97260752      -0.18103545      -0.47442246
H       -1.81961252      -0.62991168       1.24252375
H       -2.79301218      -0.37171197      -0.18807514
H       -1.66475605      -1.75936996      -0.10392653
H       -0.80182354       0.14711006      -1.57610130
H        2.78427968      -0.10653285       0.24498028
H        2.20739242       0.45916949      -1.32948968
H        1.93224260      -1.19659179      -0.87505684
14
Frame=11 idx=011479 GeodesicLength=1.3719188519553163 rxn_smarts="[C:1]([C@@:2]([C:3]#[N:4])([C:5](=[O:6])[C:7]([H:12])([H:13])[H:14])[H:11])([H:8])([H:9])[H:10]>>[C:1]([C@@:2]1([H:11])[C:3]([N:4]=[O:6])=[C:5]1[C:7]([H:12])([H:13])[H:14])([H:8])([H:9])[H:10]"
C       -1.81818234      -0.71479778       0.16004043
C       -0.72554376       0.11070378      -0.48136511
C       -0.32563013       1.43381297       0.07239147
N       -0.30844538       1.96262884       1.26670632
C        0.66236833       0.14233235       0.12471051
O        0.70436583       0.70917027       1.91459188
C        1.97229765      -0.18167347      -0.47512470
H       -1.83764986      -0.62124275       1.24555527
H       -2.79185376      -0.37863451      -0.19833455
H       -1.66218926      -1.76601280      -0.08418750
H       -0.79269669       0.13099588      -1.56957587
H        2.78135358      -0.16501147       0.25086644
H        2.22099572       0.50709850      -1.28718009
H        1.92081008      -1.16936981      -0.93909452
14
Frame=12 idx=011479 GeodesicLength=1.4963836014083762 rxn_smarts="[C:1]([C@@:2]([C:3]#[N:4])([C:5](=[O:6])[C:7]([H:12])([H:13])[H:14])[H:11])([H:8])([H:9])[H:10]>>[C:1]([C@@:2]1([H:11])[C:3]([N:4]=[O:6])=[C:5]1[C:7]([H:12])([H:13])[H:14])([H:8])([H:9])[H:10]"
C       -1.82087752      -0.71869738       0.16401972
C       -0.72046791       0.09948366      -0.47418087
C       -0.33883944       1.42914528       0.06716131
N       -0.31385107       2.00405320       1.23462003
C        0.66460121       0.12231488       0.14546035
O        0.72585654       0.71121994       1.91577113
C        1.97172978      -0.18210080      -0.47558170
H       -1.85546627      -0.61302998       1.24813346
H       -2.79041371      -0.38584402      -0.20849306
H       -1.65947584      -1.77241689      -0.06480597
H       -0.78376458       0.11558177      -1.56274384
H        2.77761648      -0.22301743       0.25299137
H        2.23419388       0.55168362      -1.24233878
H        1.90915847      -1.13837584      -1.00001316
14
Frame=13 idx=011479 GeodesicLength=1.6208730816524055 rxn_smarts="[C:1]([C@@:2]([C:3]#[N:4])([C:5](=[O:6])[C:7]([H:12])([H:13])[H:14])[H:11])([H:8])([H:9])[H:10]>>[C:1]([C@@:2]1([H:11])[C:3]([N:4]=[O:6])=[C:5]1[C:7]([H:12])([H:13])[H:14])([H:8])([H:9])[H:10]"
C       -1.82336915      -0.72262460       0.16785841
C       -0.71538296       0.08870190      -0.46670522
C       -0.35205940       1.42448195       0.06244733
N       -0.31907235       2.04602122       1.20016356
C        0.66690348       0.10222440       0.16614742
O        0.74810922       0.71077735       1.91713538
C        1.97092708      -0.18226307      -0.47580265
H       -1.87308595      -0.60528025       1.25026849
H       -2.78869176      -0.39325849      -0.21856758
H       -1.65665312      -1.77855359      -0.04582833
H       -0.77503193       0.10094592      -1.55559258
H        2.77321188      -0.27989877       0.25140520
H        2.24678903       0.59277814      -1.19553727
H        1.89740594      -1.10405210      -1.05739215
14
Frame=14 idx=011479 GeodesicLength=1.745381807108381 rxn_smarts="[C:1]([C@@:2]([C:3]#[N:4])([C:5](=[O:6])[C:7]([H:12])([H:13])[H:14])[H:11])([H:8])([H:9])[H:10]>>[C:1]([C@@:2]1([H:11])[C:3]([N:4]=[O:6])=[C:5]1[C:7]([H:12])([H:13])[H:14])([H:8])([H:9])[H:10]"
C       -1.82566261      -0.72656177       0.17158940
C       -0.71027495       0.07838541      -0.45890507
C       -0.36527343       1.41984185       0.05833670
N       -0.32412116       2.08863111       1.16308320
C        0.66929966       0.08203165       0.18677175
O        0.77097465       0.70754640       1.91885811
C        1.96991506      -0.18214791      -0.47581089
H       -1.89056976      -0.59796410       1.25200038
H       -2.78668430      -0.40086410      -0.22855373
H       -1.65371551      -1.78442105      -0.02721693
H       -0.76647828       0.08712663      -1.54809334
H        2.76824918      -0.33526932       0.24622624
H        2.25878824       0.63040470      -1.14714649
H        1.88555321      -1.06673952      -1.11113934
14
Frame=15 idx=011479 GeodesicLength=1.8698902196701626 rxn_smarts="[C:1]([C@@:2]([C:3]#[N:4])([C:5](=[O:6])[C:7]([H:12])([H:13])[H:14])[H:11])([H:8])([H:9])[H:10]>>[C:1]([C@@:2]1([H:11])[C:3]([N:4]=[O:6])=[C:5]1[C:7]([H:12])([H:13])[H:14])([H:8])([H:9])[H:10]"
C       -1.82774393      -0.73048263       0.17523479
C       -0.70513252       0.06856921      -0.45074654
C       -0.37847037       1.41524006       0.05494012
N       -0.32899480       2.13196897       1.12306035
C        0.67181381       0.06170139       0.20733693
O        0.79429636       0.70118462       1.92114510
C        1.96870520      -0.18171643      -0.47561350
H       -1.90791023      -0.59109267       1.25336323
H       -2.78437427      -0.40860347      -0.23842135
H       -1.65065948      -1.78999728      -0.00899256
H       -0.75810191       0.07418795      -1.54021630
H        2.76284540      -0.38873426       0.23762747
H        2.27010064       0.66459623      -1.09760645
H        1.87362610      -1.02682169      -1.16111128
14
Frame=16 idx=011479 GeodesicLength=1.9943754771699371 rxn_smarts="[C:1]([C@@:2]([C:3]#[N:4])([C:5](=[O:6])[C:7]([H:12])([H:13])[H:14])[H:11])([H:8])([H:9])[H:10]>>[C:1]([C@@:2]1([H:11])[C:3]([N:4]=[O:6])=[C:5]1[C:7]([H:12])([H:13])[H:14])([H:8])([H:9])[H:10]"
C       -1.82960708      -0.73436231       0.17881541
C       -0.69994456       0.05929643      -0.44218498
C       -0.39163650       1.41069348       0.05241140
N       -0.33366443       2.17612008       1.07971082
C        0.67447382       0.04119040       0.22784822
O        0.81791446       0.69128914       1.92423404
C        1.96731141      -0.18092928      -0.47521771
H       -1.92511559      -0.58468467       1.25439083
H       -2.78174984      -0.41641721      -0.24814854
H       -1.64748968      -1.79526421       0.00881447
H       -0.74989984       0.06222291      -1.53192157
H        2.75715846      -0.43985572       0.22580906
H        2.28061538       0.69542913      -1.04739125
H        1.86163399      -0.98472817      -1.20717020
