15
Frame=0 idx=005054 GeodesicLength=0.0 rxn_smarts="[C:1]([O:2][C:3]([C:4]([H:10])([H:11])[H:12])([C:5]([H:13])([H:14])[H:15])[H:9])([H:6])([H:7])[H:8]>>[C:1]([O+:2]=[C-:3][C:4]([H:10])([H:11])[H:12])([H:6])([H:7])[H:8].[C:5]([H:9])([H:13])([H:14])[H:15]"
C        2.04532086      -0.41682919      -0.46666813
O        0.69469916      -0.83934916      -0.51782675
C       -0.19780671       0.15284552      -0.64251954
C       -1.56691596      -0.39335898      -0.88861065
C       -0.52461215       0.75073651       1.43385147
H        2.66435437      -1.30779817      -0.55672575
H        2.25181513       0.07023697       0.49174745
H        2.25933221       0.27988319      -1.27911682
H       -0.09684124       1.06626489       0.14066105
H       -1.82179895      -1.24896809      -0.25231660
H       -1.59470747      -0.73658355      -1.92585394
H       -2.32081924       0.38343347      -0.77214317
H       -1.51212293       1.19641662       1.52975515
H        0.23004643       1.33305224       1.96308970
H       -0.50994356      -0.28998223       1.74267648
15
Frame=1 idx=005054 GeodesicLength=0.07456669574247142 rxn_smarts="[C:1]([O:2][C:3]([C:4]([H:10])([H:11])[H:12])([C:5]([H:13])([H:14])[H:15])[H:9])([H:6])([H:7])[H:8]>>[C:1]([O+:2]=[C-:3][C:4]([H:10])([H:11])[H:12])([H:6])([H:7])[H:8].[C:5]([H:9])([H:13])([H:14])[H:15]"
C        2.04934338      -0.41905803      -0.48677070
O        0.69778495      -0.84124982      -0.48661299
C       -0.19596517       0.15020369      -0.61417750
C       -1.55781835      -0.39482010      -0.89911094
C       -0.53799008       0.75022922       1.45409018
H        2.66500075      -1.31628248      -0.52348393
H        2.27628051       0.13388348       0.43029375
H        2.25115999       0.21656205      -1.35093490
H       -0.09529113       1.08601822       0.16751265
H       -1.82190653      -1.26076339      -0.28110244
H       -1.56791395      -0.71690396      -1.94338052
H       -2.31536011       0.37872817      -0.78192064
H       -1.52006341       1.20872229       1.54799295
H        0.21866545       1.31437429       2.00003745
H       -0.54592631      -0.28964363       1.76756758
15
Frame=2 idx=005054 GeodesicLength=0.14758753601143884 rxn_smarts="[C:1]([O:2][C:3]([C:4]([H:10])([H:11])[H:12])([C:5]([H:13])([H:14])[H:15])[H:9])([H:6])([H:7])[H:8]>>[C:1]([O+:2]=[C-:3][C:4]([H:10])([H:11])[H:12])([H:6])([H:7])[H:8].[C:5]([H:9])([H:13])([H:14])[H:15]"
C        2.05191669      -0.42147429      -0.50616243
O        0.70104021      -0.84251273      -0.45652727
C       -0.19455029       0.14772982      -0.58638476
C       -1.54809118      -0.39622828      -0.90974098
C       -0.55028961       0.74978714       1.47389103
H        2.66691922      -1.31984903      -0.48872252
H        2.29629958       0.19447011       0.36501201
H        2.24009526       0.15011695      -1.41700789
H       -0.09399147       1.10610807       0.19400127
H       -1.82009840      -1.27281553      -0.31077147
H       -1.54059204      -0.69630069      -1.96050701
H       -2.30978499       0.37338837      -0.79100621
H       -1.52646787       1.22138003       1.56687673
H        0.20873289       1.29508871       2.03558747
H       -0.58113801      -0.28888864       1.79146206
15
Frame=3 idx=005054 GeodesicLength=0.21945249169644498 rxn_smarts="[C:1]([O:2][C:3]([C:4]([H:10])([H:11])[H:12])([C:5]([H:13])([H:14])[H:15])[H:9])([H:6])([H:7])[H:8]>>[C:1]([O+:2]=[C-:3][C:4]([H:10])([H:11])[H:12])([H:6])([H:7])[H:8].[C:5]([H:9])([H:13])([H:14])[H:15]"
C        2.05318223      -0.42409448      -0.52492746
O        0.70444231      -0.84326854      -0.42743866
C       -0.19354447       0.14534031      -0.55907886
C       -1.53777189      -0.39756461      -0.92051799
C       -0.56164701       0.74942350       1.49331611
H        2.67012636      -1.31853851      -0.45301342
H        2.31198197       0.25179822       0.29607401
H        2.22660823       0.08082134      -1.47729116
H       -0.09287109       1.12647997       0.22021689
H       -1.81648448      -1.28506402      -0.34134160
H       -1.51277458      -0.67475665      -1.97721663
H       -2.30412597       0.36745010      -0.79951282
H       -1.53148255       1.23439540       1.58640129
H        0.20005283       1.27526357       2.06986337
H       -0.61569187      -0.28768558       1.81446693
15
Frame=4 idx=005054 GeodesicLength=0.29058666788371135 rxn_smarts="[C:1]([O:2][C:3]([C:4]([H:10])([H:11])[H:12])([C:5]([H:13])([H:14])[H:15])[H:9])([H:6])([H:7])[H:8]>>[C:1]([O+:2]=[C-:3][C:4]([H:10])([H:11])[H:12])([H:6])([H:7])[H:8].[C:5]([H:9])([H:13])([H:14])[H:15]"
C        2.05333576      -0.42692865      -0.54316566
O        0.70801711      -0.84364720      -0.39920078
C       -0.19293459       0.14296457      -0.53218118
C       -1.52692571      -0.39882539      -0.93144960
C       -0.57221517       0.74916295       1.51243321
H        2.67474284      -1.31240576      -0.41692814
H        2.32347950       0.30571548       0.22361593
H        2.21114882       0.00893192      -1.53179617
H       -0.09184381       1.14711731       0.24627327
H       -1.81119316      -1.29750769      -0.37284228
H       -1.48450717      -0.65228047      -1.99347589
H       -2.29847396       0.36094657      -0.80753568
H       -1.53522987       1.24792990       1.60654023
H        0.19248285       1.25484640       2.10304640
H       -0.64988342      -0.28601994       1.83666631
15
Frame=5 idx=005054 GeodesicLength=0.36083247288948334 rxn_smarts="[C:1]([O:2][C:3]([C:4]([H:10])([H:11])[H:12])([C:5]([H:13])([H:14])[H:15])[H:9])([H:6])([H:7])[H:8]>>[C:1]([O+:2]=[C-:3][C:4]([H:10])([H:11])[H:12])([H:6])([H:7])[H:8].[C:5]([H:9])([H:13])([H:14])[H:15]"
C        2.05218236      -0.43000503      -0.56092720
O        0.71162013      -0.84361623      -0.37177935
C       -0.19268909       0.14055336      -0.50569369
C       -1.51538262      -0.39992632      -0.94255185
C       -0.58201870       0.74894690       1.53127173
H        2.68019817      -1.30144666      -0.38068497
H        2.33050071       0.35606274       0.14771880
H        2.19410308      -0.06545813      -1.58050841
H       -0.09085518       1.16787609       0.27221004
H       -1.80405072      -1.30990789      -0.40528427
H       -1.45565889      -0.62872789      -2.00927244
H       -2.29256565       0.35385382      -0.81514417
H       -1.53779165       1.26150955       1.62735200
H        0.18570390       1.23411428       2.13511239
H       -0.68329587      -0.28382858       1.85818139
15
Frame=6 idx=005054 GeodesicLength=0.43054317082111115 rxn_smarts="[C:1]([O:2][C:3]([C:4]([H:10])([H:11])[H:12])([C:5]([H:13])([H:14])[H:15])[H:9])([H:6])([H:7])[H:8]>>[C:1]([O+:2]=[C-:3][C:4]([H:10])([H:11])[H:12])([H:6])([H:7])[H:8].[C:5]([H:9])([H:13])([H:14])[H:15]"
C        2.05003586      -0.43330749      -0.57817845
O        0.71532628      -0.84338318      -0.34522784
C       -0.19285753       0.13800441      -0.47963475
C       -1.50339009      -0.40094206      -0.95380629
C       -0.59110008       0.74886060       1.54977038
H        2.68685701      -1.28579094      -0.34520861
H        2.33319885       0.40229200       0.06912608
H        2.17596017      -0.14150819      -1.62311111
H       -0.08981983       1.18880585       0.29797714
H       -1.79535094      -1.32234127      -0.43856398
H       -1.42653455      -0.60432472      -2.02451117
H       -2.28668267       0.34622144      -0.82244914
H       -1.53917863       1.27549059       1.64869887
H        0.17976956       1.21300932       2.16613133
H       -0.71623340      -0.28108637       1.87898755
15
Frame=7 idx=005054 GeodesicLength=0.49971674546129796 rxn_smarts="[C:1]([O:2][C:3]([C:4]([H:10])([H:11])[H:12])([C:5]([H:13])([H:14])[H:15])[H:9])([H:6])([H:7])[H:8]>>[C:1]([O+:2]=[C-:3][C:4]([H:10])([H:11])[H:12])([H:6])([H:7])[H:8].[C:5]([H:9])([H:13])([H:14])[H:15]"
C        2.04686072      -0.43684042      -0.59495363
O        0.71907782      -0.84298482      -0.31949560
C       -0.19343606       0.13524606      -0.45398247
C       -1.49091111      -0.40184287      -0.96522118
C       -0.59948654       0.74888266       1.56793826
H        2.69445007      -1.26549257      -0.31080693
H        2.33143871       0.44425983      -0.01192297
H        2.15708227      -0.21895992      -1.65963233
H       -0.08866259       1.20982203       0.32361217
H       -1.78505132      -1.33470833      -0.47271497
H       -1.39713258      -0.57900040      -2.03916805
H       -2.28075353       0.33802122      -0.82949694
H       -1.53939460       1.28976034       1.67055355
H        0.17454245       1.19158654       2.19614201
H       -0.74862372      -0.27774935       1.89914908
15
Frame=8 idx=005054 GeodesicLength=0.568565532021843 rxn_smarts="[C:1]([O:2][C:3]([C:4]([H:10])([H:11])[H:12])([C:5]([H:13])([H:14])[H:15])[H:9])([H:6])([H:7])[H:8]>>[C:1]([O+:2]=[C-:3][C:4]([H:10])([H:11])[H:12])([H:6])([H:7])[H:8].[C:5]([H:9])([H:13])([H:14])[H:15]"
C        2.04279142      -0.44059375      -0.61128055
O        0.72289200      -0.84250801      -0.29452830
C       -0.19444030       0.13222261      -0.42870820
C       -1.47803382      -0.40263113      -0.97680449
C       -0.60723762       0.74902156       1.58578987
H        2.70296795      -1.24066393      -0.27787106
H        2.32528697       0.48186704      -0.09514711
H        2.13789151      -0.29751571      -1.69010857
H       -0.08729756       1.23092804       0.34917166
H       -1.77324989      -1.34701663      -0.50776775
H       -1.36756602      -0.55275238      -2.05320875
H       -2.27489057       0.32925555      -0.83634710
H       -1.53846097       1.30442150       1.69288091
H        0.16998154       1.16977663       2.22523886
H       -0.78063464      -0.27381140       1.91869058
15
Frame=9 idx=005054 GeodesicLength=0.636928237036956 rxn_smarts="[C:1]([O:2][C:3]([C:4]([H:10])([H:11])[H:12])([C:5]([H:13])([H:14])[H:15])[H:9])([H:6])([H:7])[H:8]>>[C:1]([O+:2]=[C-:3][C:4]([H:10])([H:11])[H:12])([H:6])([H:7])[H:8].[C:5]([H:9])([H:13])([H:14])[H:15]"
C        2.03765224      -0.44463845      -0.62724221
O        0.72662995      -0.84194709      -0.27042112
C       -0.19584295       0.12888430      -0.40386496
C       -1.46458720      -0.40321348      -0.98852135
C       -0.61438939       0.74923334       1.60334136
H        2.71172864      -1.21136147      -0.24648508
H        2.31443108       0.51487357      -0.18044100
H        2.11898482      -0.37696436      -1.71467551
H       -0.08570480       1.25200119       0.37463388
H       -1.75977106      -1.35902463      -0.54368793
H       -1.33770256      -0.52544267      -2.06658467
H       -2.26882815       0.31991981      -0.84292907
H       -1.53650349       1.31905579       1.71576234
H        0.16578100       1.14787531       2.25335991
H       -0.81187811      -0.26925116       1.93775542
15
Frame=10 idx=005054 GeodesicLength=0.7050002437256824 rxn_smarts="[C:1]([O:2][C:3]([C:4]([H:10])([H:11])[H:12])([C:5]([H:13])([H:14])[H:15])[H:9])([H:6])([H:7])[H:8]>>[C:1]([O+:2]=[C-:3][C:4]([H:10])([H:11])[H:12])([H:6])([H:7])[H:8].[C:5]([H:9])([H:13])([H:14])[H:15]"
C        2.03169969      -0.44888063      -0.64271520
O        0.73034229      -0.84145094      -0.24715982
C       -0.19771725       0.12513963      -0.37945484
C       -1.45085342      -0.40366866      -1.00040285
C       -0.62089199       0.74955216       1.62050690
H        2.72096152      -1.17777654      -0.21727374
H        2.29911203       0.54307280      -0.26698613
H        2.10065755      -0.45662166      -1.73317291
H       -0.08377937       1.27308681       0.39997038
H       -1.74492234      -1.37081535      -0.58045280
H       -1.30790412      -0.49725619      -2.07924960
H       -2.26287783       0.31002529      -0.84942150
H       -1.53339305       1.33393975       1.73902368
H        0.16215050       1.12570638       2.28053256
H       -0.84258423      -0.26405284       1.95625590
15
Frame=11 idx=005054 GeodesicLength=0.7728177886956996 rxn_smarts="[C:1]([O:2][C:3]([C:4]([H:10])([H:11])[H:12])([C:5]([H:13])([H:14])[H:15])[H:9])([H:6])([H:7])[H:8]>>[C:1]([O+:2]=[C-:3][C:4]([H:10])([H:11])[H:12])([H:6])([H:7])[H:8].[C:5]([H:9])([H:13])([H:14])[H:15]"
C        2.02490301      -0.45332580      -0.65771013
O        0.73396111      -0.84107665      -0.22476559
C       -0.20007516       0.12091595      -0.35549715
C       -1.43682014      -0.40396683      -1.01245719
C       -0.62674551       0.74995503       1.63729267
H        2.73031029      -1.13995192      -0.19033699
H        2.27921110       0.56637717      -0.35455680
H        2.08335401      -0.53626236      -1.74572634
H       -0.08146164       1.29412320       0.42518422
H       -1.72867092      -1.38230396      -0.61811533
H       -1.27820764      -0.46811070      -2.09118958
H       -2.25699566       0.29954257      -0.85581240
H       -1.52908682       1.34900959       1.76267617
H        0.15903544       1.10326894       2.30676330
H       -0.87271146      -0.25819423       1.97425115
15
Frame=12 idx=005054 GeodesicLength=0.8405491196244725 rxn_smarts="[C:1]([O:2][C:3]([C:4]([H:10])([H:11])[H:12])([C:5]([H:13])([H:14])[H:15])[H:9])([H:6])([H:7])[H:8]>>[C:1]([O+:2]=[C-:3][C:4]([H:10])([H:11])[H:12])([H:6])([H:7])[H:8].[C:5]([H:9])([H:13])([H:14])[H:15]"
C        2.01734739      -0.45797291      -0.67225722
O        0.73746491      -0.84091760      -0.20325022
C       -0.20293950       0.11615421      -0.33200538
C       -1.42253907      -0.40408060      -1.02468581
C       -0.63199234       0.75042900       1.65372083
H        2.73956573      -1.09792335      -0.16581391
H        2.25474399       0.58471825      -0.44299784
H        2.06759215      -0.61572774      -1.75245407
H       -0.07869598       1.31511144       0.45028503
H       -1.71105831      -1.39345923      -0.65670954
H       -1.24869492      -0.43791835      -2.10238545
H       -2.25124443       0.28847878      -0.86208645
H       -1.52358518       1.36430573       1.78675394
H        0.15640072       1.08048588       2.33208197
H       -0.90236517      -0.25168352       1.99180413
15
Frame=13 idx=005054 GeodesicLength=0.9080857881062407 rxn_smarts="[C:1]([O:2][C:3]([C:4]([H:10])([H:11])[H:12])([C:5]([H:13])([H:14])[H:15])[H:9])([H:6])([H:7])[H:8]>>[C:1]([O+:2]=[C-:3][C:4]([H:10])([H:11])[H:12])([H:6])([H:7])[H:8].[C:5]([H:9])([H:13])([H:14])[H:15]"
C        2.00891171      -0.46284617      -0.68622729
O        0.74068341      -0.84101115      -0.18270112
C       -0.20636329       0.11079722      -0.30906303
C       -1.40808601      -0.40392917      -1.03715799
C       -0.63646500       0.75088690       1.66972664
H        2.74814824      -1.05152415      -0.14334830
H        2.22552126       0.59790402      -0.53212576
H        2.05387346      -0.69475727      -1.75333086
H       -0.07541430       1.33593326       0.47524334
H       -1.69213622      -1.40407097      -0.69638298
H       -1.21958702      -0.40658424      -2.11284399
H       -2.24562041       0.27681338      -0.86830532
H       -1.51676108       1.37947778       1.81120519
H        0.15435342       1.05747763       2.35637992
H       -0.93105817      -0.24456708       2.00893156
15
Frame=14 idx=005054 GeodesicLength=0.9756325043379315 rxn_smarts="[C:1]([O:2][C:3]([C:4]([H:10])([H:11])[H:12])([C:5]([H:13])([H:14])[H:15])[H:9])([H:6])([H:7])[H:8]>>[C:1]([O+:2]=[C-:3][C:4]([H:10])([H:11])[H:12])([H:6])([H:7])[H:8].[C:5]([H:9])([H:13])([H:14])[H:15]"
C        1.99980874      -0.46788680      -0.69964088
O        0.74364959      -0.84151957      -0.16314145
C       -0.21038113       0.10474256      -0.28666979
C       -1.39357215      -0.40355949      -1.04983046
C       -0.64024613       0.75137917       1.68528559
H        2.75599148      -1.00107654      -0.12362926
H        2.19180662       0.60573183      -0.62123458
H        2.04265224      -0.77276509      -1.74844691
H       -0.07157503       1.35663887       0.50000039
H       -1.67206800      -1.41416186      -0.73700233
H       -1.19097465      -0.37421792      -2.12248218
H       -2.24024792       0.26459145      -0.87451616
H       -1.50863985       1.39474122       1.83599852
H        0.15286723       1.03415553       2.37963510
H       -0.95907105      -0.23679337       2.02567440
15
Frame=15 idx=005054 GeodesicLength=1.0432443818006207 rxn_smarts="[C:1]([O:2][C:3]([C:4]([H:10])([H:11])[H:12])([C:5]([H:13])([H:14])[H:15])[H:9])([H:6])([H:7])[H:8]>>[C:1]([O+:2]=[C-:3][C:4]([H:10])([H:11])[H:12])([H:6])([H:7])[H:8].[C:5]([H:9])([H:13])([H:14])[H:15]"
C        1.98999689      -0.47309263      -0.71242889
O        0.74624694      -0.84254082      -0.14460714
C       -0.21503795       0.09788426      -0.26485375
C       -1.37904679      -0.40294893      -1.06273747
C       -0.64325581       0.75188252       1.70035761
H        2.76259529      -0.94654455      -0.10665143
H        2.15357681       0.60798051      -0.70998251
H        2.03437227      -0.84938375      -1.73784666
H       -0.06710221       1.37715022       0.52451945
H       -1.65087207      -1.42363773      -0.77870700
H       -1.16299233      -0.34071847      -2.13127933
H       -2.23514071       0.25174341      -0.88071538
H       -1.49908148       1.41002393       1.86108943
H        0.15201237       1.01052825       2.40177884
H       -0.98627123      -0.22832623       2.04206422
15
Frame=16 idx=005054 GeodesicLength=1.1110577572508793 rxn_smarts="[C:1]([O:2][C:3]([C:4]([H:10])([H:11])[H:12])([C:5]([H:13])([H:14])[H:15])[H:9])([H:6])([H:7])[H:8]>>[C:1]([O+:2]=[C-:3][C:4]([H:10])([H:11])[H:12])([H:6])([H:7])[H:8].[C:5]([H:9])([H:13])([H:14])[H:15]"
C        1.97950083      -0.47844992      -0.72453410
O        0.74838407      -0.84420255      -0.12712354
C       -0.22038899       0.09011571      -0.24363485
C       -1.36459308      -0.40207693      -1.07590573
C       -0.64544016       0.75238047       1.71490661
H        2.76751525      -0.88793845      -0.09247800
H        2.11091597       0.60442914      -0.79801047
H        2.02951149      -0.92422766      -1.72157810
H       -0.06192570       1.39742223       0.54875364
H       -1.62861485      -1.43241895      -0.82160552
H       -1.13578663      -0.30599542      -2.13919609
H       -2.23036663       0.23822676      -0.88691953
H       -1.48797719       1.42530250       1.88643913
H        0.15186461       0.98657376       2.42274178
H       -1.01259898      -0.21914067       2.05814479
