15
Frame=0 idx=006398 GeodesicLength=0.0 rxn_smarts="[C:1]([C@@:2]1([H:11])[O:3]/[C:4](=[N:5]\[H:12])[C@:6]1([N:7]([H:14])[H:15])[H:13])([H:8])([H:9])[H:10]>>[C:1]([C@@:2]1([H:11])[O:3][C:4](=[N:5][H:12])[C-:6]1[N+:7]([H:13])([H:14])[H:15])([H:8])([H:9])[H:10]"
C        1.69089787       0.04341733       0.56034456
C        0.85415887      -0.46153197      -0.58781266
O        0.12668946      -1.67955098      -0.22571034
C       -1.05736588      -0.96862802      -0.19456394
N       -2.16428550      -1.25285586       0.33385167
C       -0.49302817       0.20648972      -0.83774170
N       -0.94885907       1.51906139      -0.16994767
H        1.07741757       0.20334662       1.45017466
H        2.17684032       0.98521407       0.29261623
H        2.46962250      -0.67797148       0.80919173
H        1.45602742      -0.64827429      -1.47891066
H       -2.14580872      -2.17017298       0.76989233
H       -1.34212370       1.20957895      -1.21309406
H       -1.41591436       1.41783515       0.72718427
H       -0.28426867       2.27404239      -0.23547447
15
Frame=1 idx=006398 GeodesicLength=0.05194333144699283 rxn_smarts="[C:1]([C@@:2]1([H:11])[O:3]/[C:4](=[N:5]\[H:12])[C@:6]1([N:7]([H:14])[H:15])[H:13])([H:8])([H:9])[H:10]>>[C:1]([C@@:2]1([H:11])[O:3][C:4](=[N:5][H:12])[C-:6]1[N+:7]([H:13])([H:14])[H:15])([H:8])([H:9])[H:10]"
C        1.69627660       0.04522996       0.55495573
C        0.85242545      -0.46061430      -0.58750187
O        0.12717859      -1.67831138      -0.21943428
C       -1.05723139      -0.96894539      -0.18647653
N       -2.16911220      -1.26028197       0.32718352
C       -0.49579538       0.20794370      -0.82991310
N       -0.94942357       1.51802533      -0.17185609
H        1.08708136       0.21132597       1.44665003
H        2.18619483       0.98304952       0.28066717
H        2.47339040      -0.67800681       0.80361139
H        1.44918061      -0.64863636      -1.48182159
H       -2.14430089      -2.16732429       0.78395113
H       -1.32513823       1.21889149      -1.23640765
H       -1.46534907       1.41913782       0.69826445
H       -0.26537712       2.25851673      -0.18187232
15
Frame=2 idx=006398 GeodesicLength=0.10373950888646152 rxn_smarts="[C:1]([C@@:2]1([H:11])[O:3]/[C:4](=[N:5]\[H:12])[C@:6]1([N:7]([H:14])[H:15])[H:13])([H:8])([H:9])[H:10]>>[C:1]([C@@:2]1([H:11])[O:3][C:4](=[N:5][H:12])[C-:6]1[N+:7]([H:13])([H:14])[H:15])([H:8])([H:9])[H:10]"
C        1.70194702       0.04714674       0.54931596
C        0.85061428      -0.45975909      -0.58701571
O        0.12757543      -1.67691990      -0.21250296
C       -1.05703079      -0.96886356      -0.17716156
N       -2.17317673      -1.26672135       0.32306006
C       -0.49864089       0.20934411      -0.82178028
N       -0.94962640       1.51726381      -0.17373796
H        1.09747770       0.21907259       1.44314942
H        2.19512136       0.98123364       0.26835413
H        2.47782815      -0.67766634       0.79731741
H        1.44195146      -0.64932635      -1.48463647
H       -2.14433304      -2.16578632       0.79512813
H       -1.30662716       1.22805646      -1.25951961
H       -1.51395336       1.42194083       0.66611847
H       -0.24912701       2.24098472      -0.12608902
15
Frame=3 idx=006398 GeodesicLength=0.15541540996641967 rxn_smarts="[C:1]([C@@:2]1([H:11])[O:3]/[C:4](=[N:5]\[H:12])[C@:6]1([N:7]([H:14])[H:15])[H:13])([H:8])([H:9])[H:10]>>[C:1]([C@@:2]1([H:11])[O:3][C:4](=[N:5][H:12])[C-:6]1[N+:7]([H:13])([H:14])[H:15])([H:8])([H:9])[H:10]"
C        1.70765308       0.04885346       0.54348862
C        0.84885912      -0.45892227      -0.58673209
O        0.12790598      -1.67548582      -0.20590635
C       -1.05681567      -0.96858305      -0.16807439
N       -2.17686865      -1.27270234       0.31923901
C       -0.50132415       0.21088417      -0.81392346
N       -0.94963413       1.51653819      -0.17548903
H        1.10806666       0.22584286       1.43965461
H        2.20336300       0.97963223       0.25620868
H        2.48265603      -0.67733233       0.79031167
H        1.43478571      -0.65008646      -1.48759463
H       -2.14406097      -2.16263292       0.80807279
H       -1.28600726       1.23758312      -1.28271871
H       -1.56219383       1.42516303       0.63026291
H       -0.23638491       2.22124814      -0.06679963
15
Frame=4 idx=006398 GeodesicLength=0.2068639000658204 rxn_smarts="[C:1]([C@@:2]1([H:11])[O:3]/[C:4](=[N:5]\[H:12])[C@:6]1([N:7]([H:14])[H:15])[H:13])([H:8])([H:9])[H:10]>>[C:1]([C@@:2]1([H:11])[O:3][C:4](=[N:5][H:12])[C-:6]1[N+:7]([H:13])([H:14])[H:15])([H:8])([H:9])[H:10]"
C        1.71344682       0.05056408       0.53743392
C        0.84708131      -0.45815675      -0.58648324
O        0.12809804      -1.67395756      -0.19912847
C       -1.05662596      -0.96800601      -0.15864366
N       -2.18007476      -1.27773526       0.31698341
C       -0.50394961       0.21247000      -0.80618349
N       -0.94924388       1.51597119      -0.17712364
H        1.11904947       0.23186479       1.43623207
H        2.21076838       0.97853496       0.24403009
H        2.48804751      -0.67667351       0.78249891
H        1.42750023      -0.65115145      -1.49055808
H       -2.14435843      -2.15935345       0.82047762
H       -1.26347893       1.24724861      -1.30572831
H       -1.60897701       1.42925173       0.59101092
H       -0.22728320       2.19912863      -0.00481805
15
Frame=5 idx=006398 GeodesicLength=0.2581009304280522 rxn_smarts="[C:1]([C@@:2]1([H:11])[O:3]/[C:4](=[N:5]\[H:12])[C@:6]1([N:7]([H:14])[H:15])[H:13])([H:8])([H:9])[H:10]>>[C:1]([C@@:2]1([H:11])[O:3][C:4](=[N:5][H:12])[C-:6]1[N+:7]([H:13])([H:14])[H:15])([H:8])([H:9])[H:10]"
C        1.71932118       0.05239209       0.53112248
C        0.84522436      -0.45749000      -0.58618644
O        0.12809835      -1.67229799      -0.19191703
C       -1.05649716      -0.96706386      -0.14859756
N       -2.18278317      -1.28147561       0.31697905
C       -0.50658816       0.21406173      -0.79850320
N       -0.94831148       1.51564958      -0.17865119
H        1.13049839       0.23721512       1.43291098
H        2.21716933       0.97813517       0.23173802
H        2.49409517      -0.67549098       0.77378157
H        1.41999414      -0.65262987      -1.49344796
H       -2.14553860      -2.15680193       0.83125044
H       -1.23908280       1.25697521      -1.32840720
H       -1.65367405       1.43451078       0.54849270
H       -0.22192550       2.17431056       0.05943533
15
Frame=6 idx=006398 GeodesicLength=0.3091468397095613 rxn_smarts="[C:1]([C@@:2]1([H:11])[O:3]/[C:4](=[N:5]\[H:12])[C@:6]1([N:7]([H:14])[H:15])[H:13])([H:8])([H:9])[H:10]>>[C:1]([C@@:2]1([H:11])[O:3][C:4](=[N:5][H:12])[C-:6]1[N+:7]([H:13])([H:14])[H:15])([H:8])([H:9])[H:10]"
C        1.72522821       0.05442187       0.52454198
C        0.84325069      -0.45694907      -0.58580244
O        0.12785659      -1.67048036      -0.18413092
C       -1.05647414      -0.96571925      -0.13787931
N       -2.18502497      -1.28363375       0.31962912
C       -0.50927235       0.21564161      -0.79091171
N       -0.94668502       1.51561864      -0.18005987
H        1.14240280       0.24191565       1.42971277
H        2.22237690       0.97859978       0.21931857
H        2.50082691      -0.67362759       0.76410264
H        1.41223001      -0.65462097      -1.49620273
H       -2.14770159      -2.15546973       0.83981238
H       -1.21286212       1.26671361      -1.35063493
H       -1.69563356       1.44105013       0.50295676
H       -0.22051836       2.14653945       0.12554770
15
Frame=7 idx=006398 GeodesicLength=0.3599895290971481 rxn_smarts="[C:1]([C@@:2]1([H:11])[O:3]/[C:4](=[N:5]\[H:12])[C@:6]1([N:7]([H:14])[H:15])[H:13])([H:8])([H:9])[H:10]>>[C:1]([C@@:2]1([H:11])[O:3][C:4](=[N:5][H:12])[C-:6]1[N+:7]([H:13])([H:14])[H:15])([H:8])([H:9])[H:10]"
C        1.73082858       0.05639585       0.51785023
C        0.84126308      -0.45645483      -0.58567480
O        0.12742067      -1.66861978      -0.17681940
C       -1.05659837      -0.96422891      -0.12784859
N       -2.18683925      -1.28456013       0.32364904
C       -0.51185914       0.21731830      -0.78395485
N       -0.94437243       1.51564410      -0.18123758
H        1.15413001       0.24517684       1.42671395
H        2.22596762       0.97991781       0.20752071
H        2.50793374      -0.67133523       0.75350254
H        1.40463832      -0.65666317      -1.49904200
H       -2.14947846      -2.15292118       0.84962226
H       -1.18465399       1.27678111      -1.37242105
H       -1.73460711       1.44814814       0.45452639
H       -0.22377328       2.11540108       0.19361315
15
Frame=8 idx=006398 GeodesicLength=0.4107482226177052 rxn_smarts="[C:1]([C@@:2]1([H:11])[O:3]/[C:4](=[N:5]\[H:12])[C@:6]1([N:7]([H:14])[H:15])[H:13])([H:8])([H:9])[H:10]>>[C:1]([C@@:2]1([H:11])[O:3][C:4](=[N:5][H:12])[C-:6]1[N+:7]([H:13])([H:14])[H:15])([H:8])([H:9])[H:10]"
C        1.73611785       0.05849831       0.51102546
C        0.83919640      -0.45605331      -0.58568284
O        0.12673375      -1.66667920      -0.16959885
C       -1.05692726      -0.96254414      -0.11818601
N       -2.18818212      -1.28383430       0.32998942
C       -0.51444194       0.21902376      -0.77755881
N       -0.94115541       1.51582950      -0.18216731
H        1.16575601       0.24727994       1.42392408
H        2.22783220       0.98229314       0.19619349
H        2.51547596      -0.66833831       0.74197499
H        1.39710663      -0.65894387      -1.50184861
H       -2.15138541      -2.15036951       0.85901587
H       -1.15467502       1.28703399      -1.39356844
H       -1.76980503       1.45617696       0.40377163
H       -0.23164663       2.08062705       0.26271592
15
Frame=9 idx=006398 GeodesicLength=0.4614646308049022 rxn_smarts="[C:1]([C@@:2]1([H:11])[O:3]/[C:4](=[N:5]\[H:12])[C@:6]1([N:7]([H:14])[H:15])[H:13])([H:8])([H:9])[H:10]>>[C:1]([C@@:2]1([H:11])[O:3][C:4](=[N:5][H:12])[C-:6]1[N+:7]([H:13])([H:14])[H:15])([H:8])([H:9])[H:10]"
C        1.74088967       0.06069759       0.50419364
C        0.83706460      -0.45571112      -0.58592552
O        0.12580515      -1.66471571      -0.16283904
C       -1.05750956      -0.96081174      -0.10941992
N       -2.18900925      -1.28147939       0.33851297
C       -0.51702135       0.22076457      -0.77194494
N       -0.93691738       1.51608722      -0.18273332
H        1.17693262       0.24806000       1.42139966
H        2.22776162       0.98576842       0.18569158
H        2.52323644      -0.66464715       0.72967472
H        1.38980861      -0.66125660      -1.50466570
H       -2.15305051      -2.14735922       0.86867148
H       -1.12321091       1.29748918      -1.41390787
H       -1.80057831       1.46497094       0.35152232
H       -0.24420143       2.04214300       0.33176995
15
Frame=10 idx=006398 GeodesicLength=0.51198432053439 rxn_smarts="[C:1]([C@@:2]1([H:11])[O:3]/[C:4](=[N:5]\[H:12])[C@:6]1([N:7]([H:14])[H:15])[H:13])([H:8])([H:9])[H:10]>>[C:1]([C@@:2]1([H:11])[O:3][C:4](=[N:5][H:12])[C-:6]1[N+:7]([H:13])([H:14])[H:15])([H:8])([H:9])[H:10]"
C        1.74531637       0.06340723       0.49730955
C        0.83474618      -0.45555816      -0.58595479
O        0.12459666      -1.66262249      -0.15530970
C       -1.05835088      -0.95885998      -0.10031294
N       -2.18938166      -1.27699324       0.35054011
C       -0.51976726       0.22237428      -0.76661719
N       -0.93136351       1.51655717      -0.18277888
H        1.18806791       0.24864670       1.41907794
H        2.22605483       0.99044338       0.17531776
H        2.53129559      -0.65983867       0.71685175
H        1.38236588      -0.66418790      -1.50709735
H       -2.15614311      -2.14700147       0.87407097
H       -1.09130683       1.30747654      -1.43298429
H       -1.82569462       1.47494105       0.29979354
H       -0.26043557       2.00121555       0.39809352
15
Frame=11 idx=006398 GeodesicLength=0.5630731368242177 rxn_smarts="[C:1]([C@@:2]1([H:11])[O:3]/[C:4](=[N:5]\[H:12])[C@:6]1([N:7]([H:14])[H:15])[H:13])([H:8])([H:9])[H:10]>>[C:1]([C@@:2]1([H:11])[O:3][C:4](=[N:5][H:12])[C-:6]1[N+:7]([H:13])([H:14])[H:15])([H:8])([H:9])[H:10]"
C        1.74875390       0.06591838       0.49068564
C        0.83247378      -0.45531056      -0.58669029
O        0.12321958      -1.66067265      -0.14969242
C       -1.05957852      -0.95731914      -0.09398071
N       -2.18903895      -1.27131910       0.36366039
C       -0.52244063       0.22412541      -0.76276537
N       -0.92485482       1.51681262      -0.18228612
H        1.19780336       0.24720158       1.41707292
H        2.22208521       0.99605749       0.16676898
H        2.53903559      -0.65462927       0.70355584
H        1.37575528      -0.66640131      -1.50988121
H       -2.15723115      -2.14341526       0.88383572
H       -1.05788544       1.31813805      -1.45130712
H       -1.84654718       1.48517646       0.24724812
H       -0.28155000       1.95563727       0.46377563
15
Frame=12 idx=006398 GeodesicLength=0.6146233730816777 rxn_smarts="[C:1]([C@@:2]1([H:11])[O:3]/[C:4](=[N:5]\[H:12])[C@:6]1([N:7]([H:14])[H:15])[H:13])([H:8])([H:9])[H:10]>>[C:1]([C@@:2]1([H:11])[O:3][C:4](=[N:5][H:12])[C-:6]1[N+:7]([H:13])([H:14])[H:15])([H:8])([H:9])[H:10]"
C        1.75121839       0.06833307       0.48435303
C        0.83022131      -0.45503806      -0.58794424
O        0.12170997      -1.65889517      -0.14557351
C       -1.06111579      -0.95624867      -0.09006870
N       -2.18799649      -1.26463642       0.37759376
C       -0.52500118       0.22595928      -0.76011272
N       -0.91723146       1.51666181      -0.18084689
H        1.20621653       0.24421458       1.41531346
H        2.21605075       1.00246921       0.15974319
H        2.54629926      -0.64898989       0.68999747
H        1.36979332      -0.66804426      -1.51287599
H       -2.15688688      -2.13734806       0.89671030
H       -1.02346824       1.32928751      -1.46837368
H       -1.86262031       1.49543089       0.19521464
H       -0.30718918       1.90684418       0.52686989
15
Frame=13 idx=006398 GeodesicLength=0.666652960469982 rxn_smarts="[C:1]([C@@:2]1([H:11])[O:3]/[C:4](=[N:5]\[H:12])[C@:6]1([N:7]([H:14])[H:15])[H:13])([H:8])([H:9])[H:10]>>[C:1]([C@@:2]1([H:11])[O:3][C:4](=[N:5][H:12])[C-:6]1[N+:7]([H:13])([H:14])[H:15])([H:8])([H:9])[H:10]"
C        1.75291966       0.07094233       0.47834780
C        0.82789173      -0.45480191      -0.58939958
O        0.12003841      -1.65723981      -0.14212026
C       -1.06304849      -0.95553262      -0.08755624
N       -2.18631394      -1.25670328       0.39338002
C       -0.52772277       0.22773843      -0.75827349
N       -0.90855433       1.51631588      -0.17850755
H        1.21360880       0.24075722       1.41378780
H        2.20848956       1.00961236       0.15376207
H        2.55316922      -0.64270392       0.67661445
H        1.36424832      -0.66950921      -1.51583480
H       -2.15627525      -2.13141073       0.90919082
H       -0.98917132       1.34030241      -1.48411196
H       -1.87360333       1.50628814       0.14540487
H       -0.33567628       1.85594471       0.58531604
15
Frame=14 idx=006398 GeodesicLength=0.7192011375467446 rxn_smarts="[C:1]([C@@:2]1([H:11])[O:3]/[C:4](=[N:5]\[H:12])[C@:6]1([N:7]([H:14])[H:15])[H:13])([H:8])([H:9])[H:10]>>[C:1]([C@@:2]1([H:11])[O:3][C:4](=[N:5][H:12])[C-:6]1[N+:7]([H:13])([H:14])[H:15])([H:8])([H:9])[H:10]"
C        1.75360625       0.07359739       0.47284166
C        0.82546765      -0.45442733      -0.59114687
O        0.11823302      -1.65570425      -0.13984388
C       -1.06533224      -0.95529588      -0.08682834
N       -2.18382056      -1.24800065       0.41029860
C       -0.53059834       0.22951564      -0.75734064
N       -0.89900880       1.51562654      -0.17533970
H        1.21950269       0.23675183       1.41247910
H        2.19951702       1.01717383       0.14915244
H        2.55913360      -0.63604138       0.66383346
H        1.35926582      -0.67029794      -1.51879021
H       -2.15477349      -2.12489993       0.92239972
H       -0.95553956       1.35106582      -1.49862611
H       -1.87975333       1.51741679       0.09880058
H       -0.36589972       1.80351951       0.63811021
15
Frame=15 idx=006398 GeodesicLength=0.7722714254249412 rxn_smarts="[C:1]([C@@:2]1([H:11])[O:3]/[C:4](=[N:5]\[H:12])[C@:6]1([N:7]([H:14])[H:15])[H:13])([H:8])([H:9])[H:10]>>[C:1]([C@@:2]1([H:11])[O:3][C:4](=[N:5][H:12])[C-:6]1[N+:7]([H:13])([H:14])[H:15])([H:8])([H:9])[H:10]"
C        1.75340153       0.07615207       0.46786512
C        0.82302183      -0.45395632      -0.59324310
O        0.11635657      -1.65440675      -0.13896135
C       -1.06792409      -0.95561887      -0.08797150
N       -2.18075327      -1.23913141       0.42704058
C       -0.53356525       0.23132113      -0.75721777
N       -0.88882574       1.51444555      -0.17114151
H        1.22396946       0.23215904       1.41139087
H        2.18941998       1.02491000       0.14591390
H        2.56425469      -0.62927737       0.65165864
H        1.35485822      -0.67035871      -1.52188996
H       -2.15195667      -2.11688956       0.93765055
H       -0.92252249       1.36171940      -1.51190999
H       -1.88193961       1.52851627       0.05523171
H       -0.39779517       1.75041554       0.68558381
15
Frame=16 idx=006398 GeodesicLength=0.8256820209509208 rxn_smarts="[C:1]([C@@:2]1([H:11])[O:3]/[C:4](=[N:5]\[H:12])[C@:6]1([N:7]([H:14])[H:15])[H:13])([H:8])([H:9])[H:10]>>[C:1]([C@@:2]1([H:11])[O:3][C:4](=[N:5][H:12])[C-:6]1[N+:7]([H:13])([H:14])[H:15])([H:8])([H:9])[H:10]"
C        1.75236059       0.07857306       0.46346065
C        0.82052859      -0.45334535      -0.59561128
O        0.11442427      -1.65333888      -0.13941179
C       -1.07077524      -0.95647147      -0.09065155
N       -2.17729907      -1.23052785       0.44298358
C       -0.53668105       0.23313638      -0.75771494
N       -0.87827798       1.51269876      -0.16595082
H        1.22704021       0.22718020       1.41051119
H        2.17851615       1.03260621       0.14396554
H        2.56845219      -0.62255024       0.64028035
H        1.35095672      -0.66959543      -1.52509345
H       -2.14777269      -2.10754397       0.95479914
H       -0.89049899       1.37205985      -1.52405088
H       -1.88071871       1.53954675       0.01515400
H       -0.43025499       1.69757197       0.72733025
