13
Frame=0 idx=011824 GeodesicLength=0.0 rxn_smarts="[C:1]([C:2]([O:3][H:11])([C:4](=[O:5])[H:12])[C:6](=[O:7])[H:13])([H:8])([H:9])[H:10]>>[C:1](=[C:2]([C:4](=[O:5])[H:12])[C:6](=[O:7])[H:13])([H:9])[H:10].[O:3]([H:8])[H:11]"
C       -0.93512195      -0.96424051      -0.41986010
C       -0.01170316       0.08488214      -0.06238877
O       -0.21286423       0.00752448       1.60400781
C       -0.43380193       1.48384590      -0.41947391
O        0.27582991       2.25931832      -0.99627737
C        1.44769967      -0.20818940      -0.26731295
O        2.15642566      -0.64246871       0.60110625
H       -0.84874846      -0.82265589       1.14098650
H       -0.51909496      -1.87774870      -0.83046472
H       -1.88184895      -0.65370602      -0.85199248
H        0.62952148      -0.35604541       1.94010595
H       -1.47792286       1.72558229      -0.14598674
H        1.81162976      -0.03609845      -1.29244952
13
Frame=1 idx=011824 GeodesicLength=0.0917974959157094 rxn_smarts="[C:1]([C:2]([O:3][H:11])([C:4](=[O:5])[H:12])[C:6](=[O:7])[H:13])([H:8])([H:9])[H:10]>>[C:1](=[C:2]([C:4](=[O:5])[H:12])[C:6](=[O:7])[H:13])([H:9])[H:10].[O:3]([H:8])[H:11]"
C       -0.93734286      -0.96811067      -0.41999475
C       -0.01301626       0.08072171      -0.06692485
O       -0.21487399       0.01562443       1.61531632
C       -0.43788944       1.47949006      -0.41979301
O        0.27547625       2.26386142      -0.97969177
C        1.44493578      -0.21580904      -0.27438307
O        2.14849922      -0.69481181       0.57422505
H       -0.85711859      -0.83645828       1.16372215
H       -0.52260701      -1.88670663      -0.82133370
H       -1.86660018      -0.65611536      -0.88821985
H        0.64355353      -0.30358629       1.95287903
H       -1.48138309       1.72579829      -0.14720091
H        1.81836666      -0.00389782      -1.28860065
13
Frame=2 idx=011824 GeodesicLength=0.18360726537355299 rxn_smarts="[C:1]([C:2]([O:3][H:11])([C:4](=[O:5])[H:12])[C:6](=[O:7])[H:13])([H:8])([H:9])[H:10]>>[C:1](=[C:2]([C:4](=[O:5])[H:12])[C:6](=[O:7])[H:13])([H:9])[H:10].[O:3]([H:8])[H:11]"
C       -0.94032220      -0.97184419      -0.42032598
C       -0.01450355       0.07628010      -0.07194847
O       -0.21595158       0.02282570       1.62659531
C       -0.44189358       1.47502543      -0.42005273
O        0.27537665       2.26801685      -0.96260423
C        1.44192663      -0.22436632      -0.28169219
O        2.13935742      -0.74485637       0.54710757
H       -0.86559555      -0.85074311       1.18692634
H       -0.52720208      -1.89569130      -0.81211799
H       -1.85056915      -0.65881946      -0.92459120
H        0.65783644      -0.24981013       1.96290775
H       -1.48450457       1.72612204      -0.14760240
H        1.82604512       0.02786076      -1.28260179
13
Frame=3 idx=011824 GeodesicLength=0.27542570333655203 rxn_smarts="[C:1]([C:2]([O:3][H:11])([C:4](=[O:5])[H:12])[C:6](=[O:7])[H:13])([H:8])([H:9])[H:10]>>[C:1](=[C:2]([C:4](=[O:5])[H:12])[C:6](=[O:7])[H:13])([H:9])[H:10].[O:3]([H:8])[H:11]"
C       -0.94401035      -0.97540106      -0.42086027
C       -0.01613946       0.07161313      -0.07746308
O       -0.21597855       0.02918504       1.63785542
C       -0.44581213       1.47049489      -0.42025119
O        0.27544909       2.27175099      -0.94513729
C        1.43866613      -0.23375713      -0.28934763
O        2.12929256      -0.79263624       0.51972562
H       -0.87432224      -0.86530563       1.21062817
H       -0.53281562      -1.90468865      -0.80268716
H       -1.83370029      -0.66187415      -0.96104159
H        0.67204674      -0.19513787       1.97018936
H       -1.48729438       1.72654508      -0.14719361
H        1.83461850       0.05921161      -1.27441676
13
Frame=4 idx=011824 GeodesicLength=0.36725963752115853 rxn_smarts="[C:1]([C:2]([O:3][H:11])([C:4](=[O:5])[H:12])[C:6](=[O:7])[H:13])([H:8])([H:9])[H:10]>>[C:1](=[C:2]([C:4](=[O:5])[H:12])[C:6](=[O:7])[H:13])([H:9])[H:10].[O:3]([H:8])[H:11]"
C       -0.94834660      -0.97874544      -0.42161338
C       -0.01789155       0.06678125      -0.08348465
O       -0.21486356       0.03478117       1.64909115
C       -0.44966021       1.46594281      -0.42041029
O        0.27561208       2.27508411      -0.92740992
C        1.43517577      -0.24384448      -0.29743288
O        2.11851255      -0.83833471       0.49200134
H       -0.88337720      -0.87999877       1.23485492
H       -0.53936675      -1.91366732      -0.79297686
H       -1.81596365      -0.66535708      -0.99741388
H        0.68586836      -0.13988964       1.97477116
H       -1.48977012       1.72705888      -0.14599683
H        1.84407087       0.09018921      -1.26397987
13
Frame=5 idx=011824 GeodesicLength=0.4590209469737451 rxn_smarts="[C:1]([C:2]([O:3][H:11])([C:4](=[O:5])[H:12])[C:6](=[O:7])[H:13])([H:8])([H:9])[H:10]>>[C:1](=[C:2]([C:4](=[O:5])[H:12])[C:6](=[O:7])[H:13])([H:9])[H:10].[O:3]([H:8])[H:11]"
C       -0.95324703      -0.98184962      -0.42257436
C       -0.01971461       0.06184614      -0.09005284
O       -0.21256034       0.03978478       1.66027023
C       -0.45346577       1.46139654      -0.42061085
O        0.27579181       2.27808111      -0.90958967
C        1.43149265      -0.25449122      -0.30606444
O        2.10710039      -0.88218020       0.46397259
H       -0.89266712      -0.89471772       1.25970588
H       -0.54677175      -1.92258820      -0.78294976
H       -1.79738296      -0.66929838      -1.03361172
H        0.69909166      -0.08453132       1.97678922
H       -1.49194157       1.72764859      -0.14408263
H        1.85427464       0.12089951      -1.25120167
13
Frame=6 idx=011824 GeodesicLength=0.550813167406379 rxn_smarts="[C:1]([C:2]([O:3][H:11])([C:4](=[O:5])[H:12])[C:6](=[O:7])[H:13])([H:8])([H:9])[H:10]>>[C:1](=[C:2]([C:4](=[O:5])[H:12])[C:6](=[O:7])[H:13])([H:9])[H:10].[O:3]([H:8])[H:11]"
C       -0.95864291      -0.98468074      -0.42379142
C       -0.02158222       0.05686821      -0.09716693
O       -0.20900176       0.04423202       1.67138586
C       -0.45724096       1.45690214      -0.42085771
O        0.27589994       2.28073058      -0.89180072
C        1.42766538      -0.26551426      -0.31521773
O        2.09519193      -0.92450296       0.43535043
H       -0.90225141      -0.90940285       1.28516946
H       -0.55492944      -1.93137663      -0.77266336
H       -1.77797447      -0.67378850      -1.06938576
H        0.71143630      -0.02908874       1.97634717
H       -1.49384948       1.72831601      -0.14146947
H        1.86527910       0.15130573      -1.23589982
13
Frame=7 idx=011824 GeodesicLength=0.6426317333132487 rxn_smarts="[C:1]([C:2]([O:3][H:11])([C:4](=[O:5])[H:12])[C:6](=[O:7])[H:13])([H:8])([H:9])[H:10]>>[C:1](=[C:2]([C:4](=[O:5])[H:12])[C:6](=[O:7])[H:13])([H:9])[H:10].[O:3]([H:8])[H:11]"
C       -0.96445199      -0.98721190      -0.42527834
C       -0.02346147       0.05190356      -0.10484155
O       -0.20417164       0.04821175       1.68241327
C       -0.46100191       1.45249058      -0.42119634
O        0.27587444       2.28305513      -0.87418353
C        1.42374608      -0.27675280      -0.32489280
O        2.08283588      -0.96556861       0.40595343
H       -0.91207423      -0.92402626       1.31128692
H       -0.56373797      -1.93995839      -0.76216797
H       -1.75780117      -0.67887548      -1.10456154
H        0.72270558       0.02628170       1.97359368
H       -1.49550773       1.72905436      -0.13820530
H        1.87704613       0.18139636      -1.21791992
13
Frame=8 idx=011824 GeodesicLength=0.7344961212371525 rxn_smarts="[C:1]([C:2]([O:3][H:11])([C:4](=[O:5])[H:12])[C:6](=[O:7])[H:13])([H:8])([H:9])[H:10]>>[C:1](=[C:2]([C:4](=[O:5])[H:12])[C:6](=[O:7])[H:13])([H:9])[H:10].[O:3]([H:8])[H:11]"
C       -0.97059751      -0.98942148      -0.42705780
C       -0.02532836       0.04700276      -0.11309572
O       -0.19805300       0.05181177       1.69332374
C       -0.46476907       1.44818568      -0.42167320
O        0.27567845       2.28508978      -0.85687158
C        1.41978306      -0.28805315      -0.33508717
O        2.07005702      -1.00559851       0.37556567
H       -0.92203923      -0.93858691       1.33811416
H       -0.57310426      -1.94826581      -0.75154339
H       -1.73693523      -0.68459922      -1.13894669
H        0.73268495       0.08146027       1.96870058
H       -1.49692789       1.72986113      -0.13434203
H        1.88955107       0.21111370      -1.19708656
13
Frame=9 idx=011824 GeodesicLength=0.8263252256935036 rxn_smarts="[C:1]([C:2]([O:3][H:11])([C:4](=[O:5])[H:12])[C:6](=[O:7])[H:13])([H:8])([H:9])[H:10]>>[C:1](=[C:2]([C:4](=[O:5])[H:12])[C:6](=[O:7])[H:13])([H:9])[H:10].[O:3]([H:8])[H:11]"
C       -0.97697519      -0.99135002      -0.42914667
C       -0.02713076       0.04217091      -0.12195384
O       -0.19073180       0.05516444       1.70407166
C       -0.46854389       1.44395752      -0.42239791
O        0.27531194       2.28687225      -0.83999442
C        1.41582787      -0.29932433      -0.34581753
O        2.05675665      -1.04480695       0.34417159
H       -0.93191456      -0.95314550       1.36577794
H       -0.58291778      -1.95626334      -0.74091240
H       -1.71559022      -0.69086085      -1.17256209
H        0.74148692       0.13635563       1.96189686
H       -1.49810219       1.73071134      -0.12997449
H        1.90252301       0.24051891      -1.17315869
13
Frame=10 idx=011824 GeodesicLength=0.9182526441717768 rxn_smarts="[C:1]([C:2]([O:3][H:11])([C:4](=[O:5])[H:12])[C:6](=[O:7])[H:13])([H:8])([H:9])[H:10]>>[C:1](=[C:2]([C:4](=[O:5])[H:12])[C:6](=[O:7])[H:13])([H:9])[H:10].[O:3]([H:8])[H:11]"
C       -0.98356756      -0.99294355      -0.43157505
C       -0.02888418       0.03747284      -0.13144106
O       -0.18209765       0.05827284       1.71463238
C       -0.47233934       1.43986774      -0.42336890
O        0.27473919       2.28837732      -0.82370009
C        1.41191255      -0.31042857      -0.35708937
O        2.04305836      -1.08326380       0.31136509
H       -0.94167556      -0.96773398       1.39425992
H       -0.59313977      -1.96387724      -0.73035876
H       -1.69382483      -0.69777558      -1.20507591
H        0.74868599       0.19099502       1.95326131
H       -1.49902003       1.73163945      -0.12507618
H        1.91615284       0.26939753      -1.14583338
13
Frame=11 idx=011824 GeodesicLength=1.0102800736218944 rxn_smarts="[C:1]([C:2]([O:3][H:11])([C:4](=[O:5])[H:12])[C:6](=[O:7])[H:13])([H:8])([H:9])[H:10]>>[C:1](=[C:2]([C:4](=[O:5])[H:12])[C:6](=[O:7])[H:13])([H:9])[H:10].[O:3]([H:8])[H:11]"
C       -0.99029716      -0.99419431      -0.43436001
C       -0.03056037       0.03293988      -0.14155491
O       -0.17218313       0.06118822       1.72498613
C       -0.47614090       1.43593161      -0.42462051
O        0.27396846       2.28960831      -0.80809431
C        1.40808685      -0.32125126      -0.36884804
O        2.02897441      -1.12105479       0.27693612
H       -0.95117008      -0.98243343       1.42363041
H       -0.60366986      -1.97105227      -0.71996348
H       -1.67178204      -0.70531528      -1.23644639
H        0.75415430       0.24540463       1.94297299
H       -1.49966956       1.73265237      -0.11969135
H        1.93028906       0.29757634      -1.11494665
13
Frame=12 idx=011824 GeodesicLength=1.1023782785280476 rxn_smarts="[C:1]([C:2]([O:3][H:11])([C:4](=[O:5])[H:12])[C:6](=[O:7])[H:13])([H:8])([H:9])[H:10]>>[C:1](=[C:2]([C:4](=[O:5])[H:12])[C:6](=[O:7])[H:13])([H:9])[H:10].[O:3]([H:8])[H:11]"
C       -0.99709649      -0.99510706      -0.43752279
C       -0.03215109       0.02859924      -0.15229994
O       -0.16103396       0.06397638       1.73510483
C       -0.47994688       1.43216210      -0.42620092
O        0.27303936       2.29058737      -0.79326892
C        1.40439180      -0.33168271      -0.38106642
O        2.01450682      -1.15820076       0.24074113
H       -0.96025018      -0.99732951       1.45394790
H       -0.61440673      -1.97775081      -0.70981906
H       -1.64958899      -0.71345085      -1.26657902
H        0.75778175       0.29956357       1.93122738
H       -1.50002700       1.73376953      -0.11387517
H        1.94478159       0.32486351      -1.08038900
13
Frame=13 idx=011824 GeodesicLength=1.194526433833208 rxn_smarts="[C:1]([C:2]([O:3][H:11])([C:4](=[O:5])[H:12])[C:6](=[O:7])[H:13])([H:8])([H:9])[H:10]>>[C:1](=[C:2]([C:4](=[O:5])[H:12])[C:6](=[O:7])[H:13])([H:9])[H:10].[O:3]([H:8])[H:11]"
C       -1.00388396      -0.99567837      -0.44108145
C       -0.03363902       0.02448433      -0.16365153
O       -0.14871578       0.06668053       1.74498381
C       -0.48372939       1.42858396      -0.42812869
O        0.27201955       2.29132833      -0.77927442
C        1.40088569      -0.34159043      -0.39365259
O        1.99970184      -1.19463849       0.20263546
H       -0.96875480      -1.01253504       1.48530079
H       -0.62521146      -1.98392591      -0.69999564
H       -1.62734082      -0.72212405      -1.29546713
H        0.75935628       0.35348643       1.91824292
H       -1.50005858       1.73502503      -0.10766686
H        1.95937045       0.35090368      -1.04224467
13
Frame=14 idx=011824 GeodesicLength=1.2867377889854679 rxn_smarts="[C:1]([C:2]([O:3][H:11])([C:4](=[O:5])[H:12])[C:6](=[O:7])[H:13])([H:8])([H:9])[H:10]>>[C:1](=[C:2]([C:4](=[O:5])[H:12])[C:6](=[O:7])[H:13])([H:9])[H:10].[O:3]([H:8])[H:11]"
C       -1.01061456      -0.99591744      -0.44503413
C       -0.03502169       0.02062068      -0.17561114
O       -0.13525484       0.06938946       1.75460732
C       -0.48747470       1.42521305      -0.43045172
O        0.27097807       2.29184555      -0.76617214
C        1.39759027      -0.35090102      -0.40660431
O        1.98458415      -1.23027057       0.16247666
H       -0.97651740      -1.02814622       1.51777988
H       -0.63601151      -1.98957050      -0.69051436
H       -1.60513887      -0.73129341      -1.32315572
H        0.75875669       0.40713390       1.90421671
H       -1.49972573       1.73644707      -0.10111873
H        1.97385012       0.37544946      -1.00041831
13
Frame=15 idx=011824 GeodesicLength=1.3790333241325803 rxn_smarts="[C:1]([C:2]([O:3][H:11])([C:4](=[O:5])[H:12])[C:6](=[O:7])[H:13])([H:8])([H:9])[H:10]>>[C:1](=[C:2]([C:4](=[O:5])[H:12])[C:6](=[O:7])[H:13])([H:9])[H:10].[O:3]([H:8])[H:11]"
C       -1.01723364      -0.99582555      -0.44937888
C       -0.03629529       0.01704368      -0.18814255
O       -0.12071061       0.07217763       1.76398873
C       -0.49114576       1.42208016      -0.43319467
O        0.27002047       2.29215040      -0.75396916
C        1.39454097      -0.35952172      -0.41985078
O        1.96922105      -1.26493284       0.12013644
H       -0.98337072      -1.04428704       1.55149223
H       -0.64669421      -1.99466141      -0.68138312
H       -1.58302798      -0.74090982      -1.34973898
H        0.75574759       0.46050023       1.88939521
H       -1.49897911       1.73808575      -0.09427173
H        1.98792724       0.39810051      -0.95508273
13
Frame=16 idx=011824 GeodesicLength=1.4714432548758203 rxn_smarts="[C:1]([C:2]([O:3][H:11])([C:4](=[O:5])[H:12])[C:6](=[O:7])[H:13])([H:8])([H:9])[H:10]>>[C:1](=[C:2]([C:4](=[O:5])[H:12])[C:6](=[O:7])[H:13])([H:9])[H:10].[O:3]([H:8])[H:11]"
C       -1.02369972      -0.99540609      -0.45411193
C       -0.03746297       0.01378959      -0.20121002
O       -0.10515402       0.07514125       1.77314565
C       -0.49469997       1.41921923      -0.43639447
O        0.26927402       2.29225572      -0.74264526
C        1.39175888      -0.36738444      -0.43334048
O        1.95368632      -1.29841763       0.07551714
H       -0.98914386      -1.06108495       1.58655505
H       -0.65715769      -1.99918223      -0.67259349
H       -1.56103798      -0.75093365      -1.37530646
H        0.75008493       0.51354610       1.87404203
H       -1.49776492       1.73999802      -0.08718746
H        2.00131699       0.41845908      -0.90647029
