16
Frame=0 idx=001167 GeodesicLength=0.0 rxn_smarts="[C:1]([O:2][C:3]([C:4]([O:5][C:6]([H:14])([H:15])[H:16])([H:12])[H:13])([H:10])[H:11])([H:7])([H:8])[H:9]>>[C:1]([O:2][C:3]([C:4](=[O+:5][C-:6]([H:14])[H:15])[H:12])([H:10])[H:11])([H:7])([H:8])[H:9].[H:13][H:16]"
C        2.87751914      -0.22039214      -0.13464425
O        1.57680295       0.26348351      -0.34213244
C        0.63702226      -0.33757626       0.51755135
C       -0.68640623       0.31341133       0.32308728
O       -1.70849409      -0.48622460       0.20232356
C       -2.91480012      -0.05499792      -0.08220647
H        3.53358664       0.30492742      -0.82691223
H        3.21817212      -0.03208287       0.89251176
H        2.94320386      -1.29909061      -0.32970368
H        0.53582769      -1.41158111       0.30854175
H        0.98342052      -0.23176583       1.55932422
H       -0.87064636       1.32065911       0.68218022
H       -1.23698579       0.97037170      -1.36627401
H       -3.63674566      -0.84714905      -0.21298004
H       -3.22106187       0.91086081       0.30252690
H       -2.03041503       0.83714651      -1.49319394
16
Frame=1 idx=001167 GeodesicLength=0.08969649039691974 rxn_smarts="[C:1]([O:2][C:3]([C:4]([O:5][C:6]([H:14])([H:15])[H:16])([H:12])[H:13])([H:10])[H:11])([H:7])([H:8])[H:9]>>[C:1]([O:2][C:3]([C:4](=[O+:5][C-:6]([H:14])[H:15])[H:12])([H:10])[H:11])([H:7])([H:8])[H:9].[H:13][H:16]"
C        2.88040823      -0.21419998      -0.12984684
O        1.58137675       0.27475809      -0.33558675
C        0.63589994      -0.34021135       0.50820873
C       -0.68471825       0.31703188       0.31483730
O       -1.71444124      -0.48141769       0.22169680
C       -2.91587273      -0.04518269      -0.08755852
H        3.54162983       0.32641805      -0.80527033
H        3.21508387      -0.04969792       0.90334234
H        2.94574659      -1.28835338      -0.34873088
H        0.53760687      -1.41058647       0.28014535
H        0.97437591      -0.25235656       1.55400799
H       -0.86320649       1.32218090       0.68367229
H       -1.22617856       0.94004906      -1.36663673
H       -3.64596484      -0.83631906      -0.17628735
H       -3.21997578       0.92784832       0.28211796
H       -2.04177009       0.81003881      -1.49811137
16
Frame=2 idx=001167 GeodesicLength=0.17888732751494069 rxn_smarts="[C:1]([O:2][C:3]([C:4]([O:5][C:6]([H:14])([H:15])[H:16])([H:12])[H:13])([H:10])[H:11])([H:7])([H:8])[H:9]>>[C:1]([O:2][C:3]([C:4](=[O+:5][C-:6]([H:14])[H:15])[H:12])([H:10])[H:11])([H:7])([H:8])[H:9].[H:13][H:16]"
C        2.88318137      -0.20826724      -0.12504979
O        1.58584415       0.28578860      -0.32891284
C        0.63479971      -0.34258452       0.49895177
C       -0.68307175       0.32075853       0.30671793
O       -1.71987285      -0.47621156       0.24040093
C       -2.91671390      -0.03633058      -0.09263722
H        3.54942736       0.34705137      -0.78343082
H        3.21193024      -0.06748526       0.91352428
H        2.94824483      -1.27739376      -0.36742305
H        0.53939577      -1.40906165       0.25223598
H        0.96538444      -0.27245660       1.54836724
H       -0.85586038       1.32372598       0.68516457
H       -1.21542451       0.91056666      -1.36646619
H       -3.65453402      -0.82448254      -0.14022435
H       -3.21877325       0.94367562       0.26166047
H       -2.05395722       0.78270695      -1.50287892
16
Frame=3 idx=001167 GeodesicLength=0.2678332970494015 rxn_smarts="[C:1]([O:2][C:3]([C:4]([O:5][C:6]([H:14])([H:15])[H:16])([H:12])[H:13])([H:10])[H:11])([H:7])([H:8])[H:9]>>[C:1]([O:2][C:3]([C:4](=[O+:5][C-:6]([H:14])[H:15])[H:12])([H:10])[H:11])([H:7])([H:8])[H:9].[H:13][H:16]"
C        2.88586165      -0.20256117      -0.12022459
O        1.59023166       0.29661581      -0.32208069
C        0.63372245      -0.34472399       0.48975292
C       -0.68145899       0.32457789       0.29868728
O       -1.72481710      -0.47066497       0.25839182
C       -2.91736634      -0.02834367      -0.09740270
H        3.55702798       0.36696098      -0.76128375
H        3.20869899      -0.08553062       0.92313640
H        2.95072423      -1.26616758      -0.38587820
H        0.54121929      -1.40704242       0.22472476
H        0.95641636      -0.29214490       1.54240485
H       -0.84859286       1.32528037       0.68662897
H       -1.20465435       0.88196513      -1.36581455
H       -3.66254307      -0.81163313      -0.10456624
H       -3.21740807       0.95847364       0.24114396
H       -2.06706184       0.75493865      -1.50762023
16
Frame=4 idx=001167 GeodesicLength=0.3565746504902968 rxn_smarts="[C:1]([O:2][C:3]([C:4]([O:5][C:6]([H:14])([H:15])[H:16])([H:12])[H:13])([H:10])[H:11])([H:7])([H:8])[H:9]>>[C:1]([O:2][C:3]([C:4](=[O+:5][C-:6]([H:14])[H:15])[H:12])([H:10])[H:11])([H:7])([H:8])[H:9].[H:13][H:16]"
C        2.88845334      -0.19707610      -0.11538231
O        1.59453109       0.30720162      -0.31512600
C        0.63267263      -0.34665436       0.48062297
C       -0.67987666       0.32846241       0.29075074
O       -1.72927605      -0.46484915       0.27559825
C       -2.91787472      -0.02115815      -0.10182500
H        3.56441315       0.38609690      -0.73892185
H        3.20539928      -0.10370291       0.93214915
H        2.95321245      -1.25469250      -0.40400090
H        0.54310264      -1.40458019       0.19766702
H        0.94748585      -0.31140265       1.53614141
H       -0.84140999       1.32678994       0.68814190
H       -1.19381926       0.85441050      -1.36462441
H       -3.67001008      -0.79778105      -0.06944015
H       -3.21586961       0.97230118       0.22065136
H       -2.08113406       0.72663452      -1.51240217
16
Frame=5 idx=001167 GeodesicLength=0.44546865663459895 rxn_smarts="[C:1]([O:2][C:3]([C:4]([O:5][C:6]([H:14])([H:15])[H:16])([H:12])[H:13])([H:10])[H:11])([H:7])([H:8])[H:9]>>[C:1]([O:2][C:3]([C:4](=[O+:5][C-:6]([H:14])[H:15])[H:12])([H:10])[H:11])([H:7])([H:8])[H:9].[H:13][H:16]"
C        2.89098170      -0.19176991      -0.11047948
O        1.59877714       0.31761304      -0.30798635
C        0.63164970      -0.34840315       0.47151560
C       -0.67831835       0.33240604       0.28285709
O       -1.73330184      -0.45882693       0.29199995
C       -2.91825598      -0.01465396      -0.10587927
H        3.57164936       0.40465539      -0.71615744
H        3.20200779      -0.12216412       0.94067095
H        2.95573483      -1.24289775      -0.42195807
H        0.54507095      -1.40168873       0.17090027
H        0.93854808      -0.33036160       1.52956023
H       -0.83429524       1.32824551       0.68967085
H       -1.18282282       0.82793952      -1.36300705
H       -3.67702052      -0.78287136      -0.03446115
H       -3.21409208       0.98531568       0.20004871
H       -2.09631274       0.69746234      -1.51729484
16
Frame=6 idx=001167 GeodesicLength=0.5345038142207151 rxn_smarts="[C:1]([O:2][C:3]([C:4]([O:5][C:6]([H:14])([H:15])[H:16])([H:12])[H:13])([H:10])[H:11])([H:7])([H:8])[H:9]>>[C:1]([O:2][C:3]([C:4](=[O+:5][C-:6]([H:14])[H:15])[H:12])([H:10])[H:11])([H:7])([H:8])[H:9].[H:13][H:16]"
C        2.89345120      -0.18663489      -0.10552996
O        1.60295703       0.32780656      -0.30070533
C        0.63066149      -0.34999747       0.46244238
C       -0.67677981       0.33637710       0.27502663
O       -1.73687974      -0.45267012       0.30751594
C       -2.91856427      -0.00877300      -0.10953049
H        3.57870168       0.42254092      -0.69312793
H        3.19854684      -0.14072976       0.94865035
H        2.95832777      -1.23080583      -0.43959717
H        0.54715225      -1.39842125       0.14448077
H        0.92962941      -0.34901023       1.52267466
H       -0.82725877       1.32956931       0.69134224
H       -1.17163339       0.80278296      -1.36085295
H       -3.68358679      -0.76687832       0.00018363
H       -3.21205616       0.99758305       0.17941123
H       -2.11266875       0.66726099      -1.52238400
16
Frame=7 idx=001167 GeodesicLength=0.6238046144736038 rxn_smarts="[C:1]([O:2][C:3]([C:4]([O:5][C:6]([H:14])([H:15])[H:16])([H:12])[H:13])([H:10])[H:11])([H:7])([H:8])[H:9]>>[C:1]([O:2][C:3]([C:4](=[O+:5][C-:6]([H:14])[H:15])[H:12])([H:10])[H:11])([H:7])([H:8])[H:9].[H:13][H:16]"
C        2.89587863      -0.18163559      -0.10050726
O        1.60708965       0.33782680      -0.29324002
C        0.62970923      -0.35146414       0.45336827
C       -0.67525614       0.34036557       0.26723883
O       -1.74004700      -0.44644377       0.32212764
C       -2.91882123      -0.00340951      -0.11277477
H        3.58560490       0.43987451      -0.66971941
H        3.19500571      -0.15948022       0.95614372
H        2.96101854      -1.21835788      -0.45700476
H        0.54937087      -1.39478797       0.11828403
H        0.92070712      -0.36745904       1.51546391
H       -0.82029272       1.33072829       0.69318876
H       -1.16018957       0.77903403      -1.35821417
H       -3.68976102      -0.74970858       0.03474293
H       -3.20969766       1.00924045       0.15861567
H       -2.13031933       0.63567704      -1.52771337
16
Frame=8 idx=001167 GeodesicLength=0.713190399575965 rxn_smarts="[C:1]([O:2][C:3]([C:4]([O:5][C:6]([H:14])([H:15])[H:16])([H:12])[H:13])([H:10])[H:11])([H:7])([H:8])[H:9]>>[C:1]([O:2][C:3]([C:4](=[O+:5][C-:6]([H:14])[H:15])[H:12])([H:10])[H:11])([H:7])([H:8])[H:9].[H:13][H:16]"
C        2.89827532      -0.17673973      -0.09540427
O        1.61117570       0.34768900      -0.28558285
C        0.62879827      -0.35283636       0.44427672
C       -0.67374271       0.34434019       0.25950473
O       -1.74280493      -0.44021336       0.33578329
C       -2.91907321       0.00150621      -0.11559564
H        3.59235824       0.45667964      -0.64594257
H        3.19139669      -0.17836608       0.96315549
H        2.96384076      -1.20552321      -0.47415851
H        0.55175235      -1.39081648       0.09224982
H        0.91179003      -0.38578996       1.50791877
H       -0.81339635       1.33164312       0.69531509
H       -1.14849065       0.75691422      -1.35503105
H       -3.69562019      -0.73124728       0.06930280
H       -3.20696727       1.02041119       0.13756445
H       -2.14929205       0.60234889      -1.53335628
16
Frame=9 idx=001167 GeodesicLength=0.8034845049148678 rxn_smarts="[C:1]([O:2][C:3]([C:4]([O:5][C:6]([H:14])([H:15])[H:16])([H:12])[H:13])([H:10])[H:11])([H:7])([H:8])[H:9]>>[C:1]([O:2][C:3]([C:4](=[O+:5][C-:6]([H:14])[H:15])[H:12])([H:10])[H:11])([H:7])([H:8])[H:9].[H:13][H:16]"
C        2.90065876      -0.17188683      -0.09013924
O        1.61524175       0.35745408      -0.27764135
C        0.62791522      -0.35416226       0.43504926
C       -0.67225754       0.34827326       0.25171890
O       -1.74521920      -0.43406313       0.34836741
C       -2.91933027       0.00612274      -0.11804705
H        3.59900775       0.47316859      -0.62147498
H        3.18766181      -0.19757369       0.96977782
H        2.96686151      -1.19214206      -0.49122324
H        0.55433369      -1.38649536       0.06608957
H        0.90277742      -0.40421157       1.49991976
H       -0.80661277       1.33222235       0.69772877
H       -1.13627786       0.73640673      -1.35141844
H       -3.70107935      -0.71119625       0.10467600
H       -3.20378982       1.03118051       0.11577439
H       -2.16989110       0.56690290      -1.53915759
16
Frame=10 idx=001167 GeodesicLength=0.8939232672122887 rxn_smarts="[C:1]([O:2][C:3]([C:4]([O:5][C:6]([H:14])([H:15])[H:16])([H:12])[H:13])([H:10])[H:11])([H:7])([H:8])[H:9]>>[C:1]([O:2][C:3]([C:4](=[O+:5][C-:6]([H:14])[H:15])[H:12])([H:10])[H:11])([H:7])([H:8])[H:9].[H:13][H:16]"
C        2.90303079      -0.16707767      -0.08475260
O        1.61927340       0.36711238      -0.26943608
C        0.62707916      -0.35544471       0.42573582
C       -0.67077903       0.35216259       0.24398882
O       -1.74726434      -0.42805355       0.35994250
C       -2.91963314       0.01045260      -0.12006559
H        3.60552118       0.48924618      -0.59651172
H        3.18385398      -0.21695499       0.97594787
H        2.97007289      -1.17825623      -0.50808385
H        0.55712688      -1.38183222       0.03987444
H        0.89375032      -0.42271876       1.49151018
H       -0.79990794       1.33242796       0.70058472
H       -1.12371698       0.71782747      -1.34727246
H       -3.70621889      -0.68946710       0.14035314
H       -3.20011320       1.04163220       0.09339090
H       -2.19207509       0.52894384      -1.54520609
16
Frame=11 idx=001167 GeodesicLength=0.984719951363153 rxn_smarts="[C:1]([O:2][C:3]([C:4]([O:5][C:6]([H:14])([H:15])[H:16])([H:12])[H:13])([H:10])[H:11])([H:7])([H:8])[H:9]>>[C:1]([O:2][C:3]([C:4](=[O+:5][C-:6]([H:14])[H:15])[H:12])([H:10])[H:11])([H:7])([H:8])[H:9].[H:13][H:16]"
C        2.90540171      -0.16228292      -0.07920734
O        1.62328675       0.37671219      -0.26088943
C        0.62629021      -0.35669493       0.41629032
C       -0.66930990       0.35601087       0.23631133
O       -1.74897901      -0.42224361       0.37051944
C       -2.91998421       0.01458317      -0.12164628
H        3.61191878       0.50500801      -0.57089135
H        3.17995311      -0.23663615       0.98169204
H        2.97349269      -1.16376800      -0.52484865
H        0.56015426      -1.37678613       0.01344336
H        0.88467799      -0.44143347       1.48262874
H       -0.79329311       1.33223026       0.70392424
H       -1.11070285       0.70123889      -1.34267453
H       -3.71097070      -0.66583222       0.17657872
H       -3.19585864       1.05181001       0.07015385
H       -2.21607708       0.48808402      -1.55138447
16
Frame=12 idx=001167 GeodesicLength=1.0757080956302527 rxn_smarts="[C:1]([O:2][C:3]([C:4]([O:5][C:6]([H:14])([H:15])[H:16])([H:12])[H:13])([H:10])[H:11])([H:7])([H:8])[H:9]>>[C:1]([O:2][C:3]([C:4](=[O+:5][C-:6]([H:14])[H:15])[H:12])([H:10])[H:11])([H:7])([H:8])[H:9].[H:13][H:16]"
C        2.90777634      -0.15748406      -0.07349532
O        1.62727911       0.38625469      -0.25199169
C        0.62555263      -0.35793607       0.40668853
C       -0.66784595       0.35980247       0.22870969
O       -1.75036388      -0.41669392       0.38006310
C       -2.92041259       0.01857888      -0.12278247
H        3.61818631       0.52044788      -0.54464237
H        3.17596937      -0.25654188       0.98700355
H        2.97714677      -1.14866106      -0.54145617
H        0.56343039      -1.37135485      -0.01327385
H        0.87556948      -0.46043596       1.47323749
H       -0.78676963       1.33154534       0.70786056
H       -1.09721822       0.68683165      -1.33757396
H       -3.71530868      -0.64012048       0.21333365
H       -3.19096205       1.06176719       0.04593529
H       -2.24202941       0.44400016      -1.55761602
16
Frame=13 idx=001167 GeodesicLength=1.1668296681998236 rxn_smarts="[C:1]([O:2][C:3]([C:4]([O:5][C:6]([H:14])([H:15])[H:16])([H:12])[H:13])([H:10])[H:11])([H:7])([H:8])[H:9]>>[C:1]([O:2][C:3]([C:4](=[O+:5][C-:6]([H:14])[H:15])[H:12])([H:10])[H:11])([H:7])([H:8])[H:9].[H:13][H:16]"
C        2.91016023      -0.15265358      -0.06758894
O        1.63125522       0.39577927      -0.24266580
C        0.62486932      -0.35917825       0.39688554
C       -0.66639224       0.36353421       0.22119993
O       -1.75144499      -0.41148702       0.38858357
C       -2.92092766       0.02250695      -0.12347638
H        3.62433077       0.53563406      -0.51763038
H        3.17188940      -0.27677197       0.99188534
H        2.98105081      -1.13283294      -0.55798983
H        0.56698015      -1.36548147      -0.04043081
H        0.86641240      -0.47985205       1.46325636
H       -0.78035764       1.33031779       0.71247380
H       -1.08319244       0.67475010      -1.33202953
H       -3.71917162      -0.61201711       0.25079967
H       -3.18533995       1.07150595       0.02039715
H       -2.27012177       0.39624606      -1.56366969
16
Frame=14 idx=001167 GeodesicLength=1.2578586659895192 rxn_smarts="[C:1]([O:2][C:3]([C:4]([O:5][C:6]([H:14])([H:15])[H:16])([H:12])[H:13])([H:10])[H:11])([H:7])([H:8])[H:9]>>[C:1]([O:2][C:3]([C:4](=[O+:5][C-:6]([H:14])[H:15])[H:12])([H:10])[H:11])([H:7])([H:8])[H:9].[H:13][H:16]"
C        2.91255783      -0.14776994      -0.06146342
O        1.63521322       0.40529134      -0.23288321
C        0.62424123      -0.36044457       0.38683516
C       -0.66494474       0.36719471       0.21379854
O       -1.75223250      -0.40668535       0.39603007
C       -2.92154351       0.02642482      -0.12378378
H        3.63034119       0.55057062      -0.48984143
H        3.16771679      -0.29728391       0.99634302
H        2.98523435      -1.11624828      -0.57439433
H        0.57081418      -1.35912935      -0.06814639
H        0.85720646      -0.49979124       1.45261210
H       -0.77406414       1.32845042       0.71787490
H       -1.06861016       0.66517215      -1.32603403
H       -3.72245238      -0.58124830       0.28903016
H       -3.17894236       1.08101434      -0.00667345
H       -2.30053545       0.34448255      -1.56930390
16
Frame=15 idx=001167 GeodesicLength=1.3486915798565549 rxn_smarts="[C:1]([O:2][C:3]([C:4]([O:5][C:6]([H:14])([H:15])[H:16])([H:12])[H:13])([H:10])[H:11])([H:7])([H:8])[H:9]>>[C:1]([O:2][C:3]([C:4](=[O+:5][C-:6]([H:14])[H:15])[H:12])([H:10])[H:11])([H:7])([H:8])[H:9].[H:13][H:16]"
C        2.91497528      -0.14279063      -0.05505858
O        1.63916362       0.41486609      -0.22249352
C        0.62366733      -0.36174353       0.37645856
C       -0.66351206       0.37078466       0.20650584
O       -1.75275972      -0.40237441       0.40242541
C       -2.92226166       0.03037538      -0.12372940
H        3.63623577       0.56537437      -0.46093475
H        3.16342394      -0.31833961       1.00033678
H        2.98973127      -1.09866051      -0.59085530
H        0.57496590      -1.35218692      -0.09667366
H        0.84791061      -0.52045425       1.44115928
H       -0.76791771       1.32588824       0.72411060
H       -1.05341411       0.65815995      -1.31970647
H       -3.72499156      -0.54720813       0.32835482
H       -3.17166771       1.09019753      -0.03579629
H       -2.33354917       0.28811178      -1.57410331
16
Frame=16 idx=001167 GeodesicLength=1.4389449086268653 rxn_smarts="[C:1]([O:2][C:3]([C:4]([O:5][C:6]([H:14])([H:15])[H:16])([H:12])[H:13])([H:10])[H:11])([H:7])([H:8])[H:9]>>[C:1]([O:2][C:3]([C:4](=[O+:5][C-:6]([H:14])[H:15])[H:12])([H:10])[H:11])([H:7])([H:8])[H:9].[H:13][H:16]"
C        2.91741843      -0.13767154      -0.04833659
O        1.64310479       0.42453798      -0.21141513
C        0.62314891      -0.36310669       0.36568789
C       -0.66209964       0.37427920       0.19934536
O       -1.75303383      -0.39864393       0.40775887
C       -2.92311416       0.03437913      -0.12331656
H        3.64200974       0.58011157      -0.43074465
H        3.15899885      -0.34002051       1.00383805
H        2.99458471      -1.07991541      -0.60742599
H        0.57946270      -1.34458909      -0.12620764
H        0.83851193      -0.54201845       1.42878348
H       -0.76193877       1.32252907       0.73127418
H       -1.03758797       0.65384936      -1.31306072
H       -3.72666786      -0.50932499       0.36887242
H       -3.16342409       1.09894640      -0.06736860
H       -2.36937374       0.22665791      -1.57768437
