10
Frame=0 idx=005047 GeodesicLength=0.0 rxn_smarts="[C:1]([c:2]1[n:3][c:4]([H:10])[n:5][o:6]1)([H:7])([H:8])[H:9]>>[C:1](=[C:2]1[N:3]([H:9])[C:4]([H:10])=[N:5][O:6]1)([H:7])[H:8]"
C       -1.67734280       0.14366431       0.14076204
C       -0.33774435       0.01174495      -0.33039696
N        0.51994967       0.10269156       0.67555054
C        1.74832564      -0.08063179       0.11889074
N        1.68804640      -0.18706859      -1.16855101
O        0.31153877      -0.12629466      -1.46692674
H       -2.02732254      -0.78138506       0.59585353
H       -2.41375674       0.59953716      -0.51117184
H       -0.49882702       0.40682780       1.29744565
H        2.68713298      -0.08908568       0.64854405
10
Frame=1 idx=005047 GeodesicLength=0.051419638458899616 rxn_smarts="[C:1]([c:2]1[n:3][c:4]([H:10])[n:5][o:6]1)([H:7])([H:8])[H:9]>>[C:1](=[C:2]1[N:3]([H:9])[C:4]([H:10])=[N:5][O:6]1)([H:7])[H:8]"
C       -1.67428762       0.14327978       0.13920093
C       -0.33848141      -0.03665506      -0.32389550
N        0.52203742       0.07719473       0.67960380
C        1.75112762      -0.07508599       0.11456609
N        1.68941800      -0.15412216      -1.17431303
O        0.31164150      -0.11464145      -1.46721822
H       -2.04856225      -0.75867389       0.61989437
H       -2.39674311       0.59382416      -0.53176383
H       -0.50629939       0.41811670       1.30026998
H        2.69014924      -0.09323682       0.64365540
10
Frame=2 idx=005047 GeodesicLength=0.102673886580359 rxn_smarts="[C:1]([c:2]1[n:3][c:4]([H:10])[n:5][o:6]1)([H:7])([H:8])[H:9]>>[C:1](=[C:2]1[N:3]([H:9])[C:4]([H:10])=[N:5][O:6]1)([H:7])[H:8]"
C       -1.67063203       0.14157874       0.13730802
C       -0.33863857      -0.07657122      -0.31823818
N        0.52430951       0.05683189       0.68322129
C        1.75298837      -0.07275641       0.11104402
N        1.68905491      -0.12739363      -1.17851466
O        0.31064486      -0.09920141      -1.46637785
H       -2.06407334      -0.73937207       0.64041153
H       -2.38204621       0.58476723      -0.55011394
H       -0.51414043       0.43178198       1.30239852
H        2.69253293      -0.09966510       0.63886126
10
Frame=3 idx=005047 GeodesicLength=0.1539097696166669 rxn_smarts="[C:1]([c:2]1[n:3][c:4]([H:10])[n:5][o:6]1)([H:7])([H:8])[H:9]>>[C:1](=[C:2]1[N:3]([H:9])[C:4]([H:10])=[N:5][O:6]1)([H:7])[H:8]"
C       -1.66676463       0.13931797       0.13538103
C       -0.33841326      -0.10958713      -0.31340986
N        0.52667968       0.03946918       0.68657907
C        1.75438869      -0.07251459       0.10798458
N        1.68782291      -0.10486420      -1.18174324
O        0.30896025      -0.08298955      -1.46465973
H       -2.07583560      -0.72267733       0.65781023
H       -2.36916531       0.57426525      -0.56640672
H       -0.52233220       0.44633072       1.30433407
H        2.69465947      -0.10675032       0.63413057
10
Frame=4 idx=005047 GeodesicLength=0.20510397489734047 rxn_smarts="[C:1]([c:2]1[n:3][c:4]([H:10])[n:5][o:6]1)([H:7])([H:8])[H:9]>>[C:1](=[C:2]1[N:3]([H:9])[C:4]([H:10])=[N:5][O:6]1)([H:7])[H:8]"
C       -1.66279554       0.13686754       0.13353096
C       -0.33795837      -0.13774736      -0.30924391
N        0.52910544       0.02368036       0.68974809
C        1.75553234      -0.07356128       0.10516417
N        1.68610223      -0.08523969      -1.18430779
O        0.30686662      -0.06716179      -1.46228160
H       -2.08525314      -0.70777483       0.67270265
H       -2.35744767       0.56344699      -0.58097181
H       -0.53081992       0.46096603       1.30625504
H        2.69666802      -0.11347597       0.62940420
10
Frame=5 idx=005047 GeodesicLength=0.25626922930398177 rxn_smarts="[C:1]([c:2]1[n:3][c:4]([H:10])[n:5][o:6]1)([H:7])([H:8])[H:9]>>[C:1](=[C:2]1[N:3]([H:9])[C:4]([H:10])=[N:5][O:6]1)([H:7])[H:8]"
C       -1.65877048       0.13444470       0.13180747
C       -0.33740401      -0.16250106      -0.30564414
N        0.53157361       0.00842771       0.69276737
C        1.75651475      -0.07596758       0.10247352
N        1.68408220      -0.06817447      -1.18640557
O        0.30451742      -0.05181275      -1.45942782
H       -2.09324674      -0.69411290       0.68552313
H       -2.34645361       0.55303752      -0.59405655
H       -0.53950370       0.47520296       1.30828080
H        2.69869055      -0.11854412       0.62468180
10
Frame=6 idx=005047 GeodesicLength=0.3074383914123801 rxn_smarts="[C:1]([c:2]1[n:3][c:4]([H:10])[n:5][o:6]1)([H:7])([H:8])[H:9]>>[C:1](=[C:2]1[N:3]([H:9])[C:4]([H:10])=[N:5][O:6]1)([H:7])[H:8]"
C       -1.65471298       0.13201608       0.13019256
C       -0.33678833      -0.18481760      -0.30249772
N        0.53409208      -0.00642638       0.69565654
C        1.75741429      -0.07912714       0.09984345
N        1.68188396      -0.05247410      -1.18816590
O        0.30200189      -0.03712689      -1.45621457
H       -2.10018828      -0.68135307       0.69691234
H       -2.33602591       0.54285087      -0.60604375
H       -0.54837415       0.48936308       1.31029933
H        2.70069745      -0.12290485       0.62001772
10
Frame=7 idx=005047 GeodesicLength=0.35855582822141246 rxn_smarts="[C:1]([c:2]1[n:3][c:4]([H:10])[n:5][o:6]1)([H:7])([H:8])[H:9]>>[C:1](=[C:2]1[N:3]([H:9])[C:4]([H:10])=[N:5][O:6]1)([H:7])[H:8]"
C       -1.65062612       0.12951852       0.12869316
C       -0.33609566      -0.20512113      -0.29972716
N        0.53665988      -0.02071397       0.69838397
C        1.75825116      -0.08254555       0.09723430
N        1.67956030      -0.03781951      -1.18962614
O        0.29939934      -0.02290471      -1.45267303
H       -2.10612805      -0.66943592       0.70717966
H       -2.32611239       0.53265513      -0.61709380
H       -0.55751053       0.50369149       1.31221317
H        2.70260207      -0.12732435       0.61541587
10
Frame=8 idx=005047 GeodesicLength=0.40966809041598545 rxn_smarts="[C:1]([c:2]1[n:3][c:4]([H:10])[n:5][o:6]1)([H:7])([H:8])[H:9]>>[C:1](=[C:2]1[N:3]([H:9])[C:4]([H:10])=[N:5][O:6]1)([H:7])[H:8]"
C       -1.64652747       0.12698324       0.12730425
C       -0.33536232      -0.22390254      -0.29728043
N        0.53928870      -0.03472782       0.70098585
C        1.75907097      -0.08618225       0.09462819
N        1.67716461      -0.02392402      -1.19084922
O        0.29673566      -0.00920634      -1.44888352
H       -2.11137326      -0.65817419       0.71652884
H       -2.31659075       0.52260552      -0.62734672
H       -0.56688768       0.51814223       1.31404533
H        2.70448155      -0.13161383       0.61086743
10
Frame=9 idx=005047 GeodesicLength=0.4607773546836502 rxn_smarts="[C:1]([c:2]1[n:3][c:4]([H:10])[n:5][o:6]1)([H:7])([H:8])[H:9]>>[C:1](=[C:2]1[N:3]([H:9])[C:4]([H:10])=[N:5][O:6]1)([H:7])[H:8]"
C       -1.64241961       0.12434084       0.12600410
C       -0.33456400      -0.24144079      -0.29509044
N        0.54198169      -0.04834603       0.70347926
C        1.75988945      -0.08972175       0.09203470
N        1.67471894      -0.01019023      -1.19182608
O        0.29403968       0.00403681      -1.44486219
H       -2.11593939      -0.64746572       0.72526982
H       -2.30746537       0.51235034      -0.63699826
H       -0.57655347       0.53305411       1.31565020
H        2.70631209      -0.13661756       0.60633889
10
Frame=10 idx=005047 GeodesicLength=0.5118874876529758 rxn_smarts="[C:1]([c:2]1[n:3][c:4]([H:10])[n:5][o:6]1)([H:7])([H:8])[H:9]>>[C:1](=[C:2]1[N:3]([H:9])[C:4]([H:10])=[N:5][O:6]1)([H:7])[H:8]"
C       -1.63829984       0.12158132       0.12478412
C       -0.33369719      -0.25794868      -0.29312475
N        0.54473704      -0.06164276       0.70587928
C        1.76071062      -0.09313175       0.08946165
N        1.67223424       0.00360994      -1.19254057
O        0.29132984       0.01692250      -1.44062242
H       -2.11989121      -0.63721272       0.73356390
H       -2.29870748       0.50177968      -0.64614806
H       -0.58652075       0.54854145       1.31695231
H        2.70810473      -0.14249897       0.60179453
10
Frame=11 idx=005047 GeodesicLength=0.5630061117555608 rxn_smarts="[C:1]([c:2]1[n:3][c:4]([H:10])[n:5][o:6]1)([H:7])([H:8])[H:9]>>[C:1](=[C:2]1[N:3]([H:9])[C:4]([H:10])=[N:5][O:6]1)([H:7])[H:8]"
C       -1.63416402       0.11870895       0.12363924
C       -0.33276482      -0.27360179      -0.29136321
N        0.54755360      -0.07472977       0.70819745
C        1.76153766      -0.09644747       0.08691350
N        1.66971780       0.01762374      -1.19297302
O        0.28861895       0.02950690      -1.43617640
H       -2.12330139      -0.62732506       0.74151816
H       -2.29028113       0.49086442      -0.65485829
H       -0.59679437       0.56464787       1.31790085
H        2.70987772      -0.14924778       0.59720170
10
Frame=12 idx=005047 GeodesicLength=0.6141420720735243 rxn_smarts="[C:1]([c:2]1[n:3][c:4]([H:10])[n:5][o:6]1)([H:7])([H:8])[H:9]>>[C:1](=[C:2]1[N:3]([H:9])[C:4]([H:10])=[N:5][O:6]1)([H:7])[H:8]"
C       -1.63002072       0.11567124       0.12255694
C       -0.33173783      -0.28848833      -0.28976506
N        0.55043781      -0.08748528       0.71045995
C        1.76238534      -0.09942281       0.08441999
N        1.66718082       0.03212281      -1.19308590
O        0.28592286       0.04186978      -1.43152525
H       -2.12615495      -0.61778170       0.74927968
H       -2.28221265       0.47936687      -0.66322342
H       -0.60744085       0.58157662       1.31839427
H        2.71164016      -0.15742921       0.59248879
10
Frame=13 idx=005047 GeodesicLength=0.6653013052426526 rxn_smarts="[C:1]([c:2]1[n:3][c:4]([H:10])[n:5][o:6]1)([H:7])([H:8])[H:9]>>[C:1](=[C:2]1[N:3]([H:9])[C:4]([H:10])=[N:5][O:6]1)([H:7])[H:8]"
C       -1.62586663       0.11245080       0.12152980
C       -0.33059976      -0.30270202      -0.28830024
N        0.55339292      -0.09990413       0.71269086
C        1.76325784      -0.10200889       0.08200622
N        1.66462243       0.04731434      -1.19282781
O        0.28325176       0.05405706      -1.42666579
H       -2.12846733      -0.60853105       0.75694492
H       -2.27449259       0.46715993      -0.67130551
H       -0.61849955       0.59943633       1.31834989
H        2.71340092      -0.16727236       0.58757768
10
Frame=14 idx=005047 GeodesicLength=0.716483155604697 rxn_smarts="[C:1]([c:2]1[n:3][c:4]([H:10])[n:5][o:6]1)([H:7])([H:8])[H:9]>>[C:1](=[C:2]1[N:3]([H:9])[C:4]([H:10])=[N:5][O:6]1)([H:7])[H:8]"
C       -1.62169730       0.10902144       0.12055387
C       -0.32932137      -0.31629801      -0.28693583
N        0.55642440      -0.11193879       0.71491399
C        1.76416070      -0.10406348       0.07970870
N        1.66204096       0.06332773      -1.19213856
O        0.28061993       0.06611630      -1.42158104
H       -2.13023472      -0.59955522       0.76457411
H       -2.26711055       0.45412614      -0.67913956
H       -0.63003716       0.61832291       1.31768523
H        2.71515511      -0.17905902       0.58235909
10
Frame=15 idx=005047 GeodesicLength=0.7676896162129914 rxn_smarts="[C:1]([c:2]1[n:3][c:4]([H:10])[n:5][o:6]1)([H:7])([H:8])[H:9]>>[C:1](=[C:2]1[N:3]([H:9])[C:4]([H:10])=[N:5][O:6]1)([H:7])[H:8]"
C       -1.61750628       0.10546093       0.11965395
C       -0.32794200      -0.32935718      -0.28569689
N        0.55953812      -0.12386496       0.71711937
C        1.76510292      -0.10585736       0.07750952
N        1.65945072       0.07972423      -1.19106061
O        0.27803262       0.07809597      -1.41628857
H       -2.13159052      -0.59083461       0.77205954
H       -2.25997718       0.44062514      -0.68664722
H       -0.64203763       0.63795592       1.31650775
H        2.71692924      -0.19194807       0.57684315
10
Frame=16 idx=005047 GeodesicLength=0.8189003689213994 rxn_smarts="[C:1]([c:2]1[n:3][c:4]([H:10])[n:5][o:6]1)([H:7])([H:8])[H:9]>>[C:1](=[C:2]1[N:3]([H:9])[C:4]([H:10])=[N:5][O:6]1)([H:7])[H:8]"
C       -1.61327340       0.10181727       0.11885091
C       -0.32648237      -0.34194056      -0.28460097
N        0.56273501      -0.13587219       0.71928031
C        1.76607479      -0.10754896       0.07539010
N        1.65684916       0.09616422      -1.18962397
O        0.27549092       0.09003297      -1.41077823
H       -2.13259459      -0.58237459       0.77931476
H       -2.25300819       0.42693282      -0.69375314
H       -0.65450506       0.65814739       1.31487569
H        2.71871373      -0.20535837       0.57104453
