15
Frame=0 idx=011075 GeodesicLength=0.0 rxn_smarts="[C:1]([c:2]1[c:3]([H:11])[c:4]([N:5]([H:12])[H:13])[c:6]([H:14])[n:7]1[H:15])([H:8])([H:9])[H:10]>>[C:1]([C@@:2]1([H:11])[C-:3]=[C:4]([N:5]([H:12])[H:13])[C+:6]([H:14])[N:7]1[H:15])([H:8])([H:9])[H:10]"
C        2.22383818      -0.71628244       0.15398518
C        0.84486512      -0.19635048      -0.12675525
C       -0.35899673      -0.99479862      -0.26542700
C       -1.39225545      -0.00873943      -0.11251783
N       -2.75272596      -0.29127203      -0.30744283
C       -0.85345175       1.20798598       0.21606779
N        0.50436405       1.10622420       0.24473547
H        2.35414082      -0.87158092       1.22597727
H        2.34956870      -1.67695609      -0.34192096
H        3.00101176      -0.03270432      -0.19485407
H        0.54360785      -0.39731607      -1.26816592
H       -3.36740870       0.12555085       0.37382573
H       -2.89880560      -1.28839297      -0.35115511
H       -1.33663865       2.16022594       0.38878229
H        1.13888631       1.87440643       0.36486527
15
Frame=1 idx=011075 GeodesicLength=0.051188514244930795 rxn_smarts="[C:1]([c:2]1[c:3]([H:11])[c:4]([N:5]([H:12])[H:13])[c:6]([H:14])[n:7]1[H:15])([H:8])([H:9])[H:10]>>[C:1]([C@@:2]1([H:11])[C-:3]=[C:4]([N:5]([H:12])[H:13])[C+:6]([H:14])[N:7]1[H:15])([H:8])([H:9])[H:10]"
C        2.22238505      -0.71441034       0.15805679
C        0.84727890      -0.19320640      -0.13875126
C       -0.35661615      -0.98943129      -0.27033476
C       -1.39117023      -0.00961149      -0.10658790
N       -2.75203098      -0.28776421      -0.30847328
C       -0.85167286       1.20784080       0.22222561
N        0.50588559       1.11079612       0.23047973
H        2.34516551      -0.85934287       1.23247909
H        2.34983913      -1.68019200      -0.32744295
H        3.00367368      -0.03634699      -0.19251933
H        0.53976951      -0.41851051      -1.28869590
H       -3.36555502       0.12101184       0.37883108
H       -2.89989861      -1.28409972      -0.36352744
H       -1.33666052       2.15430738       0.41973667
H        1.13960701       1.87895970       0.35452387
15
Frame=2 idx=011075 GeodesicLength=0.10238314647665653 rxn_smarts="[C:1]([c:2]1[c:3]([H:11])[c:4]([N:5]([H:12])[H:13])[c:6]([H:14])[n:7]1[H:15])([H:8])([H:9])[H:10]>>[C:1]([C@@:2]1([H:11])[C-:3]=[C:4]([N:5]([H:12])[H:13])[C+:6]([H:14])[N:7]1[H:15])([H:8])([H:9])[H:10]"
C        2.22081941      -0.71227423       0.16208994
C        0.84966559      -0.19006085      -0.15085449
C       -0.35423770      -0.98408755      -0.27525280
C       -1.38999942      -0.01052124      -0.10083111
N       -2.75125890      -0.28409366      -0.30962371
C       -0.84977196       1.20757413       0.22852097
N        0.50723099       1.11538223       0.21601990
H        2.33609901      -0.84665467       1.23880459
H        2.34996939      -1.68311696      -0.31281590
H        3.00617933      -0.03975740      -0.19023796
H        0.53575923      -0.44072600      -1.30898465
H       -3.36364093       0.11663442       0.38355427
H       -2.90099413      -1.27950241      -0.37595826
H       -1.33599775       2.14774753       0.45134259
H        1.14017783       1.88345664       0.34422664
15
Frame=3 idx=011075 GeodesicLength=0.15358176193273365 rxn_smarts="[C:1]([c:2]1[c:3]([H:11])[c:4]([N:5]([H:12])[H:13])[c:6]([H:14])[n:7]1[H:15])([H:8])([H:9])[H:10]>>[C:1]([C@@:2]1([H:11])[C-:3]=[C:4]([N:5]([H:12])[H:13])[C+:6]([H:14])[N:7]1[H:15])([H:8])([H:9])[H:10]"
C        2.21916312      -0.70989954       0.16600693
C        0.85202650      -0.18690179      -0.16299086
C       -0.35184546      -0.97874893      -0.28029157
C       -1.38875029      -0.01150757      -0.09515391
N       -2.75040998      -0.28032986      -0.31079144
C       -0.84776858       1.20711453       0.23519025
N        0.50836960       1.11990074       0.20174388
H        2.32698589      -0.83380870       1.24483893
H        2.35000225      -1.68563318      -0.29836044
H        3.00852738      -0.04285354      -0.18793772
H        0.53158274      -0.46374190      -1.32898032
H       -3.36169258       0.11247941       0.38800568
H       -2.90208977      -1.27468758      -0.38815553
H       -1.33466175       2.14081863       0.48240335
H        1.14056091       1.88779928       0.33447278
15
Frame=4 idx=011075 GeodesicLength=0.20472648505609026 rxn_smarts="[C:1]([c:2]1[c:3]([H:11])[c:4]([N:5]([H:12])[H:13])[c:6]([H:14])[n:7]1[H:15])([H:8])([H:9])[H:10]>>[C:1]([C@@:2]1([H:11])[C-:3]=[C:4]([N:5]([H:12])[H:13])[C+:6]([H:14])[N:7]1[H:15])([H:8])([H:9])[H:10]"
C        2.21744591      -0.70734767       0.16969205
C        0.85436622      -0.18370062      -0.17505294
C       -0.34941285      -0.97338108      -0.28558759
C       -1.38741891      -0.01262477      -0.08940266
N       -2.74947494      -0.27657451      -0.31180716
C       -0.84568014       1.20634938       0.24263104
N        0.50927800       1.12423790       0.18824982
H        2.31789290      -0.82125583       1.25042653
H        2.34998721      -1.68763932      -0.28454720
H        3.01071870      -0.04554729      -0.18552685
H        0.52725863      -0.48719253      -1.34862837
H       -3.35972390       0.10856415       0.39228109
H       -2.90316722      -1.26978200      -0.39977269
H       -1.33279285       2.13404766       0.51106862
H        1.14072324       1.89184653       0.32597629
15
Frame=5 idx=011075 GeodesicLength=0.2558600511412614 rxn_smarts="[C:1]([c:2]1[c:3]([H:11])[c:4]([N:5]([H:12])[H:13])[c:6]([H:14])[n:7]1[H:15])([H:8])([H:9])[H:10]>>[C:1]([C@@:2]1([H:11])[C-:3]=[C:4]([N:5]([H:12])[H:13])[C+:6]([H:14])[N:7]1[H:15])([H:8])([H:9])[H:10]"
C        2.21567275      -0.70463292       0.17318248
C        0.85669643      -0.18045306      -0.18704310
C       -0.34693971      -0.96797422      -0.29113514
C       -1.38600387      -0.01385712      -0.08363435
N       -2.74845107      -0.27281239      -0.31271634
C       -0.84349061       1.20530609       0.25070012
N        0.50998055       1.12841943       0.17548887
H        2.30880707      -0.80897400       1.25562479
H        2.34992881      -1.68918458      -0.27130048
H        3.01277329      -0.04787543      -0.18299383
H        0.52280839      -0.51115879      -1.36792913
H       -3.35772294       0.10488714       0.39636551
H       -2.90422413      -1.26478066      -0.41088453
H       -1.33051818       2.12741254       0.53786219
H        1.14068323       1.89567796       0.31841293
15
Frame=6 idx=011075 GeodesicLength=0.3069733195368133 rxn_smarts="[C:1]([c:2]1[c:3]([H:11])[c:4]([N:5]([H:12])[H:13])[c:6]([H:14])[n:7]1[H:15])([H:8])([H:9])[H:10]>>[C:1]([C@@:2]1([H:11])[C-:3]=[C:4]([N:5]([H:12])[H:13])[C+:6]([H:14])[N:7]1[H:15])([H:8])([H:9])[H:10]"
C        2.21384806      -0.70177026       0.17649143
C        0.85902035      -0.17714925      -0.19894391
C       -0.34442448      -0.96251883      -0.29692473
C       -1.38449883      -0.01520399      -0.07784769
N       -2.74733324      -0.26902886      -0.31353995
C       -0.84118471       1.20398283       0.25937479
N        0.51049143       1.13245215       0.16350132
H        2.29973522      -0.79698676       1.26046017
H        2.34982888      -1.69029809      -0.25860992
H        3.01469892      -0.04985579      -0.18033610
H        0.51824543      -0.53566888      -1.38684949
H       -3.35568398       0.10142451       0.40027437
H       -2.90525736      -1.25967216      -0.42158254
H       -1.32794097       2.12094561       0.56297056
H        1.14045526       1.89934776       0.31156171
15
Frame=7 idx=011075 GeodesicLength=0.35807933345564624 rxn_smarts="[C:1]([c:2]1[c:3]([H:11])[c:4]([N:5]([H:12])[H:13])[c:6]([H:14])[n:7]1[H:15])([H:8])([H:9])[H:10]>>[C:1]([C@@:2]1([H:11])[C-:3]=[C:4]([N:5]([H:12])[H:13])[C+:6]([H:14])[N:7]1[H:15])([H:8])([H:9])[H:10]"
C        2.21198620      -0.69880141       0.17959050
C        0.86134903      -0.17376737      -0.21071805
C       -0.34185815      -0.95698456      -0.30301169
C       -1.38289965      -0.01667439      -0.07200318
N       -2.74611830      -0.26525891      -0.31421318
C       -0.83876242       1.20235581       0.26874504
N        0.51082710       1.13630937       0.15250217
H        2.29069301      -0.78547772       1.26490657
H        2.34970550      -1.69098107      -0.24663054
H        3.01651156      -0.05148423      -0.17751009
H        0.51358839      -0.56060981      -1.40538922
H       -3.35359632       0.09814260       0.40408995
H       -2.90625528      -1.25450408      -0.43179142
H       -1.32521863       2.11488485       0.58584711
H        1.14004795       1.90285092       0.30558602
15
Frame=8 idx=011075 GeodesicLength=0.4091003599352758 rxn_smarts="[C:1]([c:2]1[c:3]([H:11])[c:4]([N:5]([H:12])[H:13])[c:6]([H:14])[n:7]1[H:15])([H:8])([H:9])[H:10]>>[C:1]([C@@:2]1([H:11])[C-:3]=[C:4]([N:5]([H:12])[H:13])[C+:6]([H:14])[N:7]1[H:15])([H:8])([H:9])[H:10]"
C        2.21009621      -0.69576355       0.18245668
C        0.86369487      -0.17027644      -0.22234369
C       -0.33923299      -0.95134028      -0.30942936
C       -1.38120307      -0.01827264      -0.06609040
N       -2.74479651      -0.26152658      -0.31468397
C       -0.83623278       1.20040887       0.27883270
N        0.51101078       1.13998280       0.14264964
H        2.28168623      -0.77459653       1.26894709
H        2.34957137      -1.69124629      -0.23548001
H        3.01822287      -0.05276817      -0.17448482
H        0.50884978      -0.58590074      -1.42351556
H       -3.35143226       0.09500238       0.40789220
H       -2.90719343      -1.24930847      -0.44146702
H       -1.32250646       2.10942969       0.60612038
H        1.13946541       1.90617594       0.30059614
15
Frame=9 idx=011075 GeodesicLength=0.4601533543875472 rxn_smarts="[C:1]([c:2]1[c:3]([H:11])[c:4]([N:5]([H:12])[H:13])[c:6]([H:14])[n:7]1[H:15])([H:8])([H:9])[H:10]>>[C:1]([C@@:2]1([H:11])[C-:3]=[C:4]([N:5]([H:12])[H:13])[C+:6]([H:14])[N:7]1[H:15])([H:8])([H:9])[H:10]"
C        2.20816068      -0.69258997       0.18519152
C        0.86604674      -0.16669877      -0.23389044
C       -0.33657838      -0.94561373      -0.31602625
C       -1.37941268      -0.01995162      -0.06020135
N       -2.74337781      -0.25770668      -0.31515237
C       -0.83356534       1.19824365       0.28930695
N        0.51106026       1.14357651       0.13343553
H        2.27269251      -0.76391241       1.27272822
H        2.34938461      -1.69118745      -0.22472571
H        3.01983284      -0.05377589      -0.17138449
H        0.50400840      -0.61197844      -1.44119925
H       -3.34921154       0.09199982       0.41154976
H       -2.90810721      -1.24393407      -0.45104421
H       -1.31967629       2.10401301       0.62563296
H        1.13874322       1.90951605       0.29577912
15
Frame=10 idx=011075 GeodesicLength=0.5112061918854154 rxn_smarts="[C:1]([c:2]1[c:3]([H:11])[c:4]([N:5]([H:12])[H:13])[c:6]([H:14])[n:7]1[H:15])([H:8])([H:9])[H:10]>>[C:1]([C@@:2]1([H:11])[C-:3]=[C:4]([N:5]([H:12])[H:13])[C+:6]([H:14])[N:7]1[H:15])([H:8])([H:9])[H:10]"
C        2.20615829      -0.68922180       0.18785627
C        0.86839269      -0.16305061      -0.24544208
C       -0.33390694      -0.93982592      -0.32271074
C       -1.37753186      -0.02167732      -0.05443684
N       -2.74185948      -0.25370957      -0.31577002
C       -0.83074413       1.19593428       0.29988341
N        0.51097483       1.14715928       0.12447170
H        2.26368129      -0.75308635       1.27633135
H        2.34911422      -1.69085886      -0.21403631
H        3.02132956      -0.05455634      -0.16830739
H        0.49905879      -0.63918308      -1.45835824
H       -3.34693532       0.08916378       0.41493781
H       -2.90900747      -1.23827124      -0.46079625
H       -1.31659415       2.09820776       0.64578624
H        1.13786966       1.91297600       0.29059109
15
Frame=11 idx=011075 GeodesicLength=0.562265907012676 rxn_smarts="[C:1]([c:2]1[c:3]([H:11])[c:4]([N:5]([H:12])[H:13])[c:6]([H:14])[n:7]1[H:15])([H:8])([H:9])[H:10]>>[C:1]([C@@:2]1([H:11])[C-:3]=[C:4]([N:5]([H:12])[H:13])[C+:6]([H:14])[N:7]1[H:15])([H:8])([H:9])[H:10]"
C        2.20408891      -0.68567984       0.19043061
C        0.87074350      -0.15930429      -0.25699569
C       -0.33121743      -0.93394354      -0.32957639
C       -1.37556421      -0.02344534      -0.04881555
N       -2.74025287      -0.24956626      -0.31646509
C       -0.82778378       1.19347171       0.31059039
N        0.51076745       1.15072378       0.11588040
H        2.25462723      -0.74225206       1.27973783
H        2.34876582      -1.69024581      -0.20353003
H        3.02272548      -0.05509257      -0.16519363
H        0.49402354      -0.66745041      -1.47497892
H       -3.34458122       0.08645441       0.41816264
H       -2.90989097      -1.23235611      -0.47062801
H       -1.31330309       2.09214690       0.66613567
H        1.13685163       1.91653944       0.28524577
15
Frame=12 idx=011075 GeodesicLength=0.6133275985282096 rxn_smarts="[C:1]([c:2]1[c:3]([H:11])[c:4]([N:5]([H:12])[H:13])[c:6]([H:14])[n:7]1[H:15])([H:8])([H:9])[H:10]>>[C:1]([C@@:2]1([H:11])[C-:3]=[C:4]([N:5]([H:12])[H:13])[C+:6]([H:14])[N:7]1[H:15])([H:8])([H:9])[H:10]"
C        2.20194872      -0.68199312       0.19288986
C        0.87310816      -0.15542816      -0.26855285
C       -0.32850128      -0.92792155      -0.33672871
C       -1.37350399      -0.02524736      -0.04335784
N       -2.73856233      -0.24531890      -0.31715535
C       -0.82469069       1.19085275       0.32144914
N        0.51044908       1.15426376       0.10777887
H        2.24549995      -0.73155635       1.28292219
H        2.34834287      -1.68934004      -0.19333370
H        3.02402746      -0.05537914      -0.16198090
H        0.48892968      -0.69669517      -1.49105760
H       -3.34211609       0.08383112       0.42133723
H       -2.91074417      -1.22624070      -0.48040801
H       -1.30988339       2.08600073       0.68617618
H        1.13569601       1.92017214       0.28002149
15
Frame=13 idx=011075 GeodesicLength=0.6643894590425611 rxn_smarts="[C:1]([c:2]1[c:3]([H:11])[c:4]([N:5]([H:12])[H:13])[c:6]([H:14])[n:7]1[H:15])([H:8])([H:9])[H:10]>>[C:1]([C@@:2]1([H:11])[C-:3]=[C:4]([N:5]([H:12])[H:13])[C+:6]([H:14])[N:7]1[H:15])([H:8])([H:9])[H:10]"
C        2.19973922      -0.67818199       0.19521082
C        0.87549572      -0.15139446      -0.28011148
C       -0.32575307      -0.92172318      -0.34423054
C       -1.37134690      -0.02708017      -0.03806012
N       -2.73678828      -0.24099690      -0.31779227
C       -0.82147177       1.18807919       0.33247024
N        0.51003444       1.15778203       0.10024139
H        2.23628980      -0.72109670       1.28586408
H        2.34784702      -1.68814218      -0.18353790
H        3.02524372      -0.05541630      -0.15864466
H        0.48378716      -0.72687998      -1.50657026
H       -3.33952553       0.08126974       0.42452012
H       -2.91155694      -1.21996212      -0.49005752
H       -1.30640945       2.07988982       0.70557751
H        1.13441486       1.92385320       0.27512058
15
Frame=14 idx=011075 GeodesicLength=0.7154532314354124 rxn_smarts="[C:1]([c:2]1[c:3]([H:11])[c:4]([N:5]([H:12])[H:13])[c:6]([H:14])[n:7]1[H:15])([H:8])([H:9])[H:10]>>[C:1]([C@@:2]1([H:11])[C-:3]=[C:4]([N:5]([H:12])[H:13])[C+:6]([H:14])[N:7]1[H:15])([H:8])([H:9])[H:10]"
C        2.19745637      -0.67425445       0.19738754
C        0.87791291      -0.14718015      -0.29168284
C       -0.32297162      -0.91531628      -0.35212883
C       -1.36908933      -0.02893335      -0.03293920
N       -2.73493262      -0.23661127      -0.31835874
C       -0.81813130       1.18516831       0.34361352
N        0.50953734       1.16129582       0.09326194
H        2.22697910      -0.71090036       1.28856409
H        2.34727081      -1.68666286      -0.17416262
H        3.02637930      -0.05521353      -0.15517429
H        0.47860303      -0.75802824      -1.52148157
H       -3.33679592       0.07874527       0.42774745
H       -2.91232410      -1.21353414      -0.49956064
H       -1.30291426       2.07383848       0.72430540
H        1.13302030       1.92758674       0.27060880
15
Frame=15 idx=011075 GeodesicLength=0.7665315907712209 rxn_smarts="[C:1]([c:2]1[c:3]([H:11])[c:4]([N:5]([H:12])[H:13])[c:6]([H:14])[n:7]1[H:15])([H:8])([H:9])[H:10]>>[C:1]([C@@:2]1([H:11])[C-:3]=[C:4]([N:5]([H:12])[H:13])[C+:6]([H:14])[N:7]1[H:15])([H:8])([H:9])[H:10]"
C        2.19508966      -0.67020825       0.19942777
C        0.88036677      -0.14276438      -0.30329229
C       -0.32016057      -0.90867331      -0.36046770
C       -1.36672963      -0.03079249      -0.02802496
N       -2.73300148      -0.23216080      -0.31885557
C       -0.81467107       1.18215204       0.35480139
N        0.50897346       1.16483747       0.08677392
H        2.21753378      -0.70094359       1.29104088
H        2.34659621      -1.68492016      -0.16517664
H        3.02743953      -0.05478408      -0.15156490
H        0.47338529      -0.79021099      -1.53574966
H       -3.33391618       0.07622146       0.43105137
H       -2.91304764      -1.20695380      -0.50895482
H       -1.29938702       2.06779974       0.74253525
H        1.13152889       1.93140115       0.26645596
15
Frame=16 idx=011075 GeodesicLength=0.8175801787119414 rxn_smarts="[C:1]([c:2]1[c:3]([H:11])[c:4]([N:5]([H:12])[H:13])[c:6]([H:14])[n:7]1[H:15])([H:8])([H:9])[H:10]>>[C:1]([C@@:2]1([H:11])[C-:3]=[C:4]([N:5]([H:12])[H:13])[C+:6]([H:14])[N:7]1[H:15])([H:8])([H:9])[H:10]"
C        2.19262486      -0.66605111       0.20133300
C        0.88286443      -0.13811668      -0.31495759
C       -0.31731409      -0.90173754      -0.36932205
C       -1.36425690      -0.03263866      -0.02334860
N       -2.73099071      -0.22765194      -0.31924545
C       -0.81110154       1.17904373       0.36596388
N        0.50835130       1.16841728       0.08075624
H        2.20790963      -0.69126954       1.29328889
H        2.34581078      -1.68290963      -0.15659557
H        3.02841920      -0.05414604      -0.14777194
H        0.46814069      -0.82342811      -1.54931589
H       -3.33084559       0.07364902       0.43449926
H       -2.91370385      -1.20021516      -0.51821957
H       -1.29585091       2.06177356       0.76023270
H        1.12994269       1.93528084       0.26270269
