9
Frame=0 idx=004242 GeodesicLength=0.0 rxn_smarts="[O:1]([C@@:2]([C:3](=[O:4])[H:9])([C:5]#[N:6])[H:8])[H:7]>>[H:7][H:8].[O:1]=[C:2]([C:3](=[O:4])[H:9])[C:5]#[N:6]"
O       -0.09356433       1.35416637      -1.03872257
C        0.09147190       0.34504753      -0.25540523
C       -1.06690844      -0.65642123       0.06502831
O       -2.13948541      -0.51776793      -0.42047464
C        1.39525106      -0.37633682      -0.27161793
N        2.37553180      -0.96935493      -0.31538140
H        0.05187297       1.47061394       0.37217946
H        0.18325874       0.82556067       1.10371154
H       -0.79742828      -1.47550762       0.76068243
9
Frame=1 idx=004242 GeodesicLength=0.08977127008328825 rxn_smarts="[O:1]([C@@:2]([C:3](=[O:4])[H:9])([C:5]#[N:6])[H:8])[H:7]>>[H:7][H:8].[O:1]=[C:2]([C:3](=[O:4])[H:9])[C:5]#[N:6]"
O       -0.08837972       1.34373693      -1.04088741
C        0.09868165       0.33634427      -0.25599530
C       -1.06116960      -0.66386179       0.05586803
O       -2.14160908      -0.49974901      -0.40468007
C        1.40166550      -0.38324402      -0.27373426
N        2.38267683      -0.97505846      -0.31735333
H        0.02561959       1.49105281       0.37588801
H        0.17988276       0.83489536       1.10892940
H       -0.79736792      -1.48411610       0.75196492
9
Frame=2 idx=004242 GeodesicLength=0.17927449066328144 rxn_smarts="[O:1]([C@@:2]([C:3](=[O:4])[H:9])([C:5]#[N:6])[H:8])[H:7]>>[H:7][H:8].[O:1]=[C:2]([C:3](=[O:4])[H:9])[C:5]#[N:6]"
O       -0.08295202       1.33389823      -1.04205747
C        0.10604863       0.32753744      -0.25646890
C       -1.05563752      -0.67089305       0.04702707
O       -2.14262308      -0.48263648      -0.38949852
C        1.40800150      -0.39064498      -0.27630928
N        2.38958984      -0.98150727      -0.31967091
H       -0.00185250       1.51171897       0.37950740
H        0.17679660       0.84481373       1.11393060
H       -0.79737144      -1.49228659       0.74354001
9
Frame=3 idx=004242 GeodesicLength=0.26861847782882886 rxn_smarts="[O:1]([C@@:2]([C:3](=[O:4])[H:9])([C:5]#[N:6])[H:8])[H:7]>>[H:7][H:8].[O:1]=[C:2]([C:3](=[O:4])[H:9])[C:5]#[N:6]"
O       -0.07729013       1.32467152      -1.04217346
C        0.11358017       0.31858703      -0.25683480
C       -1.05029701      -0.67751892       0.03858071
O       -2.14259932      -0.46642395      -0.37500686
C        1.41426713      -0.39856831      -0.27936098
N        2.39629589      -0.98870533      -0.32233048
H       -0.03053507       1.53265761       0.38305404
H        0.17400851       0.85538745       1.11866516
H       -0.79743017      -1.50008710       0.73540668
9
Frame=4 idx=004242 GeodesicLength=0.35795743913956457 rxn_smarts="[O:1]([C@@:2]([C:3](=[O:4])[H:9])([C:5]#[N:6])[H:8])[H:7]>>[H:7][H:8].[O:1]=[C:2]([C:3](=[O:4])[H:9])[C:5]#[N:6]"
O       -0.07139077       1.31607723      -1.04115888
C        0.12129631       0.30943327      -0.25712778
C       -1.04511756      -0.68376377       0.03058169
O       -2.14164514      -0.45107971      -0.36126752
C        1.42048343      -0.40704736      -0.28291078
N        2.40284354      -0.99664463      -0.32533138
H       -0.06043556       1.55391876       0.38656296
H        0.17151021       0.86667838       1.12306288
H       -0.79754448      -1.50757216       0.72758882
9
Frame=5 idx=004242 GeodesicLength=0.44727749600295935 rxn_smarts="[O:1]([C@@:2]([C:3](=[O:4])[H:9])([C:5]#[N:6])[H:8])[H:7]>>[H:7][H:8].[O:1]=[C:2]([C:3](=[O:4])[H:9])[C:5]#[N:6]"
O       -0.06524098       1.30815812      -1.03891004
C        0.12922066       0.30002806      -0.25736414
C       -1.04008299      -0.68965106       0.02305012
O       -2.13979440      -0.43657962      -0.34829510
C        1.42666887      -0.41612829      -0.28698823
N        2.40926850      -1.00534354      -0.32867250
H       -0.09160525       1.57551999       0.39005056
H        0.16927987       0.87877125       1.12703493
H       -0.79771429      -1.51477490       0.72009439
9
Frame=6 idx=004242 GeodesicLength=0.5367246934789206 rxn_smarts="[O:1]([C@@:2]([C:3](=[O:4])[H:9])([C:5]#[N:6])[H:8])[H:7]>>[H:7][H:8].[O:1]=[C:2]([C:3](=[O:4])[H:9])[C:5]#[N:6]"
O       -0.05883554       1.30091973      -1.03535811
C        0.13737427       0.29030355      -0.25758225
C       -1.03515726      -0.69523258       0.01598317
O       -2.13714437      -0.42284589      -0.33607324
C        1.43284978      -0.42583897      -0.29161295
N        2.41563193      -1.01477687      -0.33234003
H       -0.12403789       1.59752785       0.39353594
H        0.16726519       0.89168995       1.13051204
H       -0.79794610      -1.52174677       0.71293541
9
Frame=7 idx=004242 GeodesicLength=0.6262744395994754 rxn_smarts="[O:1]([C@@:2]([C:3](=[O:4])[H:9])([C:5]#[N:6])[H:8])[H:7]>>[H:7][H:8].[O:1]=[C:2]([C:3](=[O:4])[H:9])[C:5]#[N:6]"
O       -0.05216570       1.29436112      -1.03042869
C        0.14577721       0.28021520      -0.25780733
C       -1.03030447      -0.70055341       0.00937110
O       -2.13378857      -0.40980619      -0.32457648
C        1.43904855      -0.43619977      -0.29680798
N        2.42198223      -1.02491892      -0.33631996
H       -0.15771361       1.61997472       0.39701265
H        0.16540035       0.90545070       1.13343891
H       -0.79823599      -1.52852346       0.70611777
9
Frame=8 idx=004242 GeodesicLength=0.7160419060463277 rxn_smarts="[O:1]([C@@:2]([C:3](=[O:4])[H:9])([C:5]#[N:6])[H:8])[H:7]>>[H:7][H:8].[O:1]=[C:2]([C:3](=[O:4])[H:9])[C:5]#[N:6]"
O       -0.04522048       1.28849370      -1.02401509
C        0.15445136       0.26968615      -0.25808275
C       -1.02549903      -0.70566607       0.00319243
O       -2.12978729      -0.39738179      -0.31373565
C        1.44529236      -0.44725026      -0.30260805
N        2.42837983      -1.03575932      -0.34058388
H       -0.19263170       1.64295772       0.40048490
H        0.16359395       0.92007259       1.13572070
H       -0.79857900      -1.53515273       0.69962739
9
Frame=9 idx=004242 GeodesicLength=0.805880738577544 rxn_smarts="[O:1]([C@@:2]([C:3](=[O:4])[H:9])([C:5]#[N:6])[H:8])[H:7]>>[H:7][H:8].[O:1]=[C:2]([C:3](=[O:4])[H:9])[C:5]#[N:6]"
O       -0.03798718       1.28329511      -1.01601178
C        0.16342861       0.25867751      -0.25847544
C       -1.02069996      -0.71059754      -0.00257456
O       -2.12523375      -0.38549910      -0.30349356
C        1.45160493      -0.45900917      -0.30905555
N        2.43486604      -1.04727347      -0.34509632
H       -0.22876059       1.66647099       0.40397952
H        0.16173788       0.93557607       1.13726362
H       -0.79895599      -1.54164039       0.69346406
9
Frame=10 idx=004242 GeodesicLength=0.8958477260194709 rxn_smarts="[O:1]([C@@:2]([C:3](=[O:4])[H:9])([C:5]#[N:6])[H:8])[H:7]>>[H:7][H:8].[O:1]=[C:2]([C:3](=[O:4])[H:9])[C:5]#[N:6]"
O       -0.03048034       1.27873055      -1.00640395
C        0.17270815       0.24715387      -0.25896878
C       -1.01589895      -0.71539401      -0.00796064
O       -2.12014356      -0.37407573      -0.29372457
C        1.45799287      -0.47147853      -0.31617695
N        2.44148064      -1.05943066      -0.34981723
H       -0.26600637       1.69066927       0.40742462
H        0.15970649       0.95190012       1.13807457
H       -0.79935893      -1.54807488       0.68755293
9
Frame=11 idx=004242 GeodesicLength=0.9859040217141493 rxn_smarts="[O:1]([C@@:2]([C:3](=[O:4])[H:9])([C:5]#[N:6])[H:8])[H:7]>>[H:7][H:8].[O:1]=[C:2]([C:3](=[O:4])[H:9])[C:5]#[N:6]"
O       -0.02270415       1.27475515      -0.99511636
C        0.18230049       0.23508679      -0.25959182
C       -1.01107513      -0.72009120      -0.01299818
O       -2.11455948      -0.36303767      -0.28430239
C        1.46446700      -0.48466556      -0.32402110
N        2.44824842      -1.07219508      -0.35469164
H       -0.30427104       1.71566776       0.41074854
H        0.15735457       0.96899285       1.13814345
H       -0.79976068      -1.55451304       0.68182950
9
Frame=12 idx=004242 GeodesicLength=1.0759919624509373 rxn_smarts="[O:1]([C@@:2]([C:3](=[O:4])[H:9])([C:5]#[N:6])[H:8])[H:7]>>[H:7][H:8].[O:1]=[C:2]([C:3](=[O:4])[H:9])[C:5]#[N:6]"
O       -0.01466727       1.27131436      -0.98210649
C        0.19221864       0.22245603      -0.26034786
C       -1.00620908      -0.72471460      -0.01771395
O       -2.10851195      -0.35230455      -0.27508842
C        1.47103369      -0.49857041      -0.33263928
N        2.45520402      -1.08553061      -0.35967026
H       -0.34345389       1.74158848       0.41386467
H        0.15452644       0.98678506       1.13748451
H       -0.80014060      -1.56102375       0.67621708
9
Frame=13 idx=004242 GeodesicLength=1.166012331068466 rxn_smarts="[O:1]([C@@:2]([C:3](=[O:4])[H:9])([C:5]#[N:6])[H:8])[H:7]>>[H:7][H:8].[O:1]=[C:2]([C:3](=[O:4])[H:9])[C:5]#[N:6]"
O       -0.00638097       1.26832566      -0.96734716
C        0.20246770       0.20925956      -0.26124420
C       -1.00127857      -0.72928537      -0.02213737
O       -2.10203903      -0.34180220      -0.26592711
C        1.47769205      -0.51318080      -0.34209054
N        2.46235954      -1.09938100      -0.36468986
H       -0.38340098       1.76855447       0.41666782
H        0.15104145       1.00518048       1.13614453
H       -0.80046119      -1.56767080       0.67062391
9
Frame=14 idx=004242 GeodesicLength=1.2559115712935882 rxn_smarts="[O:1]([C@@:2]([C:3](=[O:4])[H:9])([C:5]#[N:6])[H:8])[H:7]>>[H:7][H:8].[O:1]=[C:2]([C:3](=[O:4])[H:9])[C:5]#[N:6]"
O        0.00214454       1.26571015      -0.95081959
C        0.21305624       0.19551010      -0.26224622
C       -0.99626991      -0.73382038      -0.02629243
O       -2.09514426      -0.33145548      -0.25663888
C        1.48443717      -0.52848358      -0.35243925
N        2.46972962      -1.11370086      -0.36970098
H       -0.42398452       1.79672266       0.41897768
H        0.14672385       1.02406082       1.13422667
H       -0.80069273      -1.57454343       0.66493298
9
Frame=15 idx=004242 GeodesicLength=1.3456222324539062 rxn_smarts="[O:1]([C@@:2]([C:3](=[O:4])[H:9])([C:5]#[N:6])[H:8])[H:7]>>[H:7][H:8].[O:1]=[C:2]([C:3](=[O:4])[H:9])[C:5]#[N:6]"
O        0.01090207       1.26336916      -0.93252328
C        0.22398849       0.18122880      -0.26331230
C       -0.99116299      -0.73832937      -0.03019929
O       -2.08783698      -0.32119599      -0.24704691
C        1.49125729      -0.54445026      -0.36374205
N        2.47731356      -1.12842765      -0.37466823
H       -0.46504712       1.82624010       0.42059240
H        0.14138781       1.04328825       1.13187178
H       -0.80080213      -1.58172304       0.65902788
9
Frame=16 idx=004242 GeodesicLength=1.4350795243954997 rxn_smarts="[O:1]([C@@:2]([C:3](=[O:4])[H:9])([C:5]#[N:6])[H:8])[H:7]>>[H:7][H:8].[O:1]=[C:2]([C:3](=[O:4])[H:9])[C:5]#[N:6]"
O        0.01989410       1.26120184      -0.91245396
C        0.23527676       0.16645841      -0.26436946
C       -0.98593717      -0.74281666      -0.03387269
O       -2.08011517      -0.31096413      -0.23696975
C        1.49814108      -0.56104741      -0.37604938
N        2.48509756      -1.14350520      -0.37958758
H       -0.50644430       1.85725136       0.42124895
H        0.13484534       1.06271664       1.12926855
H       -0.80075819      -1.58929485       0.65278533
