19
Frame=0 idx=007438 GeodesicLength=0.0 rxn_smarts="[C:1]([C:2]([C@@:3]1([H:13])[C:4]([H:14])([H:15])[C@@:5]2([H:16])[C:6]([H:17])([H:18])[C@@:7]12[H:19])([H:11])[H:12])([H:8])([H:9])[H:10]>>[C:1]([C:2]([H:11])([H:12])[H:13])([H:8])([H:9])[H:10].[C:3]1[C:4]([H:14])([H:15])[C@@:5]2([H:16])[C:6]([H:17])([H:18])[C@@:7]12[H:19]"
C        2.45932997       0.45097686      -0.73983888
C        1.39539422      -0.61694900      -0.65336701
C        0.00561617      -0.32319137       1.02411707
C       -0.57170177       1.07236731       0.82058567
C       -1.92981092       0.37469608       0.82812017
C       -2.08737456      -0.40236430      -0.41821931
C       -1.24528652      -1.01332434       0.67670712
H        2.94255996       0.44999834      -1.72001186
H        3.23480160       0.30208788       0.01364444
H        2.03073034       1.44354711      -0.58614275
H        0.57308133      -0.47282211      -1.34551107
H        1.77685318      -1.63522796      -0.75236355
H        1.12299800      -0.68515667       0.59560698
H       -0.37684103       1.60427470      -0.11574514
H       -0.36126922       1.74196380       1.65430742
H       -2.74625040       0.59587481       1.50055195
H       -3.04230200      -0.89359793      -0.56124711
H       -1.62965840      -0.03604643      -1.33252761
H       -1.55087003      -1.95710685       1.11133354
19
Frame=1 idx=007438 GeodesicLength=0.06673074452559752 rxn_smarts="[C:1]([C:2]([C@@:3]1([H:13])[C:4]([H:14])([H:15])[C@@:5]2([H:16])[C:6]([H:17])([H:18])[C@@:7]12[H:19])([H:11])[H:12])([H:8])([H:9])[H:10]>>[C:1]([C:2]([H:11])([H:12])[H:13])([H:8])([H:9])[H:10].[C:3]1[C:4]([H:14])([H:15])[C@@:5]2([H:16])[C:6]([H:17])([H:18])[C@@:7]12[H:19]"
C        2.46623297       0.44790210      -0.73009963
C        1.39668414      -0.61658733      -0.65670624
C        0.00274686      -0.31047237       1.01118251
C       -0.58020672       1.08242183       0.80887867
C       -1.93243908       0.37689581       0.82889516
C       -2.09492761      -0.40769322      -0.41321958
C       -1.24508091      -1.01172066       0.67820363
H        2.94139001       0.46677483      -1.71390768
H        3.24719405       0.27850586       0.01343628
H        2.04515469       1.43910549      -0.54924454
H        0.58259584      -0.46245984      -1.35743438
H        1.77620904      -1.63334400      -0.77810704
H        1.13466449      -0.70922088       0.60309542
H       -0.39327417       1.60893776      -0.13196684
H       -0.36667870       1.75538112       1.63881330
H       -2.74469119       0.59573671       1.50708884
H       -3.04951434      -0.90169801      -0.54882988
H       -1.64276503      -0.04463245      -1.33157138
H       -1.54329433      -1.95383276       1.12149339
19
Frame=2 idx=007438 GeodesicLength=0.1334078256884803 rxn_smarts="[C:1]([C:2]([C@@:3]1([H:13])[C:4]([H:14])([H:15])[C@@:5]2([H:16])[C:6]([H:17])([H:18])[C@@:7]12[H:19])([H:11])[H:12])([H:8])([H:9])[H:10]>>[C:1]([C:2]([H:11])([H:12])[H:13])([H:8])([H:9])[H:10].[C:3]1[C:4]([H:14])([H:15])[C@@:5]2([H:16])[C:6]([H:17])([H:18])[C@@:7]12[H:19]"
C        2.47287014       0.44483859      -0.72016193
C        1.39801425      -0.61637387      -0.66027552
C        0.00001083      -0.29792748       0.99772211
C       -0.58860553       1.09239109       0.79700203
C       -1.93486397       0.37920508       0.82974245
C       -2.10250893      -0.41291479      -0.40803985
C       -1.24479074      -1.01004282       0.67968127
H        2.94073255       0.48365094      -1.70675554
H        3.25865302       0.25562196       0.01358088
H        2.05892464       1.43385164      -0.51279894
H        0.59247129      -0.45217853      -1.36962712
H        1.77603797      -1.63100284      -0.80371532
H        1.14550842      -0.73378276       0.60979825
H       -0.40975484       1.61348204      -0.14829150
H       -0.37171664       1.76859567       1.62313258
H       -2.74269664       0.59581263       1.51385731
H       -3.05675728      -0.90960750      -0.53604139
H       -1.65597783      -0.05326245      -1.33047216
H       -1.53555071      -1.95035658       1.13166238
19
Frame=3 idx=007438 GeodesicLength=0.20003743468705126 rxn_smarts="[C:1]([C:2]([C@@:3]1([H:13])[C:4]([H:14])([H:15])[C@@:5]2([H:16])[C:6]([H:17])([H:18])[C@@:7]12[H:19])([H:11])[H:12])([H:8])([H:9])[H:10]>>[C:1]([C:2]([H:11])([H:12])[H:13])([H:8])([H:9])[H:10].[C:3]1[C:4]([H:14])([H:15])[C@@:5]2([H:16])[C:6]([H:17])([H:18])[C@@:7]12[H:19]"
C        2.47924832       0.44178045      -0.71004640
C        1.39938654      -0.61629648      -0.66406040
C       -0.00262705      -0.28556919       0.98377459
C       -0.59690619       1.10226551       0.78496708
C       -1.93709301       0.38161637       0.83065768
C       -2.11011890      -0.41802646      -0.40268754
C       -1.24442239      -1.00829958       0.68112629
H        2.94053154       0.50058989      -1.69862558
H        3.26925558       0.23340919       0.01404218
H        2.07204553       1.42782505      -0.47679813
H        0.60270831      -0.44197269      -1.38205724
H        1.77634648      -1.62821914      -0.82914757
H        1.15559925      -0.75877354       0.61576476
H       -0.42629207       1.61790065      -0.16470236
H       -0.37640759       1.78160811       1.60727066
H       -2.74027676       0.59609349       1.52084274
H       -3.06402800      -0.91732086      -0.52289872
H       -1.66930155      -0.06191794      -1.32922961
H       -1.52764806      -1.94669285       1.14180756
19
Frame=4 idx=007438 GeodesicLength=0.2666250326639838 rxn_smarts="[C:1]([C:2]([C@@:3]1([H:13])[C:4]([H:14])([H:15])[C@@:5]2([H:16])[C:6]([H:17])([H:18])[C@@:7]12[H:19])([H:11])[H:12])([H:8])([H:9])[H:10]>>[C:1]([C:2]([H:11])([H:12])[H:13])([H:8])([H:9])[H:10].[C:3]1[C:4]([H:14])([H:15])[C@@:5]2([H:16])[C:6]([H:17])([H:18])[C@@:7]12[H:19]"
C        2.48537783       0.43872001      -0.69976775
C        1.40080006      -0.61633961      -0.66804952
C       -0.00519888      -0.27340175       0.96937368
C       -0.60511921       1.11203992       0.77277852
C       -1.93913366       0.38412366       0.83163489
C       -2.11775887      -0.42303092      -0.39716698
C       -1.24398065      -1.00649722       0.68252951
H        2.94073325       0.51756696      -1.68957841
H        3.27907730       0.21182366       0.01478894
H        2.08452965       1.42105753      -0.44121214
H        0.61330828      -0.43182591      -1.39469740
H        1.77713423      -1.62500182      -0.85438613
H        1.16500558      -0.78414034       0.62103827
H       -0.44289922       1.62218785      -0.18119144
H       -0.38077756       1.79442616       1.59122325
H       -2.73744079       0.59657377       1.52802885
H       -3.07132321      -0.92484153      -0.50941090
H       -1.68274481      -0.07058903      -1.32784272
H       -1.51958934      -1.94285140       1.15190746
19
Frame=5 idx=007438 GeodesicLength=0.3331778772378983 rxn_smarts="[C:1]([C:2]([C@@:3]1([H:13])[C:4]([H:14])([H:15])[C@@:5]2([H:16])[C:6]([H:17])([H:18])[C@@:7]12[H:19])([H:11])[H:12])([H:8])([H:9])[H:10]>>[C:1]([C:2]([H:11])([H:12])[H:13])([H:8])([H:9])[H:10].[C:3]1[C:4]([H:14])([H:15])[C@@:5]2([H:16])[C:6]([H:17])([H:18])[C@@:7]12[H:19]"
C        2.49126184       0.43565399      -0.68933373
C        1.40225293      -0.61649276      -0.67223110
C       -0.00773306      -0.26143134       0.95454901
C       -0.61325198       1.12171020       0.76044113
C       -1.94099155       0.38672263       0.83266927
C       -2.12542989      -0.42792803      -0.39148310
C       -1.24347016      -1.00464168       0.68388195
H        2.94129247       0.53456172      -1.67966335
H        3.28818714       0.19084144       0.01578965
H        2.09637845       1.41357795      -0.40602986
H        0.62427180      -0.42172727      -1.40751925
H        1.77840138      -1.62136114      -0.87941092
H        1.17379624      -0.80985673       0.62566133
H       -0.45958576       1.62633837      -0.19775079
H       -0.38484579       1.80705581       1.57498781
H       -2.73419694       0.59725030       1.53540172
H       -3.07864148      -0.93216724      -0.49558862
H       -1.69631493      -0.07926422      -1.32631174
H       -1.51138071      -1.93884201       1.16194058
19
Frame=6 idx=007438 GeodesicLength=0.3996983466922567 rxn_smarts="[C:1]([C:2]([C@@:3]1([H:13])[C:4]([H:14])([H:15])[C@@:5]2([H:16])[C:6]([H:17])([H:18])[C@@:7]12[H:19])([H:11])[H:12])([H:8])([H:9])[H:10]>>[C:1]([C:2]([H:11])([H:12])[H:13])([H:8])([H:9])[H:10].[C:3]1[C:4]([H:14])([H:15])[C@@:5]2([H:16])[C:6]([H:17])([H:18])[C@@:7]12[H:19]"
C        2.49690962       0.43257504      -0.67874798
C        1.40374320      -0.61673786      -0.67660211
C       -0.01025416      -0.24965428       0.93932165
C       -0.62131442       1.13127558       0.74794943
C       -1.94267200       0.38941028       0.83375450
C       -2.13313554      -0.43272466      -0.38563480
C       -1.24289204      -1.00273643       0.68517832
H        2.94216779       0.55156084      -1.66891149
H        3.29664183       0.17041367       0.01702568
H        2.10760672       1.40541259      -0.37121053
H        0.63559954      -0.41164962      -1.42050681
H        1.78013904      -1.61730092      -0.90422156
H        1.18203498      -0.83590437       0.62966010
H       -0.47636877       1.63034719      -0.21438475
H       -0.38863310       1.81951033       1.55854704
H       -2.73054713       0.59812138       1.54294841
H       -3.08598031      -0.93930709      -0.48142808
H       -1.71002774      -0.08794259      -1.32463414
H       -1.50301751      -1.93466906       1.17189710
19
Frame=7 idx=007438 GeodesicLength=0.4661947610430458 rxn_smarts="[C:1]([C:2]([C@@:3]1([H:13])[C:4]([H:14])([H:15])[C@@:5]2([H:16])[C:6]([H:17])([H:18])[C@@:7]12[H:19])([H:11])[H:12])([H:8])([H:9])[H:10]>>[C:1]([C:2]([H:11])([H:12])[H:13])([H:8])([H:9])[H:10].[C:3]1[C:4]([H:14])([H:15])[C@@:5]2([H:16])[C:6]([H:17])([H:18])[C@@:7]12[H:19]"
C        2.50232697       0.42947814      -0.66800989
C        1.40526628      -0.61706048      -0.68115844
C       -0.01278344      -0.23806576       0.92371016
C       -0.62931618       1.14073780       0.73529842
C       -1.94417959       0.39218517       0.83488499
C       -2.14087795      -0.43742608      -0.37962097
C       -1.24224628      -1.00078297       0.68641496
H        2.94332733       0.56855262      -1.65734650
H        3.30449249       0.15050602       0.01848261
H        2.11822027       1.39657973      -0.33672789
H        0.64729225      -0.40156758      -1.43364102
H        1.78233988      -1.61282385      -0.92882407
H        1.18978420      -0.86228715       0.63305654
H       -0.49326401       1.63421149      -0.23109716
H       -0.39215709       1.83180267       1.54188555
H       -2.72649513       0.59918729       1.55065731
H       -3.09333812      -0.94626855      -0.46692633
H       -1.72389669      -0.09662314      -1.32280792
H       -1.49449519      -1.93033538       1.18176966
19
Frame=8 idx=007438 GeodesicLength=0.532666809023548 rxn_smarts="[C:1]([C:2]([C@@:3]1([H:13])[C:4]([H:14])([H:15])[C@@:5]2([H:16])[C:6]([H:17])([H:18])[C@@:7]12[H:19])([H:11])[H:12])([H:8])([H:9])[H:10]>>[C:1]([C:2]([H:11])([H:12])[H:13])([H:8])([H:9])[H:10].[C:3]1[C:4]([H:14])([H:15])[C@@:5]2([H:16])[C:6]([H:17])([H:18])[C@@:7]12[H:19]"
C        2.50751855       0.42635693      -0.65711505
C        1.40681794      -0.61744231      -0.68589995
C       -0.01534025      -0.22665594       0.90772832
C       -0.63726889       1.15010019       0.72247964
C       -1.94551745       0.39504579       0.83605505
C       -2.14865932      -0.44203932      -0.37343776
C       -1.24153142      -0.99878204       0.68758926
H        2.94474348       0.58552479      -1.64498574
H        3.31178843       0.13107585       0.02015122
H        2.12822659       1.38709490      -0.30254636
H        0.65935107      -0.39144920      -1.44690885
H        1.78499120      -1.60792911      -0.95322768
H        1.19709854      -0.88901436       0.63586217
H       -0.51029078       1.63792915      -0.24789493
H       -0.39543785       1.84394821       1.52498211
H       -2.72204088       0.60044840       1.55851612
H       -3.10070916      -0.95306244      -0.45207348
H       -1.73793672      -0.10530759      -1.32082867
H       -1.48580310      -1.92584190       1.19155457
19
Frame=9 idx=007438 GeodesicLength=0.5991005297110089 rxn_smarts="[C:1]([C:2]([C@@:3]1([H:13])[C:4]([H:14])([H:15])[C@@:5]2([H:16])[C:6]([H:17])([H:18])[C@@:7]12[H:19])([H:11])[H:12])([H:8])([H:9])[H:10]>>[C:1]([C:2]([H:11])([H:12])[H:13])([H:8])([H:9])[H:10].[C:3]1[C:4]([H:14])([H:15])[C@@:5]2([H:16])[C:6]([H:17])([H:18])[C@@:7]12[H:19]"
C        2.51249364       0.42320423      -0.64605347
C        1.40840502      -0.61786715      -0.69083370
C       -0.01793526      -0.21541488       0.89137689
C       -0.64517862       1.15936381       0.70947899
C       -1.94668461       0.39798944       0.83726407
C       -2.15648814      -0.44657319      -0.36707553
C       -1.24074159      -0.99673662       0.68869500
H        2.94640389       0.60246406      -1.63179581
H        3.31853903       0.11208782       0.02204755
H        2.13762676       1.37697427      -0.26866733
H        0.67178700      -0.38125296      -1.46030037
H        1.78806436      -1.60260613      -0.97743309
H        1.20403991      -0.91610583       0.63805348
H       -0.52746785       1.64149356      -0.26479264
H       -0.39848384       1.85596404       1.50780581
H       -2.71717293       0.60190655       1.56652559
H       -3.10809812      -0.95969788      -0.43684772
H       -1.75217889      -0.11400249      -1.31869167
H       -1.47692975      -1.92119064       1.20124393
19
Frame=10 idx=007438 GeodesicLength=0.6655259238003052 rxn_smarts="[C:1]([C:2]([C@@:3]1([H:13])[C:4]([H:14])([H:15])[C@@:5]2([H:16])[C:6]([H:17])([H:18])[C@@:7]12[H:19])([H:11])[H:12])([H:8])([H:9])[H:10]>>[C:1]([C:2]([H:11])([H:12])[H:13])([H:8])([H:9])[H:10].[C:3]1[C:4]([H:14])([H:15])[C@@:5]2([H:16])[C:6]([H:17])([H:18])[C@@:7]12[H:19]"
C        2.51725042       0.42001395      -0.63481224
C        1.41000779      -0.61832170      -0.69596213
C       -0.02058572      -0.20432832       0.87466855
C       -0.65306008       1.16854099       0.69628496
C       -1.94768620       0.40102134       0.83850373
C       -2.16436043      -0.45103551      -0.36052916
C       -1.23987254      -0.99463943       0.68974031
H        2.94828999       0.61936781      -1.61780868
H        3.32478818       0.09351441       0.02417376
H        2.14642932       1.36622058      -0.23503472
H        0.68459445      -0.37095116      -1.47380214
H        1.79156765      -1.59685513      -1.00149186
H        1.21064653      -0.94361548       0.63964492
H       -0.54481628       1.64490690      -0.28180197
H       -0.40131566       1.86787145       1.49033478
H       -2.71189807       0.60356807       1.57467022
H       -3.11549463      -0.96618977      -0.42123970
H       -1.76662578      -0.12271648      -1.31639027
H       -1.46785892      -1.91637253       1.21085164
19
Frame=11 idx=007438 GeodesicLength=0.731939302562774 rxn_smarts="[C:1]([C:2]([C@@:3]1([H:13])[C:4]([H:14])([H:15])[C@@:5]2([H:16])[C:6]([H:17])([H:18])[C@@:7]12[H:19])([H:11])[H:12])([H:8])([H:9])[H:10]>>[C:1]([C:2]([H:11])([H:12])[H:13])([H:8])([H:9])[H:10].[C:3]1[C:4]([H:14])([H:15])[C@@:5]2([H:16])[C:6]([H:17])([H:18])[C@@:7]12[H:19]"
C        2.52179291       0.41677313      -0.62337320
C        1.41162218      -0.61878368      -0.70129744
C       -0.02330417      -0.19337856       0.85759972
C       -0.66092795       1.17764190       0.68287457
C       -1.94852206       0.40414338       0.83976877
C       -2.17227939      -0.45544056      -0.35378505
C       -1.23891530      -0.99248593       0.69072796
H        2.95038616       0.63623131      -1.60300995
H        3.33055684       0.07529072       0.02654859
H        2.15464453       1.35484150      -0.20159295
H        0.69778130      -0.36049029      -1.48740965
H        1.79548782      -1.59065600      -1.02543930
H        1.21695632      -0.97158334       0.64060952
H       -0.56236556       1.64816493      -0.29894829
H       -0.40395057       1.87969712       1.47252781
H       -2.70620512       0.60543983       1.58294338
H       -3.12289228      -0.97255981      -0.40521765
H       -1.78130133      -0.13146824      -1.31391496
H       -1.45856434      -1.91137741       1.22038811
19
Frame=12 idx=007438 GeodesicLength=0.7983531840259772 rxn_smarts="[C:1]([C:2]([C@@:3]1([H:13])[C:4]([H:14])([H:15])[C@@:5]2([H:16])[C:6]([H:17])([H:18])[C@@:7]12[H:19])([H:11])[H:12])([H:8])([H:9])[H:10]>>[C:1]([C:2]([H:11])([H:12])[H:13])([H:8])([H:9])[H:10].[C:3]1[C:4]([H:14])([H:15])[C@@:5]2([H:16])[C:6]([H:17])([H:18])[C@@:7]12[H:19]"
C        2.52611939       0.41347503      -0.61171824
C        1.41324175      -0.61924102      -0.70684831
C       -0.02609911      -0.18255025       0.84016911
C       -0.66879230       1.18667556       0.66923282
C       -1.94919117       0.40735900       0.84105636
C       -2.18024584      -0.45979563      -0.34683280
C       -1.23786021      -0.99027083       0.69166089
H        2.95269041       0.65304506      -1.58738098
H        3.33584919       0.05740027       0.02919929
H        2.16226759       1.34283843      -0.16833246
H        0.71135299      -0.34983546      -1.50111193
H        1.79981517      -1.58399852      -1.04930486
H        1.22301127      -1.00007351       0.64091905
H       -0.58013640       1.65126617      -0.31624626
H       -0.40640013       1.89146115       1.45435535
H       -2.70008735       0.60752845       1.59134135
H       -3.13028654      -0.97881868      -0.38876042
H       -1.79622204      -0.14026736      -1.31125764
H       -1.44902669      -1.90619786       1.22985968
19
Frame=13 idx=007438 GeodesicLength=0.864766213597142 rxn_smarts="[C:1]([C:2]([C@@:3]1([H:13])[C:4]([H:14])([H:15])[C@@:5]2([H:16])[C:6]([H:17])([H:18])[C@@:7]12[H:19])([H:11])[H:12])([H:8])([H:9])[H:10]>>[C:1]([C:2]([H:11])([H:12])[H:13])([H:8])([H:9])[H:10].[C:3]1[C:4]([H:14])([H:15])[C@@:5]2([H:16])[C:6]([H:17])([H:18])[C@@:7]12[H:19]"
C        2.53023470       0.41010446      -0.59982437
C        1.41486043      -0.61966999      -0.71262975
C       -0.02898097      -0.17181981       0.82236820
C       -0.67667132       1.19565484       0.65533405
C       -1.94969364       0.41067158       0.84236222
C       -2.18826132      -0.46411501      -0.33965501
C       -1.23669432      -0.98798640       0.69254378
H        2.95520495       0.66979886      -1.57089119
H        3.34067915       0.03978559       0.03214987
H        2.16929761       1.33020605      -0.13520710
H        0.72531890      -0.33892868      -1.51490521
H        1.80453463      -1.57685762      -1.07312553
H        1.22884159      -1.02914187       0.64052560
H       -0.59816355       1.65420857      -0.33372200
H       -0.40868372       1.90319144       1.43577252
H       -2.69353280       0.60984072       1.59986019
H       -3.13766694      -0.98498890      -0.37183095
H       -1.81141061      -0.14913425      -1.30840485
H       -1.43921277      -1.90081958       1.23927953
19
Frame=14 idx=007438 GeodesicLength=0.9311863919169996 rxn_smarts="[C:1]([C:2]([C@@:3]1([H:13])[C:4]([H:14])([H:15])[C@@:5]2([H:16])[C:6]([H:17])([H:18])[C@@:7]12[H:19])([H:11])[H:12])([H:8])([H:9])[H:10]>>[C:1]([C:2]([H:11])([H:12])[H:13])([H:8])([H:9])[H:10].[C:3]1[C:4]([H:14])([H:15])[C@@:5]2([H:16])[C:6]([H:17])([H:18])[C@@:7]12[H:19]"
C        2.53413875       0.40664637      -0.58766552
C        1.41647235      -0.62004976      -0.71865887
C       -0.03195709      -0.16116371       0.80418696
C       -0.68458259       1.20459337       0.64115231
C       -1.95002740       0.41408607       0.84368241
C       -2.19632536      -0.46841234      -0.33223267
C       -1.23540203      -0.98562319       0.69338312
H        2.95793554       0.68648073      -1.55350448
H        3.34504387       0.02239893       0.03543774
H        2.17573208       1.31693537      -0.10218211
H        0.73968844      -0.32771115      -1.52878477
H        1.80963536      -1.56920392      -1.09694238
H        1.23447612      -1.05886161       0.63937058
H       -0.61648050       1.65698877      -0.35140189
H       -0.41082139       1.91491718       1.41673295
H       -2.68652801       0.61238734       1.60849586
H       -3.14502223      -0.99109221      -0.35439016
H       -1.82688935      -0.15808988      -1.30534192
H       -1.42908657      -1.89522633       1.24866282
19
Frame=15 idx=007438 GeodesicLength=0.997616348738115 rxn_smarts="[C:1]([C:2]([C@@:3]1([H:13])[C:4]([H:14])([H:15])[C@@:5]2([H:16])[C:6]([H:17])([H:18])[C@@:7]12[H:19])([H:11])[H:12])([H:8])([H:9])[H:10]>>[C:1]([C:2]([H:11])([H:12])[H:13])([H:8])([H:9])[H:10].[C:3]1[C:4]([H:14])([H:15])[C@@:5]2([H:16])[C:6]([H:17])([H:18])[C@@:7]12[H:19]"
C        2.53783318       0.40308262      -0.57521304
C        1.41806968      -0.62035579      -0.72495381
C       -0.03503515      -0.15055459       0.78561303
C       -0.69254703       1.21350635       0.62666145
C       -1.95019135       0.41760770       0.84501370
C       -2.20443647      -0.47270218      -0.32454476
C       -1.23396565      -0.98316971       0.69418619
H        2.96090090       0.70306715      -1.53517559
H        3.34894090       0.00519188       0.03910334
H        2.18156211       1.30301451      -0.06923249
H        0.75447452      -0.31611733      -1.54274400
H        1.81510283      -1.56100530      -1.12079718
H        1.23993883      -1.08930795       0.63738119
H       -0.63512669       1.65960561      -0.36931098
H       -0.41283681       1.92666912       1.39718937
H       -2.67905990       0.61517652       1.61724607
H       -3.15233784      -0.99715279      -0.33639645
H       -1.84267945      -0.16715676      -1.30205188
H       -1.41860659      -1.88939908       1.25802586
19
Frame=16 idx=007438 GeodesicLength=1.064059851203003 rxn_smarts="[C:1]([C:2]([C@@:3]1([H:13])[C:4]([H:14])([H:15])[C@@:5]2([H:16])[C:6]([H:17])([H:18])[C@@:7]12[H:19])([H:11])[H:12])([H:8])([H:9])[H:10]>>[C:1]([C:2]([H:11])([H:12])[H:13])([H:8])([H:9])[H:10].[C:3]1[C:4]([H:14])([H:15])[C@@:5]2([H:16])[C:6]([H:17])([H:18])[C@@:7]12[H:19]"
C        2.54132119       0.39939019      -0.56243434
C        1.41964486      -0.62055893      -0.73153650
C       -0.03822273      -0.13996061       0.76663082
C       -0.70058989       1.22241144       0.61182923
C       -1.95018384       0.42124288       0.84635177
C       -2.21259165      -0.47700266      -0.31656622
C       -1.23236334      -0.98061174       0.69496301
H        2.96412118       0.71953906      -1.51584932
H        3.35236476      -0.01190052       0.04318853
H        2.18677838       1.28842146      -0.03631715
H        0.76969259      -0.30407017      -1.55677691
H        1.82092126      -1.55221990      -1.14473686
H        1.24524872      -1.12056274       0.63446572
H       -0.65414792       1.66205577      -0.38748112
H       -0.41475872       1.93848346       1.37708490
H       -2.67111287       0.61822175       1.62610609
H       -3.15959500      -1.00320060      -0.31779921
H       -1.85880327      -0.17636498      -1.29851411
H       -1.40772371      -1.88331316       1.26739168
