13
Frame=0 idx=010022 GeodesicLength=0.0 rxn_smarts="[N:1]([c:2]1[c:3]([H:10])[c:4]([H:11])[c:5]([O:6][H:12])[n:7]1[H:13])([H:8])[H:9]>>[N+:1]([c:2]1[c:3]([H:10])[c:4]([H:11])[c:5]([O:6][H:12])[n-:7]1)([H:8])([H:9])[H:13]"
N       -2.04712855      -0.66804056       0.17023938
C       -0.80374234       0.06357718       0.02430702
C       -0.23902447       1.28874824      -0.17849158
C        1.16114134       1.00982753      -0.18908164
C        1.31085748      -0.35637963       0.00652999
O        2.43165429      -1.11880249       0.07512531
N        0.10686959      -0.93683358       0.13802392
H       -2.64421822      -0.69866370      -0.64824312
H       -2.59349538      -0.46032035       0.99824757
H       -0.72016580       2.24561219      -0.30105870
H        1.95542155       1.72839479      -0.32783039
H        3.19135270      -0.54556347      -0.03437608
H       -1.10952223      -1.55155621       0.26660837
13
Frame=1 idx=010022 GeodesicLength=0.037491181162257275 rxn_smarts="[N:1]([c:2]1[c:3]([H:10])[c:4]([H:11])[c:5]([O:6][H:12])[n:7]1[H:13])([H:8])[H:9]>>[N+:1]([c:2]1[c:3]([H:10])[c:4]([H:11])[c:5]([O:6][H:12])[n-:7]1)([H:8])([H:9])[H:13]"
N       -2.04757074      -0.66856383       0.17067721
C       -0.80311375       0.06452237       0.04311030
C       -0.23944975       1.28736050      -0.17454280
C        1.16063793       1.00951083      -0.19513744
C        1.31093052      -0.35688748      -0.00444456
O        2.43194292      -1.11826491       0.07460430
N        0.10919632      -0.93624813       0.15166800
H       -2.63892513      -0.68248315      -0.65248752
H       -2.59973194      -0.45869277       0.99438596
H       -0.72458175       2.24079242      -0.30805828
H        1.95435703       1.72988472      -0.32730168
H        3.19176404      -0.54510980      -0.03456404
H       -1.10545568      -1.56582076       0.26209055
13
Frame=2 idx=010022 GeodesicLength=0.07497389317002592 rxn_smarts="[N:1]([c:2]1[c:3]([H:10])[c:4]([H:11])[c:5]([O:6][H:12])[n:7]1[H:13])([H:8])[H:9]>>[N+:1]([c:2]1[c:3]([H:10])[c:4]([H:11])[c:5]([O:6][H:12])[n-:7]1)([H:8])([H:9])[H:13]"
N       -2.04789120      -0.66893979       0.17066778
C       -0.80248972       0.06544702       0.06137619
C       -0.23993648       1.28597258      -0.17040115
C        1.16001244       1.00919669      -0.20066618
C        1.31094040      -0.35684372      -0.01100520
O        2.43195782      -1.11816044       0.07138669
N        0.11154524      -0.93556893       0.16547097
H       -2.63323010      -0.66663437      -0.65697752
H       -2.60588484      -0.45681454       0.98995696
H       -0.72905695       2.23601972      -0.31353934
H        1.95306300       1.73079115      -0.32988805
H        3.19200819      -0.54452112      -0.03362586
H       -1.10103780      -1.57994425       0.25724472
13
Frame=3 idx=010022 GeodesicLength=0.11243537057200474 rxn_smarts="[N:1]([c:2]1[c:3]([H:10])[c:4]([H:11])[c:5]([O:6][H:12])[n:7]1[H:13])([H:8])[H:9]>>[N+:1]([c:2]1[c:3]([H:10])[c:4]([H:11])[c:5]([O:6][H:12])[n-:7]1)([H:8])([H:9])[H:13]"
N       -2.04814220      -0.66909619       0.17093516
C       -0.80192896       0.06617670       0.07786694
C       -0.24057948       1.28425440      -0.16826917
C        1.15938721       1.00912734      -0.20436551
C        1.31091100      -0.35652803      -0.01550905
O        2.43183893      -1.11821167       0.06748264
N        0.11381164      -0.93508924       0.17757808
H       -2.62824050      -0.65135822      -0.66028761
H       -2.61094729      -0.45412556       0.98628765
H       -0.73364165       2.23102972      -0.31974035
H        1.95176480       1.73187938      -0.33094766
H        3.19212322      -0.54408024      -0.03312436
H       -1.09635671      -1.59397839       0.25209324
13
Frame=4 idx=010022 GeodesicLength=0.14984956078039047 rxn_smarts="[N:1]([c:2]1[c:3]([H:10])[c:4]([H:11])[c:5]([O:6][H:12])[n:7]1[H:13])([H:8])[H:9]>>[N+:1]([c:2]1[c:3]([H:10])[c:4]([H:11])[c:5]([O:6][H:12])[n-:7]1)([H:8])([H:9])[H:13]"
N       -2.04838699      -0.66914160       0.17099381
C       -0.80146936       0.06672718       0.09254978
C       -0.24137054       1.28218093      -0.16809072
C        1.15873094       1.00911376      -0.20744380
C        1.31087688      -0.35599719      -0.01824616
O        2.43171086      -1.11803996       0.06546598
N        0.11597977      -0.93469639       0.18873059
H       -2.62357284      -0.63707806      -0.66329118
H       -2.61546246      -0.45056232       0.98252043
H       -0.73810906       2.22651433      -0.32316707
H        1.95037505       1.73281210      -0.33291229
H        3.19214238      -0.54390583      -0.03408394
H       -1.09144464      -1.60792696       0.24697458
13
Frame=5 idx=010022 GeodesicLength=0.18725769216670268 rxn_smarts="[N:1]([c:2]1[c:3]([H:10])[c:4]([H:11])[c:5]([O:6][H:12])[n:7]1[H:13])([H:8])[H:9]>>[N+:1]([c:2]1[c:3]([H:10])[c:4]([H:11])[c:5]([O:6][H:12])[n-:7]1)([H:8])([H:9])[H:13]"
N       -2.04862885      -0.66905729       0.17105814
C       -0.80109158       0.06721622       0.10618513
C       -0.24224950       1.27998943      -0.16855829
C        1.15808307       1.00925389      -0.20942554
C        1.31082993      -0.35528705      -0.01969938
O        2.43151364      -1.11784169       0.06398977
N        0.11806504      -0.93431532       0.19941053
H       -2.61910225      -0.62339188      -0.66591165
H       -2.61958481      -0.44645660       0.97887035
H       -0.74259225       2.22187900      -0.32716286
H        1.94899582       1.73389738      -0.33374516
H        3.19205539      -0.54407360      -0.03689617
H       -1.08629364      -1.62181250       0.24188513
13
Frame=6 idx=010022 GeodesicLength=0.22464839843875245 rxn_smarts="[N:1]([c:2]1[c:3]([H:10])[c:4]([H:11])[c:5]([O:6][H:12])[n:7]1[H:13])([H:8])[H:9]>>[N+:1]([c:2]1[c:3]([H:10])[c:4]([H:11])[c:5]([O:6][H:12])[n-:7]1)([H:8])([H:9])[H:13]"
N       -2.04887205      -0.66884535       0.17131686
C       -0.80077726       0.06760881       0.11847983
C       -0.24323194       1.27757139      -0.17036884
C        1.15739643       1.00934777      -0.21173088
C        1.31072000      -0.35459841      -0.02128989
O        2.43119092      -1.11787792       0.06123055
N        0.12007837      -0.93400354       0.20914869
H       -2.61506370      -0.61045925      -0.66785441
H       -2.62309642      -0.44164131       0.97563347
H       -0.74698043       2.21756615      -0.32975369
H        1.94759691       1.73497884      -0.33449793
H        3.19195463      -0.54398272      -0.03730882
H       -1.08091546      -1.63566446       0.23699509
13
Frame=7 idx=010022 GeodesicLength=0.26202991660792546 rxn_smarts="[N:1]([c:2]1[c:3]([H:10])[c:4]([H:11])[c:5]([O:6][H:12])[n:7]1[H:13])([H:8])[H:9]>>[N+:1]([c:2]1[c:3]([H:10])[c:4]([H:11])[c:5]([O:6][H:12])[n-:7]1)([H:8])([H:9])[H:13]"
N       -2.04912240      -0.66853080       0.17151800
C       -0.80051453       0.06799234       0.13024588
C       -0.24423730       1.27520049      -0.17180496
C        1.15667775       1.00947573      -0.21376570
C        1.31057084      -0.35384222      -0.02237712
O        2.43077654      -1.11798966       0.05823921
N        0.12202185      -0.93371019       0.21849147
H       -2.61109941      -0.59774050      -0.66961926
H       -2.62637310      -0.43670137       0.97245444
H       -0.75132862       2.21333872      -0.33185361
H        1.94612944       1.73589648      -0.33637015
H        3.19180569      -0.54386252      -0.03697793
H       -1.07530676      -1.64952651       0.23181973
13
Frame=8 idx=010022 GeodesicLength=0.299398861628121 rxn_smarts="[N:1]([c:2]1[c:3]([H:10])[c:4]([H:11])[c:5]([O:6][H:12])[n:7]1[H:13])([H:8])[H:9]>>[N+:1]([c:2]1[c:3]([H:10])[c:4]([H:11])[c:5]([O:6][H:12])[n-:7]1)([H:8])([H:9])[H:13]"
N       -2.04940738      -0.66813198       0.17161812
C       -0.80034338       0.06837119       0.14129624
C       -0.24528880       1.27277618      -0.17352986
C        1.15597074       1.00970781      -0.21509787
C        1.31041713      -0.35294884      -0.02252178
O        2.43032608      -1.11798305       0.05637181
N        0.12387319      -0.93337737       0.22767603
H       -2.60716429      -0.58558008      -0.67134571
H       -2.62952638      -0.43138924       0.96915105
H       -0.75562074       2.20915546      -0.33394538
H        1.94466886       1.73687793      -0.33775125
H        3.19156230      -0.54409695      -0.03868813
H       -1.06946732      -1.66338105       0.22676672
13
Frame=9 idx=010022 GeodesicLength=0.3367619940532504 rxn_smarts="[N:1]([c:2]1[c:3]([H:10])[c:4]([H:11])[c:5]([O:6][H:12])[n:7]1[H:13])([H:8])[H:9]>>[N+:1]([c:2]1[c:3]([H:10])[c:4]([H:11])[c:5]([O:6][H:12])[n-:7]1)([H:8])([H:9])[H:13]"
N       -2.04971643      -0.66763528       0.17170348
C       -0.80022501       0.06874635       0.15189962
C       -0.24635341       1.27040112      -0.17495247
C        1.15524083       1.00997352      -0.21621311
C        1.31022977      -0.35200851      -0.02237041
O        2.42979182      -1.11804863       0.05424450
N        0.12564829      -0.93307222       0.23644908
H       -2.60332719      -0.57360404      -0.67288257
H       -2.63246939      -0.42596677       0.96594797
H       -0.75986426       2.20504411      -0.33566610
H        1.94316113       1.73772991      -0.34003077
H        3.19128340      -0.54428614      -0.03959888
H       -1.06339956      -1.67727342       0.22146967
13
Frame=10 idx=010022 GeodesicLength=0.37412535844851946 rxn_smarts="[N:1]([c:2]1[c:3]([H:10])[c:4]([H:11])[c:5]([O:6][H:12])[n:7]1[H:13])([H:8])[H:9]>>[N+:1]([c:2]1[c:3]([H:10])[c:4]([H:11])[c:5]([O:6][H:12])[n-:7]1)([H:8])([H:9])[H:13]"
N       -2.05004892      -0.66703934       0.17174334
C       -0.80018211       0.06917852       0.16232921
C       -0.24740860       1.26812787      -0.17583971
C        1.15453664       1.01038754      -0.21641854
C        1.31003423      -0.35092290      -0.02131979
O        2.42917694      -1.11809674       0.05262628
N        0.12734435      -0.93269335       0.24536137
H       -2.59937883      -0.56184813      -0.67441480
H       -2.63541749      -0.42042496       0.96265444
H       -0.76418477       2.20063475      -0.33888257
H        1.94169637       1.73872504      -0.34129644
H        3.19089415      -0.54486280      -0.04269841
H       -1.05706198      -1.69116549       0.21615563
13
Frame=11 idx=010022 GeodesicLength=0.41147761555710466 rxn_smarts="[N:1]([c:2]1[c:3]([H:10])[c:4]([H:11])[c:5]([O:6][H:12])[n:7]1[H:13])([H:8])[H:9]>>[N+:1]([c:2]1[c:3]([H:10])[c:4]([H:11])[c:5]([O:6][H:12])[n-:7]1)([H:8])([H:9])[H:13]"
N       -2.05042253      -0.66635941       0.17174141
C       -0.80020925       0.06961332       0.17229038
C       -0.24848253       1.26585944      -0.17674095
C        1.15382381       1.01083941      -0.21639099
C        1.30982437      -0.34976975      -0.01984573
O        2.42850660      -1.11813215       0.05134082
N        0.12895169      -0.93231912       0.25398596
H       -2.59549534      -0.55039905      -0.67585587
H       -2.63823435      -0.41468325       0.95935835
H       -0.76844003       2.19631676      -0.34172111
H        1.94021221       1.73966602      -0.34290323
H        3.19044829      -0.54552706      -0.04603955
H       -1.05048294      -1.70510515       0.21078049
13
Frame=12 idx=010022 GeodesicLength=0.44881930301515766 rxn_smarts="[N:1]([c:2]1[c:3]([H:10])[c:4]([H:11])[c:5]([O:6][H:12])[n:7]1[H:13])([H:8])[H:9]>>[N+:1]([c:2]1[c:3]([H:10])[c:4]([H:11])[c:5]([O:6][H:12])[n-:7]1)([H:8])([H:9])[H:13]"
N       -2.05085453      -0.66558063       0.17184119
C       -0.80029005       0.07002152       0.18157273
C       -0.24958892       1.26351031      -0.17814153
C        1.15308900       1.01125270      -0.21662189
C        1.30959347      -0.34862088      -0.01840957
O        2.42780053      -1.11816000       0.05024688
N        0.13046842      -0.93200991       0.26194647
H       -2.59190249      -0.53928678      -0.67695309
H       -2.64073553      -0.40865709       0.95633030
H       -0.77258902       2.19220172      -0.34383520
H        1.93871914       1.74058680      -0.34455865
H        3.18998838      -0.54613049      -0.04871506
H       -1.04369840      -1.71912727       0.20529742
13
Frame=13 idx=010022 GeodesicLength=0.48615218946053473 rxn_smarts="[N:1]([c:2]1[c:3]([H:10])[c:4]([H:11])[c:5]([O:6][H:12])[n:7]1[H:13])([H:8])[H:9]>>[N+:1]([c:2]1[c:3]([H:10])[c:4]([H:11])[c:5]([O:6][H:12])[n-:7]1)([H:8])([H:9])[H:13]"
N       -2.05134135      -0.66472238       0.17188979
C       -0.80045944       0.07047023       0.19047280
C       -0.25070742       1.26114685      -0.17967346
C        1.15237734       1.01176320      -0.21628261
C        1.30937121      -0.34735315      -0.01625133
O        2.42706484      -1.11809322       0.05008219
N        0.13188975      -0.93164144       0.26992853
H       -2.58827568      -0.52859965      -0.67809326
H       -2.64324495      -0.40233891       0.95316393
H       -0.77670583       2.18800213      -0.34649766
H        1.93727242       1.74165508      -0.34519281
H        3.18940653      -0.54709207      -0.05358582
H       -1.03664743      -1.73319668       0.20003971
13
Frame=14 idx=010022 GeodesicLength=0.5234689705343482 rxn_smarts="[N:1]([c:2]1[c:3]([H:10])[c:4]([H:11])[c:5]([O:6][H:12])[n:7]1[H:13])([H:8])[H:9]>>[N+:1]([c:2]1[c:3]([H:10])[c:4]([H:11])[c:5]([O:6][H:12])[n-:7]1)([H:8])([H:9])[H:13]"
N       -2.05191134      -0.66370100       0.17240611
C       -0.80058974       0.07081431       0.19860696
C       -0.25185335       1.25866214      -0.18183760
C        1.15160839       1.01208128      -0.21712572
C        1.30909750      -0.34628962      -0.01537280
O        2.42632847      -1.11810862       0.04915133
N        0.13323039      -0.93156638       0.27619456
H       -2.58549080      -0.51773805      -0.67815242
H       -2.64494752      -0.39593976       0.95111379
H       -0.78071290       2.18405063      -0.34814994
H        1.93578432       1.74260662      -0.34648626
H        3.18896365      -0.54743520      -0.05422408
H       -1.02950708      -1.74743633       0.19387607
13
Frame=15 idx=010022 GeodesicLength=0.5607765325702629 rxn_smarts="[N:1]([c:2]1[c:3]([H:10])[c:4]([H:11])[c:5]([O:6][H:12])[n:7]1[H:13])([H:8])[H:9]>>[N+:1]([c:2]1[c:3]([H:10])[c:4]([H:11])[c:5]([O:6][H:12])[n-:7]1)([H:8])([H:9])[H:13]"
N       -2.05256021      -0.66255154       0.17316665
C       -0.80072746       0.07112367       0.20623200
C       -0.25301787       1.25611175      -0.18434864
C        1.15081925       1.01234211      -0.21832538
C        1.30880214      -0.34528435      -0.01486645
O        2.42558429      -1.11813763       0.04810952
N        0.13448942      -0.93162691       0.28159484
H       -2.58313674      -0.50693121      -0.67765476
H       -2.64625223      -0.38938322       0.94961633
H       -0.78465442       2.18016560      -0.34963327
H        1.93429158       1.74356662      -0.34766617
H        3.18856511      -0.54759498      -0.05351033
H       -1.02220288      -1.76179992       0.18728565
13
Frame=16 idx=010022 GeodesicLength=0.5980801692551897 rxn_smarts="[N:1]([c:2]1[c:3]([H:10])[c:4]([H:11])[c:5]([O:6][H:12])[n:7]1[H:13])([H:8])[H:9]>>[N+:1]([c:2]1[c:3]([H:10])[c:4]([H:11])[c:5]([O:6][H:12])[n-:7]1)([H:8])([H:9])[H:13]"
N       -2.05328574      -0.66126932       0.17416123
C       -0.80087291       0.07141959       0.21348811
C       -0.25418880       1.25352623      -0.18702639
C        1.15001975       1.01256990      -0.21971487
C        1.30849627      -0.34430289      -0.01449785
O        2.42483841      -1.11815390       0.04717092
N        0.13566690      -0.93179462       0.28632192
H       -2.58113689      -0.49612590      -0.67665734
H       -2.64723057      -0.38270086       0.94862045
H       -0.78858262       2.17619946      -0.35154870
H        1.93281233       1.74460210      -0.34827380
H        3.18817752      -0.54769338      -0.05228519
H       -1.01471365      -1.77627641       0.18024151
