16
Frame=0 idx=007192 GeodesicLength=0.0 rxn_smarts="[C:1]([c:2]1[c:3]([H:11])[c:4]([H:12])[c:5]([C:6]([H:13])([H:14])[H:15])[n:7]1[H:16])([H:8])([H:9])[H:10]>>[C:1]([C:2](/[C:3](=[C:4](\[C:5](=[C:6]([H:13])[H:15])[H:14])[H:12])[H:11])=[N:7]\[H:16])([H:8])([H:9])[H:10]"
C       -2.46791835      -0.34993115       0.26670907
C       -1.05841512       0.08296904       0.06912451
C       -0.54872336       1.35914185      -0.14150155
C        0.83701552       1.25693094      -0.16167101
C        1.21421543      -0.11703387      -0.01474555
C        2.39761871      -0.84065677      -0.64846755
N       -0.02913710      -0.77713916       0.15519248
H       -2.64524228      -0.63628296       1.30667014
H       -3.15154456       0.45900239       0.01606929
H       -2.71092910      -1.20959667      -0.36166685
H       -1.14146300       2.25804602      -0.20650581
H        1.55264891       2.06130140      -0.23524964
H        3.09577861      -0.14111279      -1.10526694
H        1.86086078      -0.10250214       0.90772292
H        2.90217450      -1.52564174       0.03518156
H       -0.10693963      -1.77749443       0.11840493
16
Frame=1 idx=007192 GeodesicLength=0.1221970518229122 rxn_smarts="[C:1]([c:2]1[c:3]([H:11])[c:4]([H:12])[c:5]([C:6]([H:13])([H:14])[H:15])[n:7]1[H:16])([H:8])([H:9])[H:10]>>[C:1]([C:2](/[C:3](=[C:4](\[C:5](=[C:6]([H:13])[H:15])[H:14])[H:12])[H:11])=[N:7]\[H:16])([H:8])([H:9])[H:10]"
C       -2.47232651      -0.34908243       0.25850152
C       -1.06074829       0.07436385       0.05235623
C       -0.54856490       1.35402957      -0.14423602
C        0.83764884       1.26163402      -0.15481903
C        1.22883371      -0.10686810      -0.00502646
C        2.40561455      -0.83520467      -0.62068788
N       -0.03503851      -0.78698552       0.14756356
H       -2.65159479      -0.61593294       1.30330039
H       -3.15288140       0.45823076      -0.00599695
H       -2.71857345      -1.21833573      -0.35524841
H       -1.14271882       2.25354433      -0.18584695
H        1.54429698       2.07572070      -0.20706558
H        3.06358752      -0.16323655      -1.16728397
H        1.90857038      -0.09005765       0.91255357
H        2.91804777      -1.52487820       0.05052065
H       -0.12415308      -1.78694143       0.12141531
16
Frame=2 idx=007192 GeodesicLength=0.24434187662024315 rxn_smarts="[C:1]([c:2]1[c:3]([H:11])[c:4]([H:12])[c:5]([C:6]([H:13])([H:14])[H:15])[n:7]1[H:16])([H:8])([H:9])[H:10]>>[C:1]([C:2](/[C:3](=[C:4](\[C:5](=[C:6]([H:13])[H:15])[H:14])[H:12])[H:11])=[N:7]\[H:16])([H:8])([H:9])[H:10]"
C       -2.47589555      -0.34834547       0.25084516
C       -1.06255602       0.06573304       0.03459051
C       -0.54818745       1.34900397      -0.14703089
C        0.83840768       1.26713262      -0.14572204
C        1.24422741      -0.09552850       0.00722076
C        2.41504455      -0.82669795      -0.59181630
N       -0.04056338      -0.79718969       0.13643304
H       -2.65554622      -0.59649281       1.30017497
H       -3.15376080       0.45735731      -0.02581963
H       -2.72636368      -1.22639363      -0.34849804
H       -1.14436455       2.24803521      -0.16932001
H        1.53515501       2.09092409      -0.17771495
H        3.02541964      -0.19097970      -1.22783511
H        1.95802202      -0.07518381       0.91872104
H        2.93200615      -1.52487761       0.06530453
H       -0.14104480      -1.79649705       0.12046696
16
Frame=3 idx=007192 GeodesicLength=0.36649005508664934 rxn_smarts="[C:1]([c:2]1[c:3]([H:11])[c:4]([H:12])[c:5]([C:6]([H:13])([H:14])[H:15])[n:7]1[H:16])([H:8])([H:9])[H:10]>>[C:1]([C:2](/[C:3](=[C:4](\[C:5](=[C:6]([H:13])[H:15])[H:14])[H:12])[H:11])=[N:7]\[H:16])([H:8])([H:9])[H:10]"
C       -2.47848333      -0.34777396       0.24404533
C       -1.06381748       0.05714247       0.01576085
C       -0.54759973       1.34407158      -0.15020180
C        0.83921852       1.27344543      -0.13462653
C        1.26030783      -0.08296017       0.02193033
C        2.42604243      -0.81489005      -0.56193195
N       -0.04559582      -0.80772929       0.12089332
H       -2.65651313      -0.57845105       1.29761427
H       -3.15422210       0.45645328      -0.04253333
H       -2.73431137      -1.23362434      -0.34135879
H       -1.14648526       2.24173492      -0.15731901
H        1.52511972       2.10698407      -0.14731481
H        2.98133664      -0.22486251      -1.28508722
H        2.00924601      -0.05756851       0.92599166
H        2.94327980      -1.52582838       0.07956194
H       -0.15752272      -1.80614347       0.11457575
16
Frame=4 idx=007192 GeodesicLength=0.4885442754097891 rxn_smarts="[C:1]([c:2]1[c:3]([H:11])[c:4]([H:12])[c:5]([C:6]([H:13])([H:14])[H:15])[n:7]1[H:16])([H:8])([H:9])[H:10]>>[C:1]([C:2](/[C:3](=[C:4](\[C:5](=[C:6]([H:13])[H:15])[H:14])[H:12])[H:11])=[N:7]\[H:16])([H:8])([H:9])[H:10]"
C       -2.47998255      -0.34751947       0.23775506
C       -1.06445556       0.04868761      -0.00412102
C       -0.54683221       1.33938347      -0.15387946
C        0.83990320       1.28070970      -0.12283247
C        1.27692899      -0.06903414       0.03881243
C        2.43847255      -0.79999837      -0.53135587
N       -0.04990771      -0.81845047       0.10089811
H       -2.65456997      -0.56225143       1.29530452
H       -3.15425796       0.45543767      -0.05648654
H       -2.74197173      -1.24015662      -0.33445073
H       -1.14897943       2.23511403      -0.14675319
H        1.51397668       2.12411461      -0.11673133
H        2.93131166      -0.26629008      -1.33778144
H        2.06244119      -0.03617319       0.93362862
H        2.95125129      -1.52778740       0.09354814
H       -0.17332845      -1.81578593       0.10444518
16
Frame=5 idx=007192 GeodesicLength=0.6108005956768351 rxn_smarts="[C:1]([c:2]1[c:3]([H:11])[c:4]([H:12])[c:5]([C:6]([H:13])([H:14])[H:15])[n:7]1[H:16])([H:8])([H:9])[H:10]>>[C:1]([C:2](/[C:3](=[C:4](\[C:5](=[C:6]([H:13])[H:15])[H:14])[H:12])[H:11])=[N:7]\[H:16])([H:8])([H:9])[H:10]"
C       -2.48030992      -0.34750202       0.23232820
C       -1.06449466       0.04046136      -0.02433386
C       -0.54567522       1.33469244      -0.15778741
C        0.84070160       1.28831605      -0.10810370
C        1.29397341      -0.05423742       0.05819437
C        2.45150214      -0.78189625      -0.50141105
N       -0.05359338      -0.82911313       0.07689325
H       -2.64971364      -0.54772047       1.29348458
H       -3.15366048       0.45429377      -0.06745747
H       -2.74920278      -1.24593674      -0.32740936
H       -1.15176653       2.22778910      -0.14266571
H        1.50204317       2.14160185      -0.08432748
H        2.87475145      -0.31365891      -1.38376229
H        2.11852811      -0.01231619       0.94086106
H        2.95562118      -1.52970589       0.10533110
H       -0.18870445      -1.82506755       0.09016578
16
Frame=6 idx=007192 GeodesicLength=0.7328652929323728 rxn_smarts="[C:1]([c:2]1[c:3]([H:11])[c:4]([H:12])[c:5]([C:6]([H:13])([H:14])[H:15])[n:7]1[H:16])([H:8])([H:9])[H:10]>>[C:1]([C:2](/[C:3](=[C:4](\[C:5](=[C:6]([H:13])[H:15])[H:14])[H:12])[H:11])=[N:7]\[H:16])([H:8])([H:9])[H:10]"
C       -2.47979249      -0.34780144       0.22726082
C       -1.06407041       0.03252723      -0.04475502
C       -0.54434348       1.33026757      -0.16166265
C        0.84124310       1.29632360      -0.09355071
C        1.31115182      -0.03868605       0.07885323
C        2.46466579      -0.76207704      -0.47298206
N       -0.05663351      -0.83969462       0.04956869
H       -2.64284948      -0.53538876       1.29170841
H       -3.15275681       0.45319695      -0.07603843
H       -2.75586285      -1.25099192      -0.32117753
H       -1.15469246       2.22051336      -0.13918487
H        1.48896587       2.15952379      -0.05191745
H        2.81451807      -0.36755331      -1.42075948
H        2.17743719       0.01532938       0.94569784
H        2.95665774      -1.53141699       0.11585214
H       -0.20363809      -1.83407174       0.07308707
16
Frame=7 idx=007192 GeodesicLength=0.8549677922845649 rxn_smarts="[C:1]([c:2]1[c:3]([H:11])[c:4]([H:12])[c:5]([C:6]([H:13])([H:14])[H:15])[n:7]1[H:16])([H:8])([H:9])[H:10]>>[C:1]([C:2](/[C:3](=[C:4](\[C:5](=[C:6]([H:13])[H:15])[H:14])[H:12])[H:11])=[N:7]\[H:16])([H:8])([H:9])[H:10]"
C       -2.47870527      -0.34832350       0.22223834
C       -1.06332730       0.02482801      -0.06483006
C       -0.54277904       1.32589295      -0.16510367
C        0.84160535       1.30425961      -0.07929982
C        1.32828310      -0.02284092       0.10031926
C        2.47680690      -0.74176005      -0.44727890
N       -0.05936561      -0.85017064       0.02050489
H       -2.63496390      -0.52473754       1.28959827
H       -3.15150797       0.45214660      -0.08329101
H       -2.76194073      -1.25543566      -0.31594262
H       -1.15745690       2.21313637      -0.13554226
H        1.47491172       2.17725068      -0.01934916
H        2.75207019      -0.42620841      -1.44767587
H        2.23976935       0.04649305       0.94625117
H        2.95522669      -1.53182737       0.12485611
H       -0.21862657      -1.84270317       0.05454533
16
Frame=8 idx=007192 GeodesicLength=0.9772171234980049 rxn_smarts="[C:1]([c:2]1[c:3]([H:11])[c:4]([H:12])[c:5]([C:6]([H:13])([H:14])[H:15])[n:7]1[H:16])([H:8])([H:9])[H:10]>>[C:1]([C:2](/[C:3](=[C:4](\[C:5](=[C:6]([H:13])[H:15])[H:14])[H:12])[H:11])=[N:7]\[H:16])([H:8])([H:9])[H:10]"
C       -2.47758315      -0.34891891       0.21690383
C       -1.06248417       0.01730841      -0.08386805
C       -0.54108559       1.32150083      -0.16757069
C        0.84178145       1.31188724      -0.06567715
C        1.34540411      -0.00710801       0.12219642
C        2.48727346      -0.72241710      -0.42515622
N       -0.06214283      -0.86068749      -0.00832918
H       -2.62757785      -0.51523799       1.28682650
H       -3.15014537       0.45131121      -0.09046508
H       -2.76757756      -1.25933997      -0.31203247
H       -1.16001366       2.20572460      -0.13052228
H        1.45994180       2.19442161       0.01335955
H        2.68925340      -0.48773254      -1.46474984
H        2.30607138       0.08096739       0.94065954
H        2.95295047      -1.53049934       0.13273066
H       -0.23406592      -1.85117994       0.03569446
16
Frame=9 idx=007192 GeodesicLength=1.100196624151044 rxn_smarts="[C:1]([c:2]1[c:3]([H:11])[c:4]([H:12])[c:5]([C:6]([H:13])([H:14])[H:15])[n:7]1[H:16])([H:8])([H:9])[H:10]>>[C:1]([C:2](/[C:3](=[C:4](\[C:5](=[C:6]([H:13])[H:15])[H:14])[H:12])[H:11])=[N:7]\[H:16])([H:8])([H:9])[H:10]"
C       -2.47680717      -0.34949598       0.21063271
C       -1.06143782       0.00971350      -0.10066619
C       -0.53883934       1.31653151      -0.16832056
C        0.84242494       1.31846949      -0.05048762
C        1.36304490       0.00817515       0.14491532
C        2.49528277      -0.70411457      -0.40734724
N       -0.06518615      -0.87141082      -0.03357491
H       -2.62267040      -0.50579661       1.28257833
H       -3.14843999       0.45043395      -0.09986239
H       -2.77262816      -1.26296682      -0.30966738
H       -1.16194215       2.19778218      -0.12611555
H        1.44479273       2.21024422       0.04763935
H        2.62433144      -0.54992365      -1.47348113
H        2.37735214       0.11796602       0.92694458
H        2.95109515      -1.52608942       0.13830607
H       -0.25037291      -1.85951816       0.01850662
16
Frame=10 idx=007192 GeodesicLength=1.223067066601185 rxn_smarts="[C:1]([c:2]1[c:3]([H:11])[c:4]([H:12])[c:5]([C:6]([H:13])([H:14])[H:15])[n:7]1[H:16])([H:8])([H:9])[H:10]>>[C:1]([C:2](/[C:3](=[C:4](\[C:5](=[C:6]([H:13])[H:15])[H:14])[H:12])[H:11])=[N:7]\[H:16])([H:8])([H:9])[H:10]"
C       -2.47643262      -0.34980574       0.20438080
C       -1.06053373       0.00206551      -0.11615942
C       -0.53643908       1.31114742      -0.16833466
C        0.84286575       1.32425479      -0.03569974
C        1.38082085       0.02292283       0.16754843
C        2.50140302      -0.68793100      -0.39266131
N       -0.06883049      -0.88264664      -0.05751336
H       -2.61891903      -0.49656340       1.27811029
H       -3.14676122       0.45016183      -0.10931549
H       -2.77797593      -1.26588694      -0.30793273
H       -1.16344314       2.18960986      -0.12151741
H        1.42864114       2.22479996       0.08345991
H        2.56167367      -0.61148375      -1.47357762
H        2.45143009       0.15734974       0.90471150
H        2.95029223      -1.51976587       0.14440891
H       -0.26779154      -1.86822860       0.00009191
16
Frame=11 idx=007192 GeodesicLength=1.3461695938121254 rxn_smarts="[C:1]([c:2]1[c:3]([H:11])[c:4]([H:12])[c:5]([C:6]([H:13])([H:14])[H:15])[n:7]1[H:16])([H:8])([H:9])[H:10]>>[C:1]([C:2](/[C:3](=[C:4](\[C:5](=[C:6]([H:13])[H:15])[H:14])[H:12])[H:11])=[N:7]\[H:16])([H:8])([H:9])[H:10]"
C       -2.47649744      -0.34983128       0.19818610
C       -1.05976959      -0.00572799      -0.13037481
C       -0.53374140       1.30520518      -0.16779881
C        0.84339498       1.32916483      -0.02058625
C        1.39899973       0.03720500       0.19015993
C        2.50583951      -0.67354505      -0.38045956
N       -0.07315403      -0.89448187      -0.07999768
H       -2.61636871      -0.48724673       1.27348573
H       -3.14507645       0.45043109      -0.11899185
H       -2.78376761      -1.26817728      -0.30657261
H       -1.16442561       2.18108697      -0.11765186
H        1.41169443       2.23789946       0.12160476
H        2.50107154      -0.67174192      -1.46615120
H        2.52751486       0.19855377       0.87340869
H        2.95074735      -1.51142331       0.15127565
H       -0.28646156      -1.87737086      -0.01953624
16
Frame=12 idx=007192 GeodesicLength=1.469328822229318 rxn_smarts="[C:1]([c:2]1[c:3]([H:11])[c:4]([H:12])[c:5]([C:6]([H:13])([H:14])[H:15])[n:7]1[H:16])([H:8])([H:9])[H:10]>>[C:1]([C:2](/[C:3](=[C:4](\[C:5](=[C:6]([H:13])[H:15])[H:14])[H:12])[H:11])=[N:7]\[H:16])([H:8])([H:9])[H:10]"
C       -2.47696029      -0.34952955       0.19240580
C       -1.05927117      -0.01361035      -0.14369903
C       -0.53086846       1.29881346      -0.16695031
C        0.84385762       1.33342488      -0.00553951
C        1.41753556       0.05114669       0.21259842
C        2.50900472      -0.66113679      -0.36970488
N       -0.07828509      -0.90689314      -0.10219117
H       -2.61434494      -0.47811049       1.26912629
H       -3.14349324       0.45142146      -0.12791009
H       -2.79030164      -1.26964997      -0.30533542
H       -1.16497352       2.17231656      -0.11446309
H        1.39375482       2.24953915       0.16192608
H        2.44396274      -0.73043061      -1.45179635
H        2.60425950       0.24128023       0.83284875
H        2.95259199      -1.50162239       0.16017362
H       -0.30646860      -1.88695915      -0.04148911
16
Frame=13 idx=007192 GeodesicLength=1.5926724867712918 rxn_smarts="[C:1]([c:2]1[c:3]([H:11])[c:4]([H:12])[c:5]([C:6]([H:13])([H:14])[H:15])[n:7]1[H:16])([H:8])([H:9])[H:10]>>[C:1]([C:2](/[C:3](=[C:4](\[C:5](=[C:6]([H:13])[H:15])[H:14])[H:12])[H:11])=[N:7]\[H:16])([H:8])([H:9])[H:10]"
C       -2.47769232      -0.34888975       0.18663603
C       -1.05869588      -0.02176497      -0.15571510
C       -0.52739503       1.29170647      -0.16570919
C        0.84459083       1.33682639       0.01094190
C        1.43683301       0.06488263       0.23506646
C        2.51092486      -0.64967971      -0.36059297
N       -0.08401992      -0.92004532      -0.12256985
H       -2.61354772      -0.46831508       1.26458087
H       -3.14159051       0.45284740      -0.13760417
H       -2.79710598      -1.27064252      -0.30411361
H       -1.16471461       2.16312931      -0.11359476
H        1.37490524       2.25935546       0.20645146
H        2.38828042      -0.78743609      -1.43147502
H        2.68101817       0.28470557       0.78210142
H        2.95587417      -1.48965662       0.16969272
H       -0.32766472      -1.89702316      -0.06409619
16
Frame=14 idx=007192 GeodesicLength=1.715969972725663 rxn_smarts="[C:1]([c:2]1[c:3]([H:11])[c:4]([H:12])[c:5]([C:6]([H:13])([H:14])[H:15])[n:7]1[H:16])([H:8])([H:9])[H:10]>>[C:1]([C:2](/[C:3](=[C:4](\[C:5](=[C:6]([H:13])[H:15])[H:14])[H:12])[H:11])=[N:7]\[H:16])([H:8])([H:9])[H:10]"
C       -2.47866591      -0.34789280       0.18153089
C       -1.05838360      -0.02993549      -0.16719721
C       -0.52375140       1.28429035      -0.16426747
C        0.84524180       1.33978271       0.02755396
C        1.45662216       0.07856834       0.25733388
C        2.51226206      -0.63973110      -0.35156890
N       -0.09055114      -0.93373641      -0.14367260
H       -2.61259235      -0.45888127       1.26064814
H       -3.13978664       0.45513426      -0.14583524
H       -2.80474011      -1.27071769      -0.30283175
H       -1.16403908       2.15392435      -0.11363504
H        1.35501316       2.26752031       0.25314686
H        2.33666572      -0.84326483      -1.40498006
H        2.75602626       0.32865779       0.72167398
H        2.96080959      -1.47627029       0.18220170
H       -0.35013053      -1.90744823      -0.09010112
16
Frame=15 idx=007192 GeodesicLength=1.839184458094178 rxn_smarts="[C:1]([c:2]1[c:3]([H:11])[c:4]([H:12])[c:5]([C:6]([H:13])([H:14])[H:15])[n:7]1[H:16])([H:8])([H:9])[H:10]>>[C:1]([C:2](/[C:3](=[C:4](\[C:5](=[C:6]([H:13])[H:15])[H:14])[H:12])[H:11])=[N:7]\[H:16])([H:8])([H:9])[H:10]"
C       -2.47968944      -0.34660206       0.17731346
C       -1.05832751      -0.03802639      -0.17845607
C       -0.51986234       1.27654289      -0.16262547
C        0.84590571       1.34223247       0.04407388
C        1.47674192       0.09237849       0.27941453
C        2.51314191      -0.63096357      -0.34168783
N       -0.09793881      -0.94770238      -0.16652082
H       -2.61085032      -0.45022634       1.25747639
H       -3.13796969       0.45822846      -0.15180125
H       -2.81321211      -1.26971162      -0.30133607
H       -1.16279943       2.14458012      -0.11410529
H        1.33440952       2.27376053       0.30095116
H        2.28952211      -0.89810367      -1.37200339
H        2.82779205       0.37251122       0.65156787
H        2.96710396      -1.46107870       0.19852057
H       -0.37396753      -1.91781945      -0.12078167
16
Frame=16 idx=007192 GeodesicLength=1.9622956257608188 rxn_smarts="[C:1]([c:2]1[c:3]([H:11])[c:4]([H:12])[c:5]([C:6]([H:13])([H:14])[H:15])[n:7]1[H:16])([H:8])([H:9])[H:10]>>[C:1]([C:2](/[C:3](=[C:4](\[C:5](=[C:6]([H:13])[H:15])[H:14])[H:12])[H:11])=[N:7]\[H:16])([H:8])([H:9])[H:10]"
C       -2.48062020      -0.34510717       0.17414648
C       -1.05854051      -0.04589400      -0.18968604
C       -0.51580405       1.26864029      -0.16057779
C        0.84658590       1.34430187       0.06034122
C        1.49709049       0.10649099       0.30151501
C        2.51374685      -0.62324299      -0.33015006
N       -0.10615733      -0.96172693      -0.19188668
H       -2.60784562      -0.44283025       1.25528638
H       -3.13615402       0.46214952      -0.15487263
H       -2.82243449      -1.26759919      -0.29968550
H       -1.16109712       2.13527463      -0.11438578
H        1.31346157       2.27828729       0.34842108
H        2.24701422      -0.95245686      -1.33227070
H        2.89508656       0.41544457       0.57199730
H        2.97479340      -1.44387009       0.21939863
H       -0.39912564      -1.92786166      -0.15759091
