11
Frame=0 idx=003120 GeodesicLength=0.0 rxn_smarts="[C:1]([c:2]1[c:3]([H:10])[n:4][c:5]([H:11])[o:6]1)([H:7])([H:8])[H:9]>>[C:1]([c:2]1[c-:3][n:4]([H:10])[c:5]([H:11])[o+:6]1)([H:7])([H:8])[H:9]"
C       -1.69599209      -0.58231696      -0.04885907
C       -0.34280061       0.01890540       0.00198320
C        0.12443457       1.25031024       0.30447305
N        1.57012082       1.09956789       0.11718197
C        1.81257471      -0.12644050      -0.21379669
O        0.70790511      -0.81746637      -0.36660267
H       -1.77036912      -1.45521708       0.60280478
H       -2.41738224       0.16279636       0.28006237
H       -1.95774298      -0.89330765      -1.06243732
H        1.20885413       1.94307847       0.79989072
H        2.76039771      -0.59990977      -0.41470031
11
Frame=1 idx=003120 GeodesicLength=0.04020092803807615 rxn_smarts="[C:1]([c:2]1[c:3]([H:10])[n:4][c:5]([H:11])[o:6]1)([H:7])([H:8])[H:9]>>[C:1]([c:2]1[c-:3][n:4]([H:10])[c:5]([H:11])[o+:6]1)([H:7])([H:8])[H:9]"
C       -1.69524874      -0.58175971      -0.04732681
C       -0.34181302       0.01930438      -0.00439286
C        0.12671543       1.25260152       0.28825649
N        1.56904501       1.09994601       0.11277321
C        1.81253287      -0.12648074      -0.21624559
O        0.70786114      -0.81700759      -0.37585111
H       -1.76664957      -1.45321453       0.60661898
H       -2.41502601       0.16403791       0.28367766
H       -1.96183261      -0.89519470      -1.05890129
H        1.20281086       1.93974862       0.81735694
H        2.76160465      -0.60198116      -0.40596560
11
Frame=2 idx=003120 GeodesicLength=0.08036911656566048 rxn_smarts="[C:1]([c:2]1[c:3]([H:10])[n:4][c:5]([H:11])[o:6]1)([H:7])([H:8])[H:9]>>[C:1]([c:2]1[c-:3][n:4]([H:10])[c:5]([H:11])[o+:6]1)([H:7])([H:8])[H:9]"
C       -1.69451277      -0.58114018      -0.04597232
C       -0.34072246       0.01933367      -0.00962881
C        0.12916016       1.25426254       0.27386984
N        1.56787069       1.10045438       0.10772237
C        1.81252184      -0.12657493      -0.21852906
O        0.70797865      -0.81714395      -0.38327260
H       -1.76374893      -1.45129539       0.60995215
H       -2.41272619       0.16547652       0.28668508
H       -1.96514873      -0.89666994      -1.05582868
H        1.19666136       1.93688319       0.83366457
H        2.76266637      -0.60358591      -0.39866253
11
Frame=3 idx=003120 GeodesicLength=0.12054405207925521 rxn_smarts="[C:1]([c:2]1[c:3]([H:10])[n:4][c:5]([H:11])[o:6]1)([H:7])([H:8])[H:9]>>[C:1]([c:2]1[c-:3][n:4]([H:10])[c:5]([H:11])[o+:6]1)([H:7])([H:8])[H:9]"
C       -1.69380577      -0.58046991      -0.04479040
C       -0.33953915       0.01900618      -0.01376905
C        0.13173448       1.25536798       0.26107131
N        1.56663229       1.10105172       0.10215128
C        1.81255877      -0.12679272      -0.22042195
O        0.70824120      -0.81786159      -0.38893198
H       -1.76166977      -1.44943781       0.61286420
H       -2.41051683       0.16710042       0.28906457
H       -1.96773677      -0.89780434      -1.05320059
H        1.19046622       1.93451578       0.84895544
H        2.76363533      -0.60467571      -0.39299284
11
Frame=4 idx=003120 GeodesicLength=0.1607079113432058 rxn_smarts="[C:1]([c:2]1[c:3]([H:10])[n:4][c:5]([H:11])[o:6]1)([H:7])([H:8])[H:9]>>[C:1]([c:2]1[c-:3][n:4]([H:10])[c:5]([H:11])[o+:6]1)([H:7])([H:8])[H:9]"
C       -1.69309644      -0.57977003      -0.04368035
C       -0.33830600       0.01852919      -0.01744821
C        0.13440041       1.25613706       0.24924768
N        1.56538387       1.10169755       0.09621637
C        1.81262399      -0.12710924      -0.22204251
O        0.70855589      -0.81877686      -0.39401957
H       -1.75988135      -1.44770030       0.61547029
H       -2.40830675       0.16876381       0.29133622
H       -1.97006631      -0.89862928      -1.05078837
H        1.18413406       1.93248195       0.86351008
H        2.76455861      -0.60562386      -0.38780166
11
Frame=5 idx=003120 GeodesicLength=0.2008840461813019 rxn_smarts="[C:1]([c:2]1[c:3]([H:10])[n:4][c:5]([H:11])[o:6]1)([H:7])([H:8])[H:9]>>[C:1]([c:2]1[c-:3][n:4]([H:10])[c:5]([H:11])[o+:6]1)([H:7])([H:8])[H:9]"
C       -1.69235605      -0.57906333      -0.04255152
C       -0.33705917       0.01805878      -0.02115689
C        0.13713646       1.25671476       0.23799674
N        1.56415575       1.10241984       0.08989828
C        1.81268260      -0.12741498      -0.22377333
O        0.70883517      -0.81956771      -0.39953916
H       -1.75794002      -1.44617712       0.61781205
H       -2.40600457       0.17032195       0.29399244
H       -1.97253004      -0.89910846      -1.04840784
H        1.17761919       1.93062205       0.87753666
H        2.76546067      -0.60680577      -0.38180743
11
Frame=6 idx=003120 GeodesicLength=0.24108503537345677 rxn_smarts="[C:1]([c:2]1[c:3]([H:10])[n:4][c:5]([H:11])[o:6]1)([H:7])([H:8])[H:9]>>[C:1]([c:2]1[c-:3][n:4]([H:10])[c:5]([H:11])[o+:6]1)([H:7])([H:8])[H:9]"
C       -1.69155815      -0.57834917      -0.04138158
C       -0.33579618       0.01766028      -0.02507306
C        0.13994854       1.25717748       0.22712905
N        1.56294043       1.10317759       0.08326460
C        1.81272711      -0.12772371      -0.22559826
O        0.70908760      -0.82012849      -0.40574588
H       -1.75569162      -1.44486269       0.61993059
H       -2.40356936       0.17174566       0.29714699
H       -1.97522070      -0.89926205      -1.04599408
H        1.17085113       1.92887933       0.89112505
H        2.76628121      -0.60831421      -0.37480342
11
Frame=7 idx=003120 GeodesicLength=0.28120496670754574 rxn_smarts="[C:1]([c:2]1[c:3]([H:10])[n:4][c:5]([H:11])[o:6]1)([H:7])([H:8])[H:9]>>[C:1]([c:2]1[c-:3][n:4]([H:10])[c:5]([H:11])[o+:6]1)([H:7])([H:8])[H:9]"
C       -1.69078512      -0.57759948      -0.04032468
C       -0.33446407       0.01700493      -0.02817053
C        0.14280765       1.25730363       0.21723957
N        1.56169183       1.10397282       0.07621417
C        1.81281087      -0.12814225      -0.22705490
O        0.70942820      -0.82111257      -0.41070048
H       -1.75403580      -1.44361829       0.62173381
H       -2.40120402       0.17328945       0.29989187
H       -1.97740455      -0.89914535      -1.04390281
H        1.16406940       1.92747155       0.90408931
H        2.76708562      -0.60942444      -0.36901533
11
Frame=8 idx=003120 GeodesicLength=0.32136312305776055 rxn_smarts="[C:1]([c:2]1[c:3]([H:10])[n:4][c:5]([H:11])[o:6]1)([H:7])([H:8])[H:9]>>[C:1]([c:2]1[c-:3][n:4]([H:10])[c:5]([H:11])[o+:6]1)([H:7])([H:8])[H:9]"
C       -1.69004276      -0.57683626      -0.03934907
C       -0.33308186       0.01615284      -0.03065973
C        0.14571613       1.25717133       0.20811990
N        1.56043935       1.10480789       0.06877426
C        1.81292465      -0.12866553      -0.22820239
O        0.70983049      -0.82237148      -0.41481974
H       -1.75281261      -1.44248890       0.62324810
H       -2.39889244       0.17487375       0.30241987
H       -1.97926255      -0.89876653      -1.04206597
H        1.15729355       1.92641060       0.91654621
H        2.76788805      -0.61028771      -0.36401144
11
Frame=9 idx=003120 GeodesicLength=0.36151009070110673 rxn_smarts="[C:1]([c:2]1[c:3]([H:10])[n:4][c:5]([H:11])[o:6]1)([H:7])([H:8])[H:9]>>[C:1]([c:2]1[c-:3][n:4]([H:10])[c:5]([H:11])[o+:6]1)([H:7])([H:8])[H:9]"
C       -1.68929563      -0.57606352      -0.03839451
C       -0.33166530       0.01521778      -0.03288811
C        0.14866398       1.25686452       0.19952486
N        1.55918116       1.10569129       0.06092819
C        1.81304423      -0.12920142      -0.22933797
O        0.71024905      -0.82370448      -0.41875808
H       -1.75170475      -1.44151950       0.62451075
H       -2.39655572       0.17642257       0.30506084
H       -1.98104229      -0.89809837      -1.04035580
H        1.15045004       1.92553924       0.92861509
H        2.76867522      -0.61114810      -0.35890526
11
Frame=10 idx=003120 GeodesicLength=0.4016642298084524 rxn_smarts="[C:1]([c:2]1[c:3]([H:10])[n:4][c:5]([H:11])[o:6]1)([H:7])([H:8])[H:9]>>[C:1]([c:2]1[c-:3][n:4]([H:10])[c:5]([H:11])[o+:6]1)([H:7])([H:8])[H:9]"
C       -1.68852298      -0.57528757      -0.03742366
C       -0.33022819       0.01427691      -0.03509331
C        0.15164613       1.25645030       0.19130316
N        1.55792252       1.10663385       0.05265585
C        1.81315365      -0.12969253      -0.23068138
O        0.71065166      -0.82497023      -0.42292530
H       -1.75051115      -1.44072724       0.62555929
H       -2.39414236       0.17788345       0.30800102
H       -1.98289955      -0.89715324      -1.03867985
H        1.14350716       1.92475246       0.94040841
H        2.76942310      -0.61216617      -0.35312422
11
Frame=11 idx=003120 GeodesicLength=0.4418219828197158 rxn_smarts="[C:1]([c:2]1[c:3]([H:10])[n:4][c:5]([H:11])[o:6]1)([H:7])([H:8])[H:9]>>[C:1]([c:2]1[c-:3][n:4]([H:10])[c:5]([H:11])[o+:6]1)([H:7])([H:8])[H:9]"
C       -1.68771214      -0.57450459      -0.03642385
C       -0.32877721       0.01337350      -0.03741873
C        0.15466607       1.25596444       0.18335482
N        1.55667235       1.10762779       0.04399836
C        1.81324821      -0.13011607      -0.23232320
O        0.71103200      -0.82612443      -0.42746373
H       -1.74914434      -1.44006562       0.62646777
H       -2.39162971       0.17926523       0.31125890
H       -1.98488972      -0.89600068      -1.03698033
H        1.13642498       1.92395613       0.95204082
H        2.77010951      -0.61337571      -0.34651082
11
Frame=12 idx=003120 GeodesicLength=0.4819846833348804 rxn_smarts="[C:1]([c:2]1[c:3]([H:10])[n:4][c:5]([H:11])[o:6]1)([H:7])([H:8])[H:9]>>[C:1]([c:2]1[c-:3][n:4]([H:10])[c:5]([H:11])[o+:6]1)([H:7])([H:8])[H:9]"
C       -1.68684578      -0.57371584      -0.03537319
C       -0.32731758       0.01255729      -0.04003754
C        0.15772933       1.25545263       0.17554292
N        1.55544880       1.10866173       0.03498847
C        1.81333030      -0.13047782      -0.23426625
O        0.71137614      -0.82708702      -0.43263885
H       -1.74746652      -1.43954068       0.62726457
H       -2.38897560       0.18054296       0.31495602
H       -1.98712151      -0.89464493      -1.03519580
H        1.12914625       1.92309721       0.96356531
H        2.77069618      -0.61484554      -0.33880566
11
Frame=13 idx=003120 GeodesicLength=0.5221630466908186 rxn_smarts="[C:1]([c:2]1[c:3]([H:10])[n:4][c:5]([H:11])[o:6]1)([H:7])([H:8])[H:9]>>[C:1]([c:2]1[c-:3][n:4]([H:10])[c:5]([H:11])[o+:6]1)([H:7])([H:8])[H:9]"
C       -1.68590133      -0.57293036      -0.03424061
C       -0.32585421       0.01187191      -0.04309482
C        0.16083530       1.25495388       0.16777053
N        1.55425264       1.10976676       0.02554440
C        1.81338469      -0.13072433      -0.23673200
O        0.71166071      -0.82776015      -0.43875517
H       -1.74531845      -1.43922613       0.62790630
H       -2.38611729       0.18164834       0.31931677
H       -1.98972181      -0.89300670      -1.03327423
H        1.12166000       1.92211361       0.97499658
H        2.77111975      -0.61670681      -0.32943775
11
Frame=14 idx=003120 GeodesicLength=0.5624052454559447 rxn_smarts="[C:1]([c:2]1[c:3]([H:10])[n:4][c:5]([H:11])[o:6]1)([H:7])([H:8])[H:9]>>[C:1]([c:2]1[c-:3][n:4]([H:10])[c:5]([H:11])[o+:6]1)([H:7])([H:8])[H:9]"
C       -1.68488208      -0.57215083      -0.03299657
C       -0.32439674       0.01137823      -0.04679919
C        0.16399818       1.25451312       0.15992550
N        1.55310413       1.11095996       0.01564562
C        1.81345360      -0.13082335      -0.23989889
O        0.71190246      -0.82804983      -0.44612990
H       -1.74255376      -1.43912377       0.62845758
H       -2.38305148       0.18255186       0.32448201
H       -1.99283907      -0.89110632      -1.03115609
H        1.11392432       1.92090075       0.98642905
H        2.77134043      -0.61904982      -0.31795912
11
Frame=15 idx=003120 GeodesicLength=0.6025597575320236 rxn_smarts="[C:1]([c:2]1[c:3]([H:10])[n:4][c:5]([H:11])[o:6]1)([H:7])([H:8])[H:9]>>[C:1]([c:2]1[c-:3][n:4]([H:10])[c:5]([H:11])[o+:6]1)([H:7])([H:8])[H:9]"
C       -1.68370014      -0.57135866      -0.03169396
C       -0.32292541       0.01104277      -0.05103030
C        0.16722213       1.25411290       0.15204878
N        1.55200284       1.11215300       0.00546342
C        1.81342215      -0.13086519      -0.24338028
O        0.71204135      -0.82808422      -0.45428973
H       -1.73926002      -1.43911424       0.62890937
H       -2.37964440       0.18334575       0.33014440
H       -1.99620033      -0.88905648      -1.02882698
H        1.10591389       1.91947480       0.99783809
H        2.77112793      -0.62165042      -0.30518281
11
Frame=16 idx=003120 GeodesicLength=0.6427618237510268 rxn_smarts="[C:1]([c:2]1[c:3]([H:10])[n:4][c:5]([H:11])[o:6]1)([H:7])([H:8])[H:9]>>[C:1]([c:2]1[c-:3][n:4]([H:10])[c:5]([H:11])[o+:6]1)([H:7])([H:8])[H:9]"
C       -1.68248242      -0.57055097      -0.03036907
C       -0.32143142       0.01075469      -0.05544229
C        0.17052461       1.25367426       0.14432106
N        1.55095405       1.11336221      -0.00506126
C        1.81344948      -0.13091125      -0.24700858
O        0.71221324      -0.82805319      -0.46270477
H       -1.73581026      -1.43916121       0.62930607
H       -2.37614362       0.18409742       0.33603501
H       -1.99968442      -0.88687484      -1.02645891
H        1.09769483       1.91795923       1.00921985
H        2.77071592      -0.62429635      -0.29183711
