10
Frame=0 idx=001796 GeodesicLength=0.0 rxn_smarts="[O:1]([c:2]1[c:3]([H:8])[c:4]([H:9])[n:5][n:6]1[H:10])[H:7]>>[O:1]([C:2]1=[C:3]([H:8])[C@@:4]1(/[N:5]=[N:6]/[H:10])[H:9])[H:7]"
O       -1.79535893       0.40080455       1.10843509
C       -0.73984346       0.42570749       0.34997047
C        0.27547319       1.09888845      -0.07881728
C        1.14520920      -0.08211079      -0.07110998
N        0.89445898      -1.20226970      -0.78724643
N       -0.27139713      -1.64847570      -0.73892401
H       -1.82932392       1.17686763       1.68562505
H        0.56597096       2.12503971      -0.27664453
H        2.14576086      -0.00436175       0.34185168
H       -0.39094975      -2.29008990      -1.53314007
10
Frame=1 idx=001796 GeodesicLength=0.06673749654693907 rxn_smarts="[O:1]([c:2]1[c:3]([H:8])[c:4]([H:9])[n:5][n:6]1[H:10])[H:7]>>[O:1]([C:2]1=[C:3]([H:8])[C@@:4]1(/[N:5]=[N:6]/[H:10])[H:9])[H:7]"
O       -1.78116219       0.38046209       1.11391860
C       -0.72573910       0.40465669       0.35091888
C        0.27747311       1.09634309      -0.08413968
C        1.15005340      -0.08146567      -0.06582915
N        0.89844284      -1.20180766      -0.78619694
N       -0.28098289      -1.61942046      -0.74199500
H       -1.83761274       1.17905780       1.65684844
H        0.55763012       2.12706196      -0.26987698
H        2.15291524      -0.00243297       0.34196317
H       -0.41101777      -2.28245488      -1.51561133
10
Frame=2 idx=001796 GeodesicLength=0.13349326318042934 rxn_smarts="[O:1]([c:2]1[c:3]([H:8])[c:4]([H:9])[n:5][n:6]1[H:10])[H:7]>>[O:1]([C:2]1=[C:3]([H:8])[C@@:4]1(/[N:5]=[N:6]/[H:10])[H:9])[H:7]"
O       -1.76657322       0.36067049       1.11981090
C       -0.71144030       0.38464860       0.35204827
C        0.27984800       1.09413295      -0.08882900
C        1.15477450      -0.08079561      -0.06076656
N        0.90194365      -1.20076714      -0.78607800
N       -0.28993755      -1.59052922      -0.74542224
H       -1.84688251       1.17984589       1.62711160
H        0.54966245       2.12908726      -0.26296399
H        2.15997644      -0.00106158       0.34181892
H       -0.43137148      -2.27523164      -1.49672990
10
Frame=3 idx=001796 GeodesicLength=0.20025177719373777 rxn_smarts="[O:1]([c:2]1[c:3]([H:8])[c:4]([H:9])[n:5][n:6]1[H:10])[H:7]>>[O:1]([C:2]1=[C:3]([H:8])[C@@:4]1(/[N:5]=[N:6]/[H:10])[H:9])[H:7]"
O       -1.75177343       0.34156654       1.12578853
C       -0.69705176       0.36577661       0.35312110
C        0.28265411       1.09239198      -0.09285422
C        1.15933589      -0.08006178      -0.05596712
N        0.90491278      -1.19900703      -0.78708443
N       -0.29848354      -1.56146569      -0.74964128
H       -1.85688828       1.17889582       1.59677880
H        0.54224459       2.13125770      -0.25576729
H        2.16686762      -0.00034152       0.34152987
H       -0.45181799      -2.26901262      -1.47590395
10
Frame=4 idx=001796 GeodesicLength=0.26700818976216156 rxn_smarts="[O:1]([c:2]1[c:3]([H:8])[c:4]([H:9])[n:5][n:6]1[H:10])[H:7]>>[O:1]([C:2]1=[C:3]([H:8])[C@@:4]1(/[N:5]=[N:6]/[H:10])[H:9])[H:7]"
O       -1.73681314       0.32313479       1.13170172
C       -0.68261099       0.34800969       0.35401440
C        0.28591502       1.09116397      -0.09619193
C        1.16373964      -0.07926301      -0.05148295
N        0.90736226      -1.19644385      -0.78936375
N       -0.30670825      -1.53202349      -0.75494013
H       -1.86756003       1.17609776       1.56589783
H        0.53544949       2.13364301      -0.24812287
H        2.17356249      -0.00034091       0.34112733
H       -0.47233650      -2.26397796      -1.45263965
10
Frame=5 idx=001796 GeodesicLength=0.3337762414129593 rxn_smarts="[O:1]([c:2]1[c:3]([H:8])[c:4]([H:9])[n:5][n:6]1[H:10])[H:7]>>[O:1]([C:2]1=[C:3]([H:8])[C@@:4]1(/[N:5]=[N:6]/[H:10])[H:9])[H:7]"
O       -1.72160893       0.30524073       1.13763090
C       -0.66807637       0.33119713       0.35475447
C        0.28963385       1.09039005      -0.09886071
C        1.16805270      -0.07843159      -0.04735021
N        0.90937401      -1.19312016      -0.79290546
N       -0.31458179      -1.50223822      -0.76127970
H       -1.87906797       1.17143953       1.53416589
H        0.52926713       2.13620967      -0.23998022
H        2.18013533      -0.00104152       0.34054499
H       -0.49312796      -2.25964563      -1.42671995
10
Frame=6 idx=001796 GeodesicLength=0.40053320221515526 rxn_smarts="[O:1]([c:2]1[c:3]([H:8])[c:4]([H:9])[n:5][n:6]1[H:10])[H:7]>>[O:1]([C:2]1=[C:3]([H:8])[C@@:4]1(/[N:5]=[N:6]/[H:10])[H:9])[H:7]"
O       -1.70636412       0.28789930       1.14318983
C       -0.65351096       0.31534070       0.35513939
C        0.29384622       1.09013284      -0.10085654
C        1.17227093      -0.07756655      -0.04362841
N        0.91096076      -1.18894000      -0.79789192
N       -0.32218368      -1.47188651      -0.76903797
H       -1.89122067       1.16466784       1.50182289
H        0.52381038       2.13903705      -0.23116730
H        2.18655375      -0.00252790       0.33983558
H       -0.51416261      -2.25615678      -1.39740555
10
Frame=7 idx=001796 GeodesicLength=0.4671602477228218 rxn_smarts="[O:1]([c:2]1[c:3]([H:8])[c:4]([H:9])[n:5][n:6]1[H:10])[H:7]>>[O:1]([C:2]1=[C:3]([H:8])[C@@:4]1(/[N:5]=[N:6]/[H:10])[H:9])[H:7]"
O       -1.69133810       0.27080996       1.14765644
C       -0.63899423       0.30079113       0.35456614
C        0.29907801       1.09105023      -0.10143371
C        1.17631217      -0.07654985      -0.04094100
N        0.91169870      -1.18270545      -0.80652314
N       -0.33018659      -1.43917511      -0.78119310
H       -1.90454982       1.15532420       1.46857155
H        0.52015766       2.14288619      -0.21952104
H        2.19269031      -0.00561103       0.33871608
H       -0.53486809      -2.25682025      -1.35989822
10
Frame=8 idx=001796 GeodesicLength=0.5343367177439136 rxn_smarts="[O:1]([c:2]1[c:3]([H:8])[c:4]([H:9])[n:5][n:6]1[H:10])[H:7]>>[O:1]([C:2]1=[C:3]([H:8])[C@@:4]1(/[N:5]=[N:6]/[H:10])[H:9])[H:7]"
O       -1.67625445       0.25417793       1.15159083
C       -0.62431773       0.28635798       0.35396590
C        0.30411439       1.09149843      -0.10238133
C        1.18039606      -0.07576978      -0.03813358
N        0.91271421      -1.17690694      -0.81419773
N       -0.33696126      -1.40775417      -0.79167231
H       -1.91743388       1.14380220       1.43496073
H        0.51587553       2.14589898      -0.20941087
H        2.19874795      -0.00869481       0.33773846
H       -0.55688082      -2.25260981      -1.32246010
10
Frame=9 idx=001796 GeodesicLength=0.6009576445602962 rxn_smarts="[O:1]([c:2]1[c:3]([H:8])[c:4]([H:9])[n:5][n:6]1[H:10])[H:7]>>[O:1]([C:2]1=[C:3]([H:8])[C@@:4]1(/[N:5]=[N:6]/[H:10])[H:9])[H:7]"
O       -1.66133408       0.23805864       1.15564152
C       -0.60957173       0.27224550       0.35351701
C        0.30927760       1.09191640      -0.10343416
C        1.18477237      -0.07511340      -0.03540875
N        0.91397093      -1.17163220      -0.82169655
N       -0.34294029      -1.37784619      -0.80112192
H       -1.93094585       1.13045473       1.40084130
H        0.51158156       2.14875884      -0.20020610
H        2.20521154      -0.01174049       0.33671950
H       -0.58002205      -2.24510182      -1.28485186
10
Frame=10 idx=001796 GeodesicLength=0.6687292259995554 rxn_smarts="[O:1]([c:2]1[c:3]([H:8])[c:4]([H:9])[n:5][n:6]1[H:10])[H:7]>>[O:1]([C:2]1=[C:3]([H:8])[C@@:4]1(/[N:5]=[N:6]/[H:10])[H:9])[H:7]"
O       -1.64867500       0.22205764       1.15489663
C       -0.59570214       0.25902126       0.35041428
C        0.31472449       1.09286272      -0.10462357
C        1.18823312      -0.07445899      -0.03312195
N        0.91481614      -1.16481185      -0.83123098
N       -0.34863840      -1.34630665      -0.81438046
H       -1.94096013       1.11445788       1.37060834
H        0.50827253       2.15181783      -0.19000545
H        2.20991871      -0.01609761       0.33696931
H       -0.60198931      -2.23854223      -1.23952617
10
Frame=11 idx=001796 GeodesicLength=0.7359463685031837 rxn_smarts="[O:1]([c:2]1[c:3]([H:8])[c:4]([H:9])[n:5][n:6]1[H:10])[H:7]>>[O:1]([C:2]1=[C:3]([H:8])[C@@:4]1(/[N:5]=[N:6]/[H:10])[H:9])[H:7]"
O       -1.63654862       0.20676760       1.15437168
C       -0.58205810       0.24581301       0.34762906
C        0.31966148       1.09327131      -0.10681299
C        1.19187320      -0.07398696      -0.03047346
N        0.91622994      -1.15952721      -0.83887416
N       -0.35324756      -1.31784962      -0.82430500
H       -1.95023888       1.09798072       1.34148332
H        0.50401237       2.15424248      -0.18208164
H        2.21492408      -0.01971301       0.33753417
H       -0.62460791      -2.22699832      -1.19847099
10
Frame=12 idx=001796 GeodesicLength=0.8039415274821132 rxn_smarts="[O:1]([c:2]1[c:3]([H:8])[c:4]([H:9])[n:5][n:6]1[H:10])[H:7]>>[O:1]([C:2]1=[C:3]([H:8])[C@@:4]1(/[N:5]=[N:6]/[H:10])[H:9])[H:7]"
O       -1.62328086       0.19214166       1.15562293
C       -0.56783899       0.23253050       0.34617938
C        0.32429185       1.09305187      -0.10942704
C        1.19563298      -0.07366310      -0.02769533
N        0.91749099      -1.15517686      -0.84481547
N       -0.35725122      -1.29171532      -0.83025534
H       -1.96038373       1.08053930       1.31031170
H        0.49897584       2.15576984      -0.17574170
H        2.22018420      -0.02281786       0.33747692
H       -0.64782107      -2.21066004      -1.16165604
10
Frame=13 idx=001796 GeodesicLength=0.8716493655102722 rxn_smarts="[O:1]([c:2]1[c:3]([H:8])[c:4]([H:9])[n:5][n:6]1[H:10])[H:7]>>[O:1]([C:2]1=[C:3]([H:8])[C@@:4]1(/[N:5]=[N:6]/[H:10])[H:9])[H:7]"
O       -1.61153828       0.17833756       1.15537527
C       -0.55448486       0.21969125       0.34392146
C        0.32839198       1.09263914      -0.11309219
C        1.19895018      -0.07338993      -0.02438167
N        0.91903306      -1.15172485      -0.84939751
N       -0.36056648      -1.26753483      -0.83474474
H       -1.96760432       1.06316086       1.28324391
H        0.49327028       2.15696027      -0.17159804
H        2.22471275      -0.02555779       0.33877298
H       -0.67016430      -2.19258168      -1.12809947
10
Frame=14 idx=001796 GeodesicLength=0.9394354629929047 rxn_smarts="[O:1]([c:2]1[c:3]([H:8])[c:4]([H:9])[n:5][n:6]1[H:10])[H:7]>>[O:1]([C:2]1=[C:3]([H:8])[C@@:4]1(/[N:5]=[N:6]/[H:10])[H:9])[H:7]"
O       -1.59984745       0.16526529       1.15562054
C       -0.54116700       0.20713140       0.34215274
C        0.33228261       1.09201394      -0.11705763
C        1.20218724      -0.07317405      -0.02092150
N        0.92046413      -1.14886424      -0.85305319
N       -0.36358870      -1.24485809      -0.83724401
H       -1.97447835       1.04546735       1.25653109
H        0.48713278       2.15778397      -0.16868568
H        2.22917707      -0.02809155       0.34012049
H       -0.69216232      -2.17267402      -1.09746285
10
Frame=15 idx=001796 GeodesicLength=1.0072892138069736 rxn_smarts="[O:1]([c:2]1[c:3]([H:8])[c:4]([H:9])[n:5][n:6]1[H:10])[H:7]>>[O:1]([C:2]1=[C:3]([H:8])[C@@:4]1(/[N:5]=[N:6]/[H:10])[H:9])[H:7]"
O       -1.58848227       0.15282989       1.15582320
C       -0.52803890       0.19493050       0.34051744
C        0.33598659       1.09127395      -0.12130000
C        1.20524844      -0.07298847      -0.01733991
N        0.92178328      -1.14637719      -0.85610784
N       -0.36635025      -1.22334519      -0.83845326
H       -1.98060265       1.02756018       1.23078999
H        0.48068200       2.15834510      -0.16677775
H        2.23339554      -0.03056232       0.34174667
H       -0.71362178      -2.15166645      -1.06889854
10
Frame=16 idx=001796 GeodesicLength=1.0751849699020886 rxn_smarts="[O:1]([c:2]1[c:3]([H:8])[c:4]([H:9])[n:5][n:6]1[H:10])[H:7]>>[O:1]([C:2]1=[C:3]([H:8])[C@@:4]1(/[N:5]=[N:6]/[H:10])[H:9])[H:7]"
O       -1.57742581       0.14103208       1.15610707
C       -0.51508711       0.18306532       0.33911691
C        0.33951258       1.09041150      -0.12574939
C        1.20815392      -0.07283113      -0.01358907
N        0.92299612      -1.14429677      -0.85847253
N       -0.36890305      -1.20289092      -0.83841881
H       -1.98599700       1.00956583       1.20604747
H        0.47386143       2.15864618      -0.16600902
H        2.23741104      -0.03294212       0.34364496
H       -0.73452211      -2.12975997      -1.04267760
