15
Frame=0 idx=009292 GeodesicLength=0.0 rxn_smarts="[C:1]([C:2]([C:3]([H:12])([H:13])[H:14])([C:4](=[O:5])[C:6]#[C:7][H:15])[H:11])([H:8])([H:9])[H:10]>>[C:1]([O:5]/[C:4](=[C:2](/[C:3]([H:12])([H:13])[H:14])[H:11])[C:6]#[C:7][H:15])([H:8])([H:9])[H:10]"
C       -1.83509273       1.28042738      -0.63263180
C       -0.01914256      -0.25061393      -0.57997908
C        0.22809592      -1.72667768      -0.54708564
C        0.38054586       0.66418359       0.38286351
O       -0.17771789       1.79867885       0.44903206
C        1.44954645       0.37521484       1.30602170
C        2.33045821       0.11103642       2.07488942
H       -2.30981207       1.02149759       0.30142623
H       -2.10990397       0.65231110      -1.46934744
H       -1.80750198       2.33418945      -0.86896342
H       -0.08811988       0.21509579      -1.55828297
H        0.40031661      -2.07548732       0.47172973
H       -0.64023780      -2.26650344      -0.93513800
H        1.08695516      -2.02257804      -1.15783590
H        3.11161071      -0.11077464       2.76330163
15
Frame=1 idx=009292 GeodesicLength=0.05002335661522751 rxn_smarts="[C:1]([C:2]([C:3]([H:12])([H:13])[H:14])([C:4](=[O:5])[C:6]#[C:7][H:15])[H:11])([H:8])([H:9])[H:10]>>[C:1]([O:5]/[C:4](=[C:2](/[C:3]([H:12])([H:13])[H:14])[H:11])[C:6]#[C:7][H:15])([H:8])([H:9])[H:10]"
C       -1.82476919       1.26482534      -0.62400379
C       -0.02236081      -0.23940566      -0.58578996
C        0.22252389      -1.71645457      -0.54907524
C        0.38647469       0.66952579       0.38138810
O       -0.19136644       1.79309693       0.47406421
C        1.46520478       0.37809276       1.29217842
C        2.33273810       0.10158930       2.07201865
H       -2.32189373       1.04094410       0.30804460
H       -2.12876721       0.62362585      -1.44155562
H       -1.78358084       2.30868431      -0.90175647
H       -0.07354129       0.22229967      -1.56711822
H        0.37793534      -2.06687313       0.47188601
H       -0.63907388      -2.25566126      -0.95238749
H        1.09123843      -2.01131419      -1.14600361
H        3.10923815      -0.11297524       2.76811043
15
Frame=2 idx=009292 GeodesicLength=0.10013503259197806 rxn_smarts="[C:1]([C:2]([C:3]([H:12])([H:13])[H:14])([C:4](=[O:5])[C:6]#[C:7][H:15])[H:11])([H:8])([H:9])[H:10]>>[C:1]([O:5]/[C:4](=[C:2](/[C:3]([H:12])([H:13])[H:14])[H:11])[C:6]#[C:7][H:15])([H:8])([H:9])[H:10]"
C       -1.81469059       1.24981640      -0.61686280
C       -0.02586450      -0.22845392      -0.59022939
C        0.21673358      -1.70646828      -0.54998821
C        0.38977136       0.67410319       0.38269029
O       -0.20760629       1.78574823       0.50140558
C        1.47568373       0.37962895       1.28372597
C        2.33884179       0.09606372       2.06577230
H       -2.33628131       1.06027839       0.31002453
H       -2.14453574       0.59796797      -1.41690437
H       -1.75864111       2.28268417      -0.93310798
H       -0.05770773       0.22955396      -1.57412279
H        0.35335434      -2.05886101       0.47295801
H       -0.63693796      -2.24499533      -0.97036554
H        1.09625179      -1.99990584      -1.13132950
H        3.11162866      -0.11716060       2.76633390
15
Frame=3 idx=009292 GeodesicLength=0.15017466316653258 rxn_smarts="[C:1]([C:2]([C:3]([H:12])([H:13])[H:14])([C:4](=[O:5])[C:6]#[C:7][H:15])[H:11])([H:8])([H:9])[H:10]>>[C:1]([O:5]/[C:4](=[C:2](/[C:3]([H:12])([H:13])[H:14])[H:11])[C:6]#[C:7][H:15])([H:8])([H:9])[H:10]"
C       -1.80484402       1.23513614      -0.60938148
C       -0.02921947      -0.21770544      -0.59497236
C        0.21127574      -1.69663788      -0.55081820
C        0.39332953       0.67887284       0.38321260
O       -0.22347942       1.77763262       0.52788217
C        1.48619060       0.38157294       1.27473231
C        2.34196584       0.08920921       2.06139586
H       -2.35031917       1.07990477       0.31076118
H       -2.15934595       0.57423830      -1.39241440
H       -1.73387263       2.25594866      -0.96209123
H       -0.04281264       0.23609908      -1.58126350
H        0.32990733      -2.05051167       0.47384589
H       -0.63439361      -2.23480330      -0.98720775
H        1.10092582      -1.98876992      -1.11693934
H        3.11469206      -0.12018635       2.76325827
15
Frame=4 idx=009292 GeodesicLength=0.20021508301648397 rxn_smarts="[C:1]([C:2]([C:3]([H:12])([H:13])[H:14])([C:4](=[O:5])[C:6]#[C:7][H:15])[H:11])([H:8])([H:9])[H:10]>>[C:1]([O:5]/[C:4](=[C:2](/[C:3]([H:12])([H:13])[H:14])[H:11])[C:6]#[C:7][H:15])([H:8])([H:9])[H:10]"
C       -1.79525856       1.22084408      -0.60189852
C       -0.03263017      -0.20725040      -0.59962981
C        0.20588600      -1.68708003      -0.55145432
C        0.39640237       0.68345269       0.38387894
O       -0.23968803       1.76837998       0.55440302
C        1.49572367       0.38337272       1.26636252
C        2.34591886       0.08302248       2.05600441
H       -2.36459744       1.09975635       0.30955810
H       -2.17291782       0.55254807      -1.36886620
H       -1.70905948       2.22877714      -0.98884076
H       -0.02835292       0.24213392      -1.58806782
H        0.30666798      -2.04222300       0.47467000
H       -0.63146059      -2.22506042      -1.00353989
H        1.10538460      -1.97787235      -1.10222965
H        3.11798156      -0.12280121       2.75964998
15
Frame=5 idx=009292 GeodesicLength=0.2502485208976986 rxn_smarts="[C:1]([C:2]([C:3]([H:12])([H:13])[H:14])([C:4](=[O:5])[C:6]#[C:7][H:15])[H:11])([H:8])([H:9])[H:10]>>[C:1]([O:5]/[C:4](=[C:2](/[C:3]([H:12])([H:13])[H:14])[H:11])[C:6]#[C:7][H:15])([H:8])([H:9])[H:10]"
C       -1.78594821       1.20688147      -0.59378246
C       -0.03596202      -0.19708892      -0.60468019
C        0.20072392      -1.67786667      -0.55220767
C        0.39981587       0.68813956       0.38371107
O       -0.25538343       1.75840446       0.58023602
C        1.50563497       0.38543697       1.25705310
C        2.35069082       0.07679308       2.04906978
H       -2.37830027       1.12007853       0.30760380
H       -2.18592028       0.53232543      -1.34516697
H       -1.68476700       2.20123579      -1.01316967
H       -0.01493121       0.24750758      -1.59518322
H        0.28419577      -2.03388671       0.47520821
H       -0.62818264      -2.21594397      -1.01921145
H        1.10959308      -1.96739210      -1.08788673
H        3.11874063      -0.12462449       2.75840638
15
Frame=6 idx=009292 GeodesicLength=0.3005977414998281 rxn_smarts="[C:1]([C:2]([C:3]([H:12])([H:13])[H:14])([C:4](=[O:5])[C:6]#[C:7][H:15])[H:11])([H:8])([H:9])[H:10]>>[C:1]([O:5]/[C:4](=[C:2](/[C:3]([H:12])([H:13])[H:14])[H:11])[C:6]#[C:7][H:15])([H:8])([H:9])[H:10]"
C       -1.77691561       1.19303066      -0.58577634
C       -0.03932187      -0.18703283      -0.60948407
C        0.19564174      -1.66855354      -0.55261777
C        0.40259816       0.69267308       0.38391340
O       -0.27137917       1.74706477       0.60588786
C        1.51430127       0.38733590       1.24873622
C        2.35593997       0.07157919       2.04150458
H       -2.39204612       1.14089372       0.30364224
H       -2.19793027       0.51351801      -1.32215676
H       -1.66058362       2.17292496      -1.03590895
H       -0.00177497       0.25251335      -1.60172831
H        0.26132081      -2.02522037       0.47580333
H       -0.62420173      -2.20684459      -1.03482761
H        1.11390633      -1.95665442      -1.07242922
H        3.12044508      -0.12722791       2.75544140
15
Frame=7 idx=009292 GeodesicLength=0.35096522184883944 rxn_smarts="[C:1]([C:2]([C:3]([H:12])([H:13])[H:14])([C:4](=[O:5])[C:6]#[C:7][H:15])[H:11])([H:8])([H:9])[H:10]>>[C:1]([O:5]/[C:4](=[C:2](/[C:3]([H:12])([H:13])[H:14])[H:11])[C:6]#[C:7][H:15])([H:8])([H:9])[H:10]"
C       -1.76816779       1.17952290      -0.57755166
C       -0.04267299      -0.17722659      -0.61432509
C        0.19072312      -1.65952622      -0.55292594
C        0.40513179       0.69716871       0.38403920
O       -0.28736400       1.73484428       0.63127096
C        1.52255706       0.38931394       1.24049032
C        2.36171631       0.06675730       2.03310394
H       -2.40549380       1.16218421       0.29830714
H       -2.20917455       0.49604692      -1.29965074
H       -1.63690851       2.14452572      -1.05670055
H        0.01086624       0.25707445      -1.60818110
H        0.23870133      -2.01661631       0.47631079
H       -0.61972184      -2.19824361      -1.05003637
H        1.11814481      -1.94614710      -1.05674677
H        3.12166281      -0.12967860       2.75259585
15
Frame=8 idx=009292 GeodesicLength=0.40141615677673814 rxn_smarts="[C:1]([C:2]([C:3]([H:12])([H:13])[H:14])([C:4](=[O:5])[C:6]#[C:7][H:15])[H:11])([H:8])([H:9])[H:10]>>[C:1]([O:5]/[C:4](=[C:2](/[C:3]([H:12])([H:13])[H:14])[H:11])[C:6]#[C:7][H:15])([H:8])([H:9])[H:10]"
C       -1.75969312       1.16631355      -0.56924559
C       -0.04601899      -0.16762110      -0.61909951
C        0.18594242      -1.65068017      -0.55303783
C        0.40729385       0.70161498       0.38426207
O       -0.30349070       1.72163950       0.65650503
C        1.53023316       0.39137195       1.23255451
C        2.36761422       0.06228284       2.02433001
H       -2.41865282       1.18388212       0.29135701
H       -2.21962140       0.47980956      -1.27782714
H       -1.61374842       2.11605857      -1.07572375
H        0.02314543       0.26125939      -1.61439494
H        0.21619004      -2.00798069       0.47679304
H       -0.61471386      -2.19000960      -1.06485862
H        1.12232949      -1.93573596      -1.04060365
H        3.12319070      -0.13220493       2.74898936
15
Frame=9 idx=009292 GeodesicLength=0.45194957360543714 rxn_smarts="[C:1]([C:2]([C:3]([H:12])([H:13])[H:14])([C:4](=[O:5])[C:6]#[C:7][H:15])[H:11])([H:8])([H:9])[H:10]>>[C:1]([O:5]/[C:4](=[C:2](/[C:3]([H:12])([H:13])[H:14])[H:11])[C:6]#[C:7][H:15])([H:8])([H:9])[H:10]"
C       -1.75149377       1.15339838      -0.56086515
C       -0.04935255      -0.15819576      -0.62380578
C        0.18130443      -1.64200384      -0.55296106
C        0.40909050       0.70602942       0.38460042
O       -0.31976278       1.70741997       0.68156537
C        1.53735640       0.39351254       1.22493318
C        2.37350836       0.05809428       2.01532313
H       -2.43139468       1.20601721       0.28285352
H       -2.22934691       0.46468809      -1.25664869
H       -1.59119708       2.08760475      -1.09310356
H        0.03508607       0.26510358      -1.62038559
H        0.19377810      -1.99931363       0.47724914
H       -0.60916573      -2.18212434      -1.07931521
H        1.12646303      -1.92541187      -1.02400167
H        3.12512661      -0.13481878       2.74456197
15
Frame=10 idx=009292 GeodesicLength=0.5025853226716306 rxn_smarts="[C:1]([C:2]([C:3]([H:12])([H:13])[H:14])([C:4](=[O:5])[C:6]#[C:7][H:15])[H:11])([H:8])([H:9])[H:10]>>[C:1]([O:5]/[C:4](=[C:2](/[C:3]([H:12])([H:13])[H:14])[H:11])[C:6]#[C:7][H:15])([H:8])([H:9])[H:10]"
C       -1.74352963       1.14077208      -0.55238260
C       -0.05272145      -0.14896366      -0.62845143
C        0.17675423      -1.63345120      -0.55273532
C        0.41057929       0.71036119       0.38498210
O       -0.33605973       1.69218712       0.70646722
C        1.54407465       0.39570904       1.21743582
C        2.37961644       0.05421367       2.00585960
H       -2.44340364       1.22834900       0.27286070
H       -2.23845351       0.45056804      -1.23600540
H       -1.56926489       2.05923251      -1.10888631
H        0.04661067       0.26860190      -1.62612957
H        0.17150806      -1.99058297       0.47758555
H       -0.60318993      -2.17451928      -1.09336598
H        1.13043672      -1.91508417      -1.00703621
H        3.12704272      -0.13739326       2.73980182
15
Frame=11 idx=009292 GeodesicLength=0.5532847747577179 rxn_smarts="[C:1]([C:2]([C:3]([H:12])([H:13])[H:14])([C:4](=[O:5])[C:6]#[C:7][H:15])[H:11])([H:8])([H:9])[H:10]>>[C:1]([O:5]/[C:4](=[C:2](/[C:3]([H:12])([H:13])[H:14])[H:11])[C:6]#[C:7][H:15])([H:8])([H:9])[H:10]"
C       -1.73577181       1.12844464      -0.54376986
C       -0.05612240      -0.13994937      -0.63302065
C        0.17232190      -1.62508816      -0.55239873
C        0.41176251       0.71459524       0.38547756
O       -0.35238105       1.67595428       0.73119598
C        1.55047340       0.39799807       1.21001802
C        2.38581454       0.05059821       1.99605173
H       -2.45461182       1.25103555       0.26133162
H       -2.24697887       0.43747046      -1.21592419
H       -1.54807022       2.03100572      -1.12300329
H        0.05774512       0.27174997      -1.63164074
H        0.14963118      -1.98187671       0.47778004
H       -0.59685823      -2.16729465      -1.10688431
H        1.13416833      -1.90482273      -0.98997708
H        3.12887741      -0.13982052       2.73476392
15
Frame=12 idx=009292 GeodesicLength=0.604071610427587 rxn_smarts="[C:1]([C:2]([C:3]([H:12])([H:13])[H:14])([C:4](=[O:5])[C:6]#[C:7][H:15])[H:11])([H:8])([H:9])[H:10]>>[C:1]([O:5]/[C:4](=[C:2](/[C:3]([H:12])([H:13])[H:14])[H:11])[C:6]#[C:7][H:15])([H:8])([H:9])[H:10]"
C       -1.72829507       1.11636599      -0.53492607
C       -0.05954118      -0.13109660      -0.63761944
C        0.16803945      -1.61690497      -0.55205747
C        0.41271912       0.71881773       0.38597047
O       -0.36845358       1.65870934       0.75547935
C        1.55662330       0.40038757       1.20261394
C        2.39224449       0.04725312       1.98586026
H       -2.46484566       1.27437723       0.24876840
H       -2.25519214       0.42506586      -1.19589802
H       -1.52775842       2.00287256      -1.13584769
H        0.06842603       0.27459638      -1.63711254
H        0.12788528      -1.97320542       0.47779594
H       -0.58998898      -2.16045788      -1.12024100
H        1.13785167      -1.89460627      -0.97271197
H        3.13028568      -0.14217462       2.72992584
15
Frame=13 idx=009292 GeodesicLength=0.6549730147365871 rxn_smarts="[C:1]([C:2]([C:3]([H:12])([H:13])[H:14])([C:4](=[O:5])[C:6]#[C:7][H:15])[H:11])([H:8])([H:9])[H:10]>>[C:1]([O:5]/[C:4](=[C:2](/[C:3]([H:12])([H:13])[H:14])[H:11])[C:6]#[C:7][H:15])([H:8])([H:9])[H:10]"
C       -1.72109557       1.10476528      -0.52653019
C       -0.06310749      -0.12238297      -0.64176222
C        0.16384651      -1.60873244      -0.55119258
C        0.41274497       0.72288490       0.38717130
O       -0.38535710       1.64037533       0.78003576
C        1.56153357       0.40280973       1.19629652
C        2.39793708       0.04426851       1.97613354
H       -2.47455421       1.29745428       0.23418275
H       -2.26269428       0.41364184      -1.17716093
H       -1.50773640       1.97527313      -1.14783343
H        0.07917533       0.27727804      -1.64177673
H        0.10585641      -1.96448542       0.47795126
H       -0.58236628      -2.15368243      -1.13319123
H        1.14157613      -1.88414835      -0.95423723
H        3.13424131      -0.14531943       2.72191342
15
Frame=14 idx=009292 GeodesicLength=0.7059601438115098 rxn_smarts="[C:1]([C:2]([C:3]([H:12])([H:13])[H:14])([C:4](=[O:5])[C:6]#[C:7][H:15])[H:11])([H:8])([H:9])[H:10]>>[C:1]([O:5]/[C:4](=[C:2](/[C:3]([H:12])([H:13])[H:14])[H:11])[C:6]#[C:7][H:15])([H:8])([H:9])[H:10]"
C       -1.71412428       1.09352842      -0.51814399
C       -0.06674475      -0.11381611      -0.64579740
C        0.15974993      -1.60071805      -0.55021976
C        0.41232869       0.72691026       0.38863158
O       -0.40238924       1.62104191       0.80434099
C        1.56592212       0.40536884       1.19034448
C        2.40331946       0.04137705       1.96654116
H       -2.48311249       1.32076386       0.21835828
H       -2.26981490       0.40298124      -1.15886740
H       -1.48848050       1.94798128      -1.15874449
H        0.08967334       0.27973752      -1.64620903
H        0.08395656      -1.95583964       0.47798100
H       -0.57427627      -2.14726225      -1.14582047
H        1.14514489      -1.87367119      -0.93548562
H        3.13884743      -0.14838313       2.71309066
15
Frame=15 idx=009292 GeodesicLength=0.7569533278706112 rxn_smarts="[C:1]([C:2]([C:3]([H:12])([H:13])[H:14])([C:4](=[O:5])[C:6]#[C:7][H:15])[H:11])([H:8])([H:9])[H:10]>>[C:1]([O:5]/[C:4](=[C:2](/[C:3]([H:12])([H:13])[H:14])[H:11])[C:6]#[C:7][H:15])([H:8])([H:9])[H:10]"
C       -1.70737163       1.08271684      -0.50983542
C       -0.07051393      -0.10544195      -0.64966343
C        0.15574870      -1.59286431      -0.54911395
C        0.41141264       0.73079663       0.39039687
O       -0.41954306       1.60068677       0.82844424
C        1.56977343       0.40799061       1.18474923
C        2.40845075       0.03864550       1.95699793
H       -2.49049436       1.34410458       0.20130672
H       -2.27661243       0.39317076      -1.14112793
H       -1.46990093       1.92116995      -1.16865207
H        0.09992213       0.28194803      -1.65028538
H        0.06231980      -1.94732013       0.47786159
H       -0.56577175      -2.14114993      -1.15801250
H        1.14851152      -1.86314861      -0.91652512
H        3.14406912      -0.15130474       2.70345921
15
Frame=16 idx=009292 GeodesicLength=0.8079239446673419 rxn_smarts="[C:1]([C:2]([C:3]([H:12])([H:13])[H:14])([C:4](=[O:5])[C:6]#[C:7][H:15])[H:11])([H:8])([H:9])[H:10]>>[C:1]([O:5]/[C:4](=[C:2](/[C:3]([H:12])([H:13])[H:14])[H:11])[C:6]#[C:7][H:15])([H:8])([H:9])[H:10]"
C       -1.70080584       1.07237337      -0.50163445
C       -0.07444291      -0.09727797      -0.65336089
C        0.15182960      -1.58518747      -0.54789714
C        0.41000150       0.73451280       0.39246083
O       -0.43677757       1.57934191       0.85229407
C        1.57310730       0.41065893       1.17948456
C        2.41333514       0.03611406       1.94750274
H       -2.49658824       1.36728793       0.18324560
H       -2.28311877       0.38425400      -1.12396807
H       -1.45196039       1.89493332      -1.17765127
H        0.10991175       0.28390236      -1.65400400
H        0.04104772      -1.93897691       0.47757822
H       -0.55694154      -2.13535226      -1.16970834
H        1.15162053      -1.85259060      -0.89749711
H        3.14978171      -0.15399346       2.69315525
