12
Frame=0 idx=000203 GeodesicLength=0.0 rxn_smarts="[O:1]([C:2]([C@@:3]([O:4][H:11])([C:5]#[C:6][H:12])[H:10])([H:8])[H:9])[H:7]>>[O:1]([C:2]([C@@:3]([O:4][H:11])([C:6](=[C:5])[H:12])[H:10])([H:8])[H:9])[H:7]"
O       -1.71670913      -0.97095887      -0.13000160
C       -0.90721243       0.02092037      -0.69521885
C        0.33325491       0.35417712       0.15484341
O        0.05386232       0.46574132       1.50618362
C        1.27422656      -1.21390426      -0.03682030
C        1.97151898      -0.18637024      -0.19912235
H       -2.24680844      -0.57012816       0.56088016
H       -1.47193196       0.95443431      -0.81310294
H       -0.59002153      -0.31971887      -1.67970332
H        0.65318923       1.34883116      -0.17448848
H       -0.09517075      -0.42850424       1.83317754
H        2.74180229       0.54548032      -0.32662688
12
Frame=1 idx=000203 GeodesicLength=0.06907940845863164 rxn_smarts="[O:1]([C:2]([C@@:3]([O:4][H:11])([C:5]#[C:6][H:12])[H:10])([H:8])[H:9])[H:7]>>[O:1]([C:2]([C@@:3]([O:4][H:11])([C:6](=[C:5])[H:12])[H:10])([H:8])[H:9])[H:7]"
O       -1.68622718      -0.99701987      -0.15372610
C       -0.91512495       0.03592606      -0.70112989
C        0.32560033       0.36855935       0.14684447
O        0.03356593       0.50272289       1.49538883
C        1.24202581      -1.21734761      -0.03621640
C        1.96297070      -0.20834316      -0.20387493
H       -2.21117541      -0.63482266       0.56221385
H       -1.50571285       0.95653804      -0.78533089
H       -0.60253807      -0.26979400      -1.69853215
H        0.65311422       1.35766406      -0.19275425
H       -0.06568683      -0.38407323       1.85762028
H        2.76918830       0.48999010      -0.29050282
12
Frame=2 idx=000203 GeodesicLength=0.13808378074286273 rxn_smarts="[O:1]([C:2]([C@@:3]([O:4][H:11])([C:5]#[C:6][H:12])[H:10])([H:8])[H:9])[H:7]>>[O:1]([C:2]([C@@:3]([O:4][H:11])([C:6](=[C:5])[H:12])[H:10])([H:8])[H:9])[H:7]"
O       -1.65684515      -1.02035235      -0.17751482
C       -0.92335031       0.05008810      -0.70678743
C        0.31769817       0.38246700       0.13893320
O        0.01316407       0.53658717       1.48463283
C        1.21128748      -1.21961944      -0.03666337
C        1.95416682      -0.22870264      -0.20966217
H       -2.17351931      -0.69580096       0.56235974
H       -1.53823261       0.95660990      -0.75926515
H       -0.61608837      -0.22245824      -1.71546461
H        0.65132250       1.36685449      -0.20943980
H       -0.03335825      -0.33925769       1.88079748
H        2.79375498       0.43358467      -0.25192591
12
Frame=3 idx=000203 GeodesicLength=0.20696178240371366 rxn_smarts="[O:1]([C:2]([C@@:3]([O:4][H:11])([C:5]#[C:6][H:12])[H:10])([H:8])[H:9])[H:7]>>[O:1]([C:2]([C@@:3]([O:4][H:11])([C:6](=[C:5])[H:12])[H:10])([H:8])[H:9])[H:7]"
O       -1.62851017      -1.04119599      -0.20214666
C       -0.93131983       0.06356382      -0.71222956
C        0.30950554       0.39583474       0.13202705
O       -0.00818931       0.56715899       1.47473691
C        1.18192173      -1.22096988      -0.03662875
C        1.94538693      -0.24773681      -0.21407019
H       -2.13398975      -0.75366581       0.56067136
H       -1.56900804       0.95502500      -0.73488012
H       -0.62933535      -0.17707749      -1.73061526
H        0.64809873       1.37639962      -0.22329982
H        0.00061400      -0.29374654       1.90342171
H        2.81482552       0.37641035      -0.21698668
12
Frame=4 idx=000203 GeodesicLength=0.2757915535956339 rxn_smarts="[O:1]([C:2]([C@@:3]([O:4][H:11])([C:5]#[C:6][H:12])[H:10])([H:8])[H:9])[H:7]>>[O:1]([C:2]([C@@:3]([O:4][H:11])([C:6](=[C:5])[H:12])[H:10])([H:8])[H:9])[H:7]"
O       -1.60108887      -1.06002968      -0.22676356
C       -0.93958506       0.07631405      -0.71738260
C        0.30112044       0.40881150       0.12516761
O       -0.02946115       0.59479057       1.46508209
C        1.15390438      -1.22140304      -0.03753382
C        1.93654209      -0.26544508      -0.21969754
H       -2.09307276      -0.80862491       0.55759897
H       -1.59891473       0.95175812      -0.71162369
H       -0.64352463      -0.13366023      -1.74429655
H        0.64336518       1.38636952      -0.23588379
H        0.03757291      -0.24680670       1.92454441
H        2.83314221       0.31792587      -0.17921153
12
Frame=5 idx=000203 GeodesicLength=0.3444524972899208 rxn_smarts="[O:1]([C:2]([C@@:3]([O:4][H:11])([C:5]#[C:6][H:12])[H:10])([H:8])[H:9])[H:7]>>[O:1]([C:2]([C@@:3]([O:4][H:11])([C:6](=[C:5])[H:12])[H:10])([H:8])[H:9])[H:7]"
O       -1.57456480      -1.07698363      -0.25201330
C       -0.94752294       0.08839090      -0.72228789
C        0.29249323       0.42124152       0.11937402
O       -0.05154967       0.61910503       1.45656676
C        1.12714581      -1.22122690      -0.03772041
C        1.92784806      -0.28216254      -0.22401040
H       -2.05115459      -0.86087384       0.55239137
H       -1.62727574       0.94708850      -0.68976774
H       -0.65721583      -0.09190591      -1.75649003
H        0.63739162       1.39671122      -0.24570967
H        0.07598541      -0.19820613       1.94500653
H        2.84841944       0.25882179      -0.14533925
12
Frame=6 idx=000203 GeodesicLength=0.4130418718944756 rxn_smarts="[O:1]([C:2]([C@@:3]([O:4][H:11])([C:5]#[C:6][H:12])[H:10])([H:8])[H:9])[H:7]>>[O:1]([C:2]([C@@:3]([O:4][H:11])([C:6](=[C:5])[H:12])[H:10])([H:8])[H:9])[H:7]"
O       -1.54872217      -1.09240172      -0.27746666
C       -0.95544355       0.09982057      -0.72687457
C        0.28371270       0.43319931       0.11409865
O       -0.07379314       0.64024726       1.44887549
C        1.10161426      -1.22049052      -0.03802073
C        1.91932559      -0.29797535      -0.22837418
H       -2.00862114      -0.91067242       0.54523405
H       -1.65465615       0.94099768      -0.66878374
H       -0.67112567      -0.05162823      -1.76737396
H        0.63019857       1.40741793      -0.25369215
H        0.11663098      -0.14728801       1.96405398
H        2.86087973       0.19877352      -0.11167616
12
Frame=7 idx=000203 GeodesicLength=0.48161155748245627 rxn_smarts="[O:1]([C:2]([C@@:3]([O:4][H:11])([C:5]#[C:6][H:12])[H:10])([H:8])[H:9])[H:7]>>[O:1]([C:2]([C@@:3]([O:4][H:11])([C:6](=[C:5])[H:12])[H:10])([H:8])[H:9])[H:7]"
O       -1.52360567      -1.10638106      -0.30357406
C       -0.96300545       0.11063741      -0.73121463
C        0.27469052       0.44454572       0.10994883
O       -0.09686740       0.65788442       1.44254223
C        1.07709406      -1.21951309      -0.03734505
C        1.91095744      -0.31327809      -0.23136092
H       -1.96573745      -0.95827121       0.53574015
H       -1.68070468       0.93367949      -0.64889098
H       -0.68438064      -0.01261424      -1.77698508
H        0.62196013       1.41839610      -0.25891503
H        0.15880575      -0.09344369       1.98214148
H        2.87079340       0.13835825      -0.08208694
12
Frame=8 idx=000203 GeodesicLength=0.5499939446381017 rxn_smarts="[O:1]([C:2]([C@@:3]([O:4][H:11])([C:5]#[C:6][H:12])[H:10])([H:8])[H:9])[H:7]>>[O:1]([C:2]([C@@:3]([O:4][H:11])([C:6](=[C:5])[H:12])[H:10])([H:8])[H:9])[H:7]"
O       -1.49900772      -1.11916271      -0.32998613
C       -0.97028606       0.12080448      -0.73521875
C        0.26551952       0.45530349       0.10673348
O       -0.12017971       0.67190267       1.43758323
C        1.05368362      -1.21830125      -0.03605693
C        1.90284806      -0.32804973      -0.23353241
H       -1.92302831      -1.00361495       0.52398374
H       -1.70559585       0.92512704      -0.62980360
H       -0.69725182       0.02514041      -1.78536414
H        0.61267139       1.42966679      -0.26168265
H        0.20206445      -0.03635705       1.99868461
H        2.87856243       0.07754081      -0.05534046
12
Frame=9 idx=000203 GeodesicLength=0.6179226004427378 rxn_smarts="[O:1]([C:2]([C@@:3]([O:4][H:11])([C:5]#[C:6][H:12])[H:10])([H:8])[H:9])[H:7]>>[O:1]([C:2]([C@@:3]([O:4][H:11])([C:6](=[C:5])[H:12])[H:10])([H:8])[H:9])[H:7]"
O       -1.47456774      -1.13097818      -0.35630722
C       -0.97730880       0.13030580      -0.73871703
C        0.25643530       0.46550459       0.10418561
O       -0.14281741       0.68244848       1.43390415
C        1.03157375      -1.21686060      -0.03455833
C        1.89522292      -0.34229389      -0.23541692
H       -1.88090354      -1.04661085       0.51015551
H       -1.72942640       0.91531123      -0.61102179
H       -0.71004684       0.06170235      -1.79247099
H        0.60244756       1.44121586      -0.26248879
H        0.24503395       0.02385788       2.01314148
H        2.88435725       0.01639733      -0.03040568
12
Frame=10 idx=000203 GeodesicLength=0.6857850335077926 rxn_smarts="[O:1]([C:2]([C@@:3]([O:4][H:11])([C:5]#[C:6][H:12])[H:10])([H:8])[H:9])[H:7]>>[O:1]([C:2]([C@@:3]([O:4][H:11])([C:6](=[C:5])[H:12])[H:10])([H:8])[H:9])[H:7]"
O       -1.45040608      -1.14184957      -0.38304561
C       -0.98399831       0.13923353      -0.74183361
C        0.24721934       0.47514890       0.10264034
O       -0.16542657       0.68932286       1.43184329
C        1.01044570      -1.21536024      -0.03226997
C        1.88791607      -0.35622339      -0.23608162
H       -1.83915339      -1.08785353       0.49420919
H       -1.75220422       0.90433562      -0.59266980
H       -0.72236221       0.09739239      -1.79841893
H        0.59127383       1.45301979      -0.26083653
H        0.28794359       0.08816460       2.02539857
H        2.88875225      -0.04533097      -0.00893533
12
Frame=11 idx=000203 GeodesicLength=0.7533106198425361 rxn_smarts="[O:1]([C:2]([C@@:3]([O:4][H:11])([C:5]#[C:6][H:12])[H:10])([H:8])[H:9])[H:7]>>[O:1]([C:2]([C@@:3]([O:4][H:11])([C:6](=[C:5])[H:12])[H:10])([H:8])[H:9])[H:7]"
O       -1.42610094      -1.15197437      -0.40975295
C       -0.99035303       0.14754688      -0.74435889
C        0.23825307       0.48409763       0.10176764
O       -0.18697390       0.69246286       1.43113825
C        0.99054500      -1.21392086      -0.02970117
C        1.88124289      -0.37002205      -0.23622745
H       -1.79856267      -1.12695534       0.47619875
H       -1.77390052       0.89214554      -0.57421106
H       -0.73454412       0.13227402      -1.80308961
H        0.57940432       1.46490585      -0.25718869
H        0.32929002       0.15648017       2.03536806
H        2.89169988      -0.10704033       0.01005713
12
Frame=12 idx=000203 GeodesicLength=0.8209206967888265 rxn_smarts="[O:1]([C:2]([C@@:3]([O:4][H:11])([C:5]#[C:6][H:12])[H:10])([H:8])[H:9])[H:7]>>[O:1]([C:2]([C@@:3]([O:4][H:11])([C:6](=[C:5])[H:12])[H:10])([H:8])[H:9])[H:7]"
O       -1.40179881      -1.16130620      -0.43692255
C       -0.99632999       0.15534692      -0.74639735
C        0.22920406       0.49246853       0.10191661
O       -0.20799400       0.69169702       1.43222406
C        0.97152343      -1.21256875      -0.02645282
C        1.87493095      -0.38363978      -0.23480635
H       -1.75854378      -1.16463677       0.45617784
H       -1.79452964       0.87881274      -0.55575069
H       -0.74626647       0.16661258      -1.80652995
H        0.56664839       1.47695948      -0.25106106
H        0.36931097       0.22984591       2.04224273
H        2.89384489      -0.16959167       0.02535952
12
Frame=13 idx=000203 GeodesicLength=0.8884524558471762 rxn_smarts="[O:1]([C:2]([C@@:3]([O:4][H:11])([C:5]#[C:6][H:12])[H:10])([H:8])[H:9])[H:7]>>[O:1]([C:2]([C@@:3]([O:4][H:11])([C:6](=[C:5])[H:12])[H:10])([H:8])[H:9])[H:7]"
O       -1.37719554      -1.16988426      -0.46399220
C       -1.00200863       0.16266313      -0.74777391
C        0.22046909       0.50034193       0.10268511
O       -0.22735278       0.68758484       1.43486599
C        0.95380794      -1.21126947      -0.02319886
C        1.86951554      -0.39703665      -0.23233051
H       -1.71933853      -1.20053839       0.43471571
H       -1.81419895       0.86437425      -0.53679933
H       -0.75803421       0.20038350      -1.80874781
H        0.55321462       1.48915583      -0.24328011
H        0.40559085       0.30708989       2.04596057
H        2.89553061      -0.23286459       0.03789535
12
Frame=14 idx=000203 GeodesicLength=0.9553491150623716 rxn_smarts="[O:1]([C:2]([C@@:3]([O:4][H:11])([C:5]#[C:6][H:12])[H:10])([H:8])[H:9])[H:7]>>[O:1]([C:2]([C@@:3]([O:4][H:11])([C:6](=[C:5])[H:12])[H:10])([H:8])[H:9])[H:7]"
O       -1.35203926      -1.17763350      -0.49008696
C       -1.00733222       0.16951553      -0.74819121
C        0.21267435       0.50787000       0.10342342
O       -0.24363902       0.68149718       1.43820218
C        0.93764127      -1.20992060      -0.02090040
C        1.86535321      -0.41019108      -0.22957263
H       -1.68082626      -1.23410827       0.41276149
H       -1.83260824       0.84894106      -0.51685306
H       -0.77040990       0.23330341      -1.80951249
H        0.53963069       1.50140638      -0.23515347
H        0.43520567       0.38536589       2.04682501
H        2.89634971      -0.29604599       0.04905813
12
Frame=15 idx=000203 GeodesicLength=1.0223197219106819 rxn_smarts="[O:1]([C:2]([C@@:3]([O:4][H:11])([C:5]#[C:6][H:12])[H:10])([H:8])[H:9])[H:7]>>[O:1]([C:2]([C@@:3]([O:4][H:11])([C:6](=[C:5])[H:12])[H:10])([H:8])[H:9])[H:7]"
O       -1.32648211      -1.18451076      -0.51584333
C       -1.01223104       0.17596631      -0.74790357
C        0.20511102       0.51529154       0.10480928
O       -0.25815917       0.67340229       1.44294975
C        0.92264851      -1.20825412      -0.01868701
C        1.86208527      -0.42256707      -0.22463078
H       -1.64247336      -1.26608786       0.39003456
H       -1.84984652       0.83243408      -0.49641556
H       -0.78271931       0.26558603      -1.80894014
H        0.52535582       1.51393993      -0.22580263
H        0.45939138       0.46580757       2.04399030
H        2.89731950      -0.36100792       0.05643913
12
Frame=16 idx=000203 GeodesicLength=1.0892633354444219 rxn_smarts="[O:1]([C:2]([C@@:3]([O:4][H:11])([C:5]#[C:6][H:12])[H:10])([H:8])[H:9])[H:7]>>[O:1]([C:2]([C@@:3]([O:4][H:11])([C:6](=[C:5])[H:12])[H:10])([H:8])[H:9])[H:7]"
O       -1.30044472      -1.19047344      -0.54078499
C       -1.01674353       0.18207346      -0.74677272
C        0.19846159       0.52242526       0.10624585
O       -0.26994928       0.66371742       1.44837153
C        0.90910326      -1.20664686      -0.01733337
C        1.86013493      -0.43485977      -0.21885154
H       -1.60465602      -1.29598509       0.36707315
H       -1.86580549       0.81511602      -0.47511813
H       -0.79553950       0.29717288      -1.80708957
H        0.51102416       1.52645312      -0.21617014
H        0.47663455       0.54720688       2.03885462
H        2.89778005      -0.42619987       0.06157532
