16
Frame=0 idx=004015 GeodesicLength=0.0 rxn_smarts="[C:1]([C:2]([O:3][C:4]1([H:12])[C:5]([H:13])([H:14])[C:6]1([H:15])[H:16])([H:10])[H:11])([H:7])([H:8])[H:9]>>[C:1](=[C:2]([H:10])[H:11])([H:7])[H:9].[H:8][H:12].[O:3]=[C:4]1[C:5]([H:13])([H:14])[C:6]1([H:15])[H:16]"
C        2.22515970      -0.45924738       0.50667027
C        2.07449199      -0.33034642      -0.83751400
O       -0.07465864       0.13816085      -1.31064667
C       -0.81714001       0.18773235      -0.31683136
C       -1.86246056       1.12675736       0.16396017
C       -2.13823177      -0.39492344       0.03213382
H        2.27277693      -1.44338454       0.96036333
H        0.79222532      -0.20994078       0.90058177
H        2.62581264       0.36077685       1.09266040
H        2.25323383       0.60913957      -1.33825134
H        1.90008043      -1.18685303      -1.47135503
H       -0.07248641      -0.04605829       0.88203228
H       -1.84122626       1.53379322       1.16646591
H       -2.29698578       1.78089933      -0.58268868
H       -2.28941906      -0.94469788       0.95198845
H       -2.75117235      -0.72180784      -0.79956936
16
Frame=1 idx=004015 GeodesicLength=0.10796258054945922 rxn_smarts="[C:1]([C:2]([O:3][C:4]1([H:12])[C:5]([H:13])([H:14])[C:6]1([H:15])[H:16])([H:10])[H:11])([H:7])([H:8])[H:9]>>[C:1](=[C:2]([H:10])[H:11])([H:7])[H:9].[H:8][H:12].[O:3]=[C:4]1[C:5]([H:13])([H:14])[C:6]1([H:15])[H:16]"
C        2.24258097      -0.41557361       0.50705489
C        2.04822544      -0.36277165      -0.83984303
O       -0.06757382       0.17725963      -1.29561485
C       -0.82093638       0.18939415      -0.30548882
C       -1.86333695       1.12023860       0.19664593
C       -2.15775992      -0.38762953      -0.01550526
H        2.36024996      -1.37227723       1.00476322
H        0.80552093      -0.21538305       0.93470017
H        2.63716156       0.44991639       1.02872190
H        2.27298154       0.52486284      -1.41235747
H        1.85478526      -1.26179352      -1.40729686
H       -0.09051665      -0.09965225       0.91092088
H       -1.85471573       1.47812865       1.21803256
H       -2.27288082       1.81923941      -0.52282616
H       -2.33138532      -0.98415123       0.87070786
H       -2.76240008      -0.65980761      -0.87261498
16
Frame=2 idx=004015 GeodesicLength=0.2151025194264553 rxn_smarts="[C:1]([C:2]([O:3][C:4]1([H:12])[C:5]([H:13])([H:14])[C:6]1([H:15])[H:16])([H:10])[H:11])([H:7])([H:8])[H:9]>>[C:1](=[C:2]([H:10])[H:11])([H:7])[H:9].[H:8][H:12].[O:3]=[C:4]1[C:5]([H:13])([H:14])[C:6]1([H:15])[H:16]"
C        2.25763356      -0.37329200       0.50555406
C        2.02218463      -0.39382358      -0.83909541
O       -0.05919475       0.21561590      -1.28010625
C       -0.82359034       0.19091598      -0.29519483
C       -1.86424696       1.11189748       0.22781314
C       -2.17380687      -0.37868698      -0.06218394
H        2.44194176      -1.29907619       1.04046657
H        0.81985073      -0.21751583       0.97037728
H        2.64561514       0.53131030       0.96238270
H        2.28627670       0.43572783      -1.47905320
H        1.80965649      -1.32950016      -1.33821737
H       -0.10610681      -0.15094002       0.93694835
H       -1.86891209       1.42105475       1.26517998
H       -2.25018198       1.85259024      -0.46223626
H       -2.36788405      -1.01934641       0.78833507
H       -2.76923516      -0.59693131      -0.94096988
16
Frame=3 idx=004015 GeodesicLength=0.32160207819043257 rxn_smarts="[C:1]([C:2]([O:3][C:4]1([H:12])[C:5]([H:13])([H:14])[C:6]1([H:15])[H:16])([H:10])[H:11])([H:7])([H:8])[H:9]>>[C:1](=[C:2]([H:10])[H:11])([H:7])[H:9].[H:8][H:12].[O:3]=[C:4]1[C:5]([H:13])([H:14])[C:6]1([H:15])[H:16]"
C        2.27049306      -0.33162446       0.50231535
C        1.99636565      -0.42317560      -0.83551993
O       -0.05016642       0.25062654      -1.26450184
C       -0.82542105       0.19106708      -0.28607301
C       -1.86413990       1.10193331       0.25737590
C       -2.18741869      -0.36780827      -0.10778903
H        2.51970070      -1.22337340       1.06800766
H        0.83480251      -0.21898472       1.00700817
H        2.64995196       0.60682863       0.89404184
H        2.29209556       0.34356243      -1.53760393
H        1.76653564      -1.38995846      -1.26489247
H       -0.11976842      -0.20161202       0.96029342
H       -1.88232977       1.36267072       1.30788114
H       -2.22679379       1.88190446      -0.40112338
H       -2.40063360      -1.04993081       0.70511184
H       -2.77327343      -0.53212542      -1.00453174
16
Frame=4 idx=004015 GeodesicLength=0.42793019319991243 rxn_smarts="[C:1]([C:2]([O:3][C:4]1([H:12])[C:5]([H:13])([H:14])[C:6]1([H:15])[H:16])([H:10])[H:11])([H:7])([H:8])[H:9]>>[C:1](=[C:2]([H:10])[H:11])([H:7])[H:9].[H:8][H:12].[O:3]=[C:4]1[C:5]([H:13])([H:14])[C:6]1([H:15])[H:16]"
C        2.28134767      -0.29104708       0.49764318
C        1.97116138      -0.45028707      -0.82957852
O       -0.04109619       0.28081853      -1.24936336
C       -0.82684182       0.18933407      -0.27816439
C       -1.86302289       1.09071488       0.28484897
C       -2.19942458      -0.35512941      -0.15165139
H        2.59343872      -1.14678079       1.08732869
H        0.85042678      -0.22058280       1.04422909
H        2.65061532       0.67601152       0.82515297
H        2.29091909       0.25130022      -1.58743570
H        1.72796775      -1.44292553      -1.18938347
H       -0.13187781      -0.25136849       0.98157590
H       -1.89468546       1.30431009       1.34568007
H       -2.20256185       1.90716287      -0.34075824
H       -2.43070661      -1.07538587       0.62252555
H       -2.77565950      -0.46614515      -1.06264932
16
Frame=5 idx=004015 GeodesicLength=0.5340619253308931 rxn_smarts="[C:1]([C:2]([O:3][C:4]1([H:12])[C:5]([H:13])([H:14])[C:6]1([H:15])[H:16])([H:10])[H:11])([H:7])([H:8])[H:9]>>[C:1](=[C:2]([H:10])[H:11])([H:7])[H:9].[H:8][H:12].[O:3]=[C:4]1[C:5]([H:13])([H:14])[C:6]1([H:15])[H:16]"
C        2.29046816      -0.25270343       0.49180273
C        1.94646245      -0.47513195      -0.82176258
O       -0.03194793       0.30761932      -1.23460778
C       -0.82790272       0.18657295      -0.27121358
C       -1.86184690       1.07854078       0.30992073
C       -2.20963503      -0.34135122      -0.19348964
H        2.66170470      -1.07200844       1.09884434
H        0.86727484      -0.22054491       1.08198305
H        2.65019512       0.73720729       0.75652870
H        2.28381374       0.16081653      -1.62880863
H        1.69385615      -1.48854360      -1.11333171
H       -0.14242502      -0.29822453       1.00187426
H       -1.90721584       1.24701391       1.37845179
H       -2.17919030       1.92799792      -0.28228658
H       -2.45758673      -1.09630547       0.54151497
H       -2.77602466      -0.40095515      -1.11542007
16
Frame=6 idx=004015 GeodesicLength=0.6401492906029165 rxn_smarts="[C:1]([C:2]([O:3][C:4]1([H:12])[C:5]([H:13])([H:14])[C:6]1([H:15])[H:16])([H:10])[H:11])([H:7])([H:8])[H:9]>>[C:1](=[C:2]([H:10])[H:11])([H:7])[H:9].[H:8][H:12].[O:3]=[C:4]1[C:5]([H:13])([H:14])[C:6]1([H:15])[H:16]"
C        2.29803976      -0.21560235       0.48500538
C        1.92249593      -0.49803697      -0.81228296
O       -0.02325710       0.32997181      -1.22069547
C       -0.82900799       0.18206236      -0.26535641
C       -1.86003393       1.06550409       0.33300826
C       -2.21898117      -0.32622976      -0.23352760
H        2.72589213      -0.99789059       1.10365435
H        0.88509710      -0.22020315       1.11994262
H        2.64749788       0.79270379       0.68821331
H        2.27184398       0.07241725      -1.66247608
H        1.66523917      -1.52818458      -1.03696747
H       -0.15218561      -0.34418894       1.02115606
H       -1.91903731       1.19046560       1.40692534
H       -2.15524228       1.94533568      -0.22510252
H       -2.48287289      -1.11271670       0.46182887
H       -2.77548766      -0.33540753      -1.16332567
16
Frame=7 idx=004015 GeodesicLength=0.7462033325578394 rxn_smarts="[C:1]([C:2]([O:3][C:4]1([H:12])[C:5]([H:13])([H:14])[C:6]1([H:15])[H:16])([H:10])[H:11])([H:7])([H:8])[H:9]>>[C:1](=[C:2]([H:10])[H:11])([H:7])[H:9].[H:8][H:12].[O:3]=[C:4]1[C:5]([H:13])([H:14])[C:6]1([H:15])[H:16]"
C        2.30426146      -0.17976786       0.47739002
C        1.89915074      -0.51930205      -0.80133390
O       -0.01499789       0.34872092      -1.20760873
C       -0.83022229       0.17612180      -0.26051255
C       -1.85786112       1.05166932       0.35432659
C       -2.22754164      -0.30999090      -0.27195682
H        2.78590703      -0.92491089       1.10250621
H        0.90412644      -0.21876741       1.15808683
H        2.64336006       0.84271269       0.62015650
H        2.25592236      -0.01375651      -1.68915197
H        1.64165275      -1.56252220      -0.96058811
H       -0.16136498      -0.38923374       1.03976743
H       -1.93054331       1.13462780       1.43156375
H       -2.13110873       1.95932582      -0.16909114
H       -2.50672317      -1.12511893       0.38332272
H       -2.77401769      -0.26980788      -1.20687682
16
Frame=8 idx=004015 GeodesicLength=0.8522555998106359 rxn_smarts="[C:1]([C:2]([O:3][C:4]1([H:12])[C:5]([H:13])([H:14])[C:6]1([H:15])[H:16])([H:10])[H:11])([H:7])([H:8])[H:9]>>[C:1](=[C:2]([H:10])[H:11])([H:7])[H:9].[H:8][H:12].[O:3]=[C:4]1[C:5]([H:13])([H:14])[C:6]1([H:15])[H:16]"
C        2.30931072      -0.14501110       0.46904778
C        1.87635581      -0.53920986      -0.78902081
O       -0.00718595       0.36434165      -1.19536520
C       -0.83163038       0.16887036      -0.25666035
C       -1.85542866       1.03704921       0.37411554
C       -2.23546582      -0.29271716      -0.30898831
H        2.84194339      -0.85310183       1.09609015
H        0.92450248      -0.21580434       1.19639245
H        2.63815969       0.88773958       0.55220301
H        2.23678319      -0.09779619      -1.70944187
H        1.62272577      -1.59217516      -0.88427709
H       -0.17020954      -0.43373974       1.05785906
H       -1.94189863       1.07929998       1.45280637
H       -2.10682930       1.97019134      -0.11398628
H       -2.52944331      -1.13384565       0.30574682
H       -2.77168946      -0.20409109      -1.24652126
16
Frame=9 idx=004015 GeodesicLength=0.9582777435644962 rxn_smarts="[C:1]([C:2]([O:3][C:4]1([H:12])[C:5]([H:13])([H:14])[C:6]1([H:15])[H:16])([H:10])[H:11])([H:7])([H:8])[H:9]>>[C:1](=[C:2]([H:10])[H:11])([H:7])[H:9].[H:8][H:12].[O:3]=[C:4]1[C:5]([H:13])([H:14])[C:6]1([H:15])[H:16]"
C        2.31314017      -0.11089423       0.46008791
C        1.85418223      -0.55792093      -0.77539485
O        0.00001731       0.37641909      -1.18423809
C       -0.83339505       0.15994662      -0.25393267
C       -1.85243447       1.02163745       0.39255266
C       -2.24314820      -0.27431244      -0.34468782
H        2.89429104      -0.78190405       1.08504686
H        0.94616899      -0.21150449       1.23476223
H        2.63140690       0.92862748       0.48435180
H        2.21518295      -0.17954579      -1.72369484
H        1.60876427      -1.61767900      -0.80819922
H       -0.17907611      -0.47880079       1.07523385
H       -1.95268202       1.02437163       1.47097655
H       -2.08165000       1.97819970      -0.05955768
H       -2.55187516      -1.13880581       0.22910871
H       -2.76889288      -0.13783444      -1.28241540
16
Frame=10 idx=004015 GeodesicLength=1.0643247924600105 rxn_smarts="[C:1]([C:2]([O:3][C:4]1([H:12])[C:5]([H:13])([H:14])[C:6]1([H:15])[H:16])([H:10])[H:11])([H:7])([H:8])[H:9]>>[C:1](=[C:2]([H:10])[H:11])([H:7])[H:9].[H:8][H:12].[O:3]=[C:4]1[C:5]([H:13])([H:14])[C:6]1([H:15])[H:16]"
C        2.31603390      -0.07747868       0.45048542
C        1.83245637      -0.57567626      -0.76046809
O        0.00675979       0.38602445      -1.17397963
C       -0.83549204       0.14983520      -0.25221076
C       -1.84926011       1.00537615       0.40984693
C       -2.25041120      -0.25491371      -0.37931123
H        2.94296190      -0.71182055       1.06975649
H        0.96941422      -0.20485138       1.27329206
H        2.62396795       0.96531162       0.41627079
H        2.19149355      -0.25947236      -1.73246180
H        1.59884571      -1.63932325      -0.73216127
H       -0.18806110      -0.52418864       1.09212671
H       -1.96346487       0.96954032       1.48639856
H       -2.05625171       1.98328927      -0.00553555
H       -2.57369225      -1.14044080       0.15296196
H       -2.76530014      -0.07121137      -1.31501058
16
Frame=11 idx=004015 GeodesicLength=1.1703887101751373 rxn_smarts="[C:1]([C:2]([O:3][C:4]1([H:12])[C:5]([H:13])([H:14])[C:6]1([H:15])[H:16])([H:10])[H:11])([H:7])([H:8])[H:9]>>[C:1](=[C:2]([H:10])[H:11])([H:7])[H:9].[H:8][H:12].[O:3]=[C:4]1[C:5]([H:13])([H:14])[C:6]1([H:15])[H:16]"
C        2.31801268      -0.04448349       0.44025503
C        1.81116298      -0.59260357      -0.74418914
O        0.01300261       0.39310125      -1.16469101
C       -0.83799955       0.13840377      -0.25158162
C       -1.84577043       0.98819578       0.42614635
C       -2.25741345      -0.23444314      -0.41296448
H        2.98813584      -0.64257512       1.05062109
H        0.99429503      -0.19557953       1.31195216
H        2.61566957       0.99822408       0.34781562
H        2.16614790      -0.33773605      -1.73596689
H        1.59287348      -1.65735821      -0.65606502
H       -0.19743210      -0.57062740       1.10835325
H       -1.97408823       0.91459130       1.49929086
H       -2.03028215       1.98551717       0.04833092
H       -2.59529683      -1.13870861       0.07713520
H       -2.76101734      -0.00391824      -1.34444233
16
Frame=12 idx=004015 GeodesicLength=1.2765028337687512 rxn_smarts="[C:1]([C:2]([O:3][C:4]1([H:12])[C:5]([H:13])([H:14])[C:6]1([H:15])[H:16])([H:10])[H:11])([H:7])([H:8])[H:9]>>[C:1](=[C:2]([H:10])[H:11])([H:7])[H:9].[H:8][H:12].[O:3]=[C:4]1[C:5]([H:13])([H:14])[C:6]1([H:15])[H:16]"
C        2.31910271      -0.01165765       0.42938039
C        1.79030759      -0.60882418      -0.72648694
O        0.01872419       0.39760208      -1.15648588
C       -0.84099271       0.12553464      -0.25214873
C       -1.84185945       0.97000210       0.44159491
C       -2.26428997      -0.21279926      -0.44574018
H        3.02995224      -0.57391047       1.02799638
H        1.02089727      -0.18328454       1.35072984
H        2.60637900       1.02768151       0.27881272
H        2.13955404      -0.41456323      -1.73438032
H        1.59073008      -1.67194108      -0.57975106
H       -0.20745304      -0.61883027       1.12368077
H       -1.98445786       0.85928192       1.50985117
H       -2.00343014       1.98486822       0.10230110
H       -2.61706031      -1.13351499       0.00144703
H       -2.75610362       0.06435519      -1.37080120
16
Frame=13 idx=004015 GeodesicLength=1.3826993597976938 rxn_smarts="[C:1]([C:2]([O:3][C:4]1([H:12])[C:5]([H:13])([H:14])[C:6]1([H:15])[H:16])([H:10])[H:11])([H:7])([H:8])[H:9]>>[C:1](=[C:2]([H:10])[H:11])([H:7])[H:9].[H:8][H:12].[O:3]=[C:4]1[C:5]([H:13])([H:14])[C:6]1([H:15])[H:16]"
C        2.31914640       0.02137855       0.41783317
C        1.76994423      -0.62444970      -0.70723845
O        0.02381284       0.39907720      -1.14964940
C       -0.84459531       0.11089756      -0.25411613
C       -1.83721146       0.95064680       0.45630488
C       -2.27124088      -0.18976029      -0.47766306
H        3.06846794      -0.50520874       1.00222914
H        1.04921683      -0.16773047       1.38957208
H        2.59547262       1.05414354       0.20911825
H        2.11221820      -0.49018756      -1.72771044
H        1.59260573      -1.68320573      -0.50302251
H       -0.21848982      -0.66987273       1.13765029
H       -1.99421394       0.80335360       1.51821615
H       -1.97491203       1.98126742       0.15665296
H       -2.63958519      -1.12450344      -0.07415973
H       -2.75063617       0.13415400      -1.39401722
16
Frame=14 idx=004015 GeodesicLength=1.4889803429462305 rxn_smarts="[C:1]([C:2]([O:3][C:4]1([H:12])[C:5]([H:13])([H:14])[C:6]1([H:15])[H:16])([H:10])[H:11])([H:7])([H:8])[H:9]>>[C:1](=[C:2]([H:10])[H:11])([H:7])[H:9].[H:8][H:12].[O:3]=[C:4]1[C:5]([H:13])([H:14])[C:6]1([H:15])[H:16]"
C        2.31829816       0.05466862       0.40549288
C        1.74994771      -0.63953340      -0.68629778
O        0.02838191       0.39797827      -1.14407480
C       -0.84880138       0.09466427      -0.25751377
C       -1.83195079       0.92996370       0.47040602
C       -2.27813981      -0.16530506      -0.50884236
H        3.10368503      -0.43672102       0.97344509
H        1.07949338      -0.14782169       1.42847045
H        2.58343733       1.07743808       0.13843584
H        2.08425030      -0.56495272      -1.71597739
H        1.59785417      -1.69100852      -0.42557917
H       -0.23079078      -0.72413073       1.15004275
H       -2.00360066       0.74646822       1.52449600
H       -1.94495398       1.97445033       0.21164908
H       -2.66275539      -1.11168317      -0.14999916
H       -2.74435518       0.20552482      -1.41415368
16
Frame=15 idx=004015 GeodesicLength=1.5953871399750361 rxn_smarts="[C:1]([C:2]([O:3][C:4]1([H:12])[C:5]([H:13])([H:14])[C:6]1([H:15])[H:16])([H:10])[H:11])([H:7])([H:8])[H:9]>>[C:1](=[C:2]([H:10])[H:11])([H:7])[H:9].[H:8][H:12].[O:3]=[C:4]1[C:5]([H:13])([H:14])[C:6]1([H:15])[H:16]"
C        2.31647910       0.08849727       0.39224351
C        1.73029146      -0.65412839      -0.66343482
O        0.03241523       0.39409008      -1.13994319
C       -0.85369089       0.07663660      -0.26254113
C       -1.82587560       0.90771230       0.48400570
C       -2.28503132      -0.13922013      -0.53930919
H        3.13560976      -0.36809872       0.94182081
H        1.11182406      -0.12271608       1.46734138
H        2.57005342       1.09768764       0.06648445
H        2.05592917      -0.63921154      -1.69898072
H        1.60631719      -1.69521529      -0.34702239
H       -0.24478546      -0.78264131       1.16027331
H       -2.01246014       0.68823149       1.52875060
H       -1.91302816       1.96412337       0.26761544
H       -2.68691990      -1.09467711      -0.22623773
H       -2.73712792       0.27892984      -1.43106603
16
Frame=16 idx=004015 GeodesicLength=1.7019752103650228 rxn_smarts="[C:1]([C:2]([O:3][C:4]1([H:12])[C:5]([H:13])([H:14])[C:6]1([H:15])[H:16])([H:10])[H:11])([H:7])([H:8])[H:9]>>[C:1](=[C:2]([H:10])[H:11])([H:7])[H:9].[H:8][H:12].[O:3]=[C:4]1[C:5]([H:13])([H:14])[C:6]1([H:15])[H:16]"
C        2.31361107       0.12314560       0.37792095
C        1.71091798      -0.66825263      -0.63834678
O        0.03591866       0.38721610      -1.13744604
C       -0.85934066       0.05662282      -0.26943493
C       -1.81877683       0.88358075       0.49721591
C       -2.29190392      -0.11125989      -0.56907211
H        3.16420744      -0.29903362       0.90747396
H        1.14632596      -0.09125517       1.50604374
H        2.55520682       1.11488419      -0.00709200
H        2.02746155      -0.71336272      -1.67636559
H        1.61771684      -1.69554453      -0.26681719
H       -0.26098991      -0.84657722       1.16757737
H       -2.02065644       0.62815752       1.53100570
H       -1.87859642       1.94984431       0.32492070
H       -2.71238435      -1.07301409      -0.30306085
H       -2.72871779       0.35484858      -1.44452283
