18
Frame=0 idx=010237 GeodesicLength=0.0 rxn_smarts="[C:1]([C:2]([C:3]([H:12])([H:13])[H:14])([N:4]([C:5]([H:15])([H:16])[H:17])[C:6](=[O:7])[H:18])[H:11])([H:8])([H:9])[H:10]>>[C:1]([C:2]([C:3]([H:12])([H:13])[H:14])([N+:4]([C-:5]([H:15])[H:16])([C:6](=[O:7])[H:18])[H:17])[H:11])([H:8])([H:9])[H:10]"
C       -0.87317132      -1.14418511      -0.82300345
C       -0.64823426       0.26781800      -0.30914317
C       -1.50809156       0.59910250       0.89905572
N        0.78523042       0.46714351       0.01365271
C        1.55477755      -0.37093750       1.14162425
C        1.65617794       0.76635909      -1.05641366
O        1.32018184       0.79309281      -2.20325635
H       -0.59658749      -1.87998826      -0.06554164
H       -1.92796575      -1.28244037      -1.06354182
H       -0.29206217      -1.33061270      -1.72591995
H       -0.86415290       0.97813899      -1.11005697
H       -1.29495717       1.59955087       1.28018651
H       -2.55989609       0.56603034       0.61332221
H       -1.35961282      -0.12073031       1.70530497
H        0.76935835      -0.61779729       1.85182372
H        1.95473897      -1.26917012       0.67390927
H        1.20732462       1.02142884       0.86983335
H        2.67694188       0.95719666      -0.69183568
18
Frame=1 idx=010237 GeodesicLength=0.06524658162554715 rxn_smarts="[C:1]([C:2]([C:3]([H:12])([H:13])[H:14])([N:4]([C:5]([H:15])([H:16])[H:17])[C:6](=[O:7])[H:18])[H:11])([H:8])([H:9])[H:10]>>[C:1]([C:2]([C:3]([H:12])([H:13])[H:14])([N+:4]([C-:5]([H:15])[H:16])([C:6](=[O:7])[H:18])[H:17])[H:11])([H:8])([H:9])[H:10]"
C       -0.87430034      -1.14915350      -0.81829837
C       -0.64697358       0.26463810      -0.31015833
C       -1.50944157       0.60276934       0.89436200
N        0.78568909       0.46673380       0.01477428
C        1.54870631      -0.38600540       1.12217691
C        1.65530613       0.77854004      -1.05222284
O        1.32373472       0.80622586      -2.20082892
H       -0.60813631      -1.88257027      -0.05489278
H       -1.92785196      -1.28334734      -1.06654740
H       -0.28703111      -1.34359881      -1.71550640
H       -0.86309745       0.97091167      -1.11462210
H       -1.30095276       1.60738019       1.26707597
H       -2.56110606       0.56308997       0.60877370
H       -1.35876683      -0.11034729       1.70623843
H        0.79269077      -0.61071786       1.86979993
H        1.93797124      -1.28563546       0.64889564
H        1.21929738       1.01486735       0.88691105
H        2.67426233       0.97621959      -0.68593079
18
Frame=2 idx=010237 GeodesicLength=0.13045349545721344 rxn_smarts="[C:1]([C:2]([C:3]([H:12])([H:13])[H:14])([N:4]([C:5]([H:15])([H:16])[H:17])[C:6](=[O:7])[H:18])[H:11])([H:8])([H:9])[H:10]>>[C:1]([C:2]([C:3]([H:12])([H:13])[H:14])([N+:4]([C-:5]([H:15])[H:16])([C:6](=[O:7])[H:18])[H:17])[H:11])([H:8])([H:9])[H:10]"
C       -0.87566394      -1.15408561      -0.81371326
C       -0.64590262       0.26147415      -0.31132219
C       -1.51084917       0.60638446       0.88958969
N        0.78594510       0.46625502       0.01581667
C        1.54188823      -0.40040406       1.10326767
C        1.65443678       0.79032085      -1.04784864
O        1.32735216       0.81952419      -2.19820159
H       -0.61970527      -1.88500711      -0.04452350
H       -1.92791959      -1.28433534      -1.06952365
H       -0.28242602      -1.35648010      -1.70520519
H       -0.86207160       0.96372614      -1.11931194
H       -1.30693967       1.61505320       1.25384028
H       -2.56237983       0.56011963       0.60432332
H       -1.35786275      -0.09996629       1.70701984
H        0.81770524      -0.60400116       1.88685308
H        1.92136380      -1.30097030       0.62452766
H        1.23150908       1.00796557       0.90399097
H        2.67152005       0.99442676      -0.67957923
18
Frame=3 idx=010237 GeodesicLength=0.19562931841674247 rxn_smarts="[C:1]([C:2]([C:3]([H:12])([H:13])[H:14])([N:4]([C:5]([H:15])([H:16])[H:17])[C:6](=[O:7])[H:18])[H:11])([H:8])([H:9])[H:10]>>[C:1]([C:2]([C:3]([H:12])([H:13])[H:14])([N+:4]([C-:5]([H:15])[H:16])([C:6](=[O:7])[H:18])[H:17])[H:11])([H:8])([H:9])[H:10]"
C       -0.87725597      -1.15899219      -0.80921850
C       -0.64502199       0.25832502      -0.31263144
C       -1.51233119       0.60997925       0.88472348
N        0.78599577       0.46570545       0.01679329
C        1.53437560      -0.41414208       1.08490793
C        1.65356399       0.80173554      -1.04328152
O        1.33103043       0.83297539      -2.19536344
H       -0.63129641      -1.88730245      -0.03438402
H       -1.92816471      -1.28541776      -1.07244861
H       -0.27823100      -1.36928778      -1.69498149
H       -0.86107246       0.95656659      -1.12413852
H       -1.31293102       1.62260562       1.24045447
H       -2.56373034       0.55715716       0.59993856
H       -1.35694384      -0.08954505       1.70764726
H        0.84438508      -0.59779438       1.90289440
H        1.90496097      -1.31519903       0.60077885
H        1.24395970       1.00072004       0.92109230
H        2.66870738       1.01191064      -0.67278300
18
Frame=4 idx=010237 GeodesicLength=0.2607854840509187 rxn_smarts="[C:1]([C:2]([C:3]([H:12])([H:13])[H:14])([N:4]([C:5]([H:15])([H:16])[H:17])[C:6](=[O:7])[H:18])[H:11])([H:8])([H:9])[H:10]>>[C:1]([C:2]([C:3]([H:12])([H:13])[H:14])([N+:4]([C-:5]([H:15])[H:16])([C:6](=[O:7])[H:18])[H:17])[H:11])([H:8])([H:9])[H:10]"
C       -0.87906891      -1.16388284      -0.80478510
C       -0.64433234       0.25518907      -0.31408283
C       -1.51390274       0.61358232       0.87974540
N        0.78583766       0.46508602       0.01771707
C        1.52621528      -0.42722913       1.06710447
C        1.65268013       0.81281986      -1.03851067
O        1.33476551       0.84657340      -2.19230283
H       -0.64290527      -1.88945689      -0.02442681
H       -1.92858228      -1.28660895      -1.07529739
H       -0.27443278      -1.38204784      -1.68480157
H       -0.86009860       0.94941369      -1.12911341
H       -1.31893735       1.63006801       1.22689018
H       -2.56516910       0.55423476       0.59558530
H       -1.35604883      -0.07904229       1.70811524
H        0.87272109      -0.59222133       1.91784894
H        1.88879026      -1.32835750       0.57762008
H        1.25665535       0.99312103       0.93823436
H        2.66581293       1.02875862      -0.66554043
18
Frame=5 idx=010237 GeodesicLength=0.32592892317664385 rxn_smarts="[C:1]([C:2]([C:3]([H:12])([H:13])[H:14])([N:4]([C:5]([H:15])([H:16])[H:17])[C:6](=[O:7])[H:18])[H:11])([H:8])([H:9])[H:10]>>[C:1]([C:2]([C:3]([H:12])([H:13])[H:14])([N+:4]([C-:5]([H:15])[H:16])([C:6](=[O:7])[H:18])[H:17])[H:11])([H:8])([H:9])[H:10]"
C       -0.88109581      -1.16876842      -0.80038384
C       -0.64383303       0.25206495      -0.31567288
C       -1.51557922       0.61722285       0.87463979
N        0.78546856       0.46439637       0.01859894
C        1.51746492      -0.43967503       1.04986302
C        1.65177607       0.82360866      -1.03352447
O        1.33855456       0.86030493      -2.18900638
H       -0.65453178      -1.89147188      -0.01460285
H       -1.92916659      -1.28792605      -1.07804745
H       -0.27101557      -1.39478773      -1.67463157
H       -0.85914514       0.94225156      -1.13424796
H       -1.32497091       1.63747505       1.21312071
H       -2.56670760       0.55138642       0.59123265
H       -1.35521729      -0.06841854       1.70842000
H        0.90270048      -0.58741595       1.93162514
H        1.87287664      -1.34046797       0.55502631
H        1.26959800       0.98516398       0.95543955
H        2.66282371       1.04505678      -0.65784870
18
Frame=6 idx=010237 GeodesicLength=0.39106291132366017 rxn_smarts="[C:1]([C:2]([C:3]([H:12])([H:13])[H:14])([N:4]([C:5]([H:15])([H:16])[H:17])[C:6](=[O:7])[H:18])[H:11])([H:8])([H:9])[H:10]>>[C:1]([C:2]([C:3]([H:12])([H:13])[H:14])([N+:4]([C-:5]([H:15])[H:16])([C:6](=[O:7])[H:18])[H:17])[H:11])([H:8])([H:9])[H:10]"
C       -0.88332838      -1.17365675      -0.79598848
C       -0.64352366       0.24895079      -0.31739862
C       -1.51737387       0.62092436       0.86938864
N        0.78488556       0.46364111       0.01945012
C        1.50816283      -0.45148936       1.03319092
C        1.65084335       0.83413564      -1.02831334
O        1.34239428       0.87416744      -2.18546369
H       -0.66617038      -1.89334552      -0.00486906
H       -1.92991192      -1.28938272      -1.08067688
H       -0.26796667      -1.40752794      -1.66444017
H       -0.85821041       0.93506076      -1.13955187
H       -1.33104084       1.64485085       1.19911939
H       -2.56835577       0.54863749       0.58684751
H       -1.35448288      -0.05763914       1.70855365
H        0.93432701      -0.58347877       1.94415801
H        1.85722871      -1.35156522       0.53297500
H        1.28279835       0.97683581       0.97272310
H        2.65972469       1.06088115      -0.64970425
18
Frame=7 idx=010237 GeodesicLength=0.4561962183177707 rxn_smarts="[C:1]([C:2]([C:3]([H:12])([H:13])[H:14])([N:4]([C:5]([H:15])([H:16])[H:17])[C:6](=[O:7])[H:18])[H:11])([H:8])([H:9])[H:10]>>[C:1]([C:2]([C:3]([H:12])([H:13])[H:14])([N+:4]([C-:5]([H:15])[H:16])([C:6](=[O:7])[H:18])[H:17])[H:11])([H:8])([H:9])[H:10]"
C       -0.88575947      -1.17855643      -0.79157124
C       -0.64340461       0.24584403      -0.31925724
C       -1.51930137       0.62471039       0.86397238
N        0.78408416       0.46282484       0.02028167
C        1.49834988      -0.46268295       1.01709310
C        1.64987176       0.84443756      -1.02286402
O        1.34628225       0.88815956      -2.18166111
H       -0.67781913      -1.89507398       0.00482082
H       -1.93081233      -1.29099338      -1.08316406
H       -0.26527096      -1.42029100      -1.65419120
H       -0.85729185       0.92782028      -1.14503552
H       -1.33715806       1.65221976       1.18485509
H       -2.57012570       0.54601434       0.58239706
H       -1.35387945      -0.04666729       1.70850706
H        0.96761526      -0.58051214       1.95536739
H        1.84185152      -1.36167426       0.51144320
H        1.29626813       0.96811723       0.99010551
H        2.65649997       1.07630345      -0.64109887
18
Frame=8 idx=010237 GeodesicLength=0.5213343579207826 rxn_smarts="[C:1]([C:2]([C:3]([H:12])([H:13])[H:14])([N:4]([C:5]([H:15])([H:16])[H:17])[C:6](=[O:7])[H:18])[H:11])([H:8])([H:9])[H:10]>>[C:1]([C:2]([C:3]([H:12])([H:13])[H:14])([N+:4]([C-:5]([H:15])[H:16])([C:6](=[O:7])[H:18])[H:17])[H:11])([H:8])([H:9])[H:10]"
C       -0.88838249      -1.18347316      -0.78710293
C       -0.64347675       0.24274514      -0.32124816
C       -1.52137083       0.62860496       0.85836793
N        0.78305861       0.46196282       0.02109856
C        1.48806355      -0.47325486       1.00158361
C        1.64885006       0.85455311      -1.01717029
O        1.35021994       0.90227689      -2.17759564
H       -0.68946973      -1.89665207       0.01451228
H       -1.93186795      -1.29277191      -1.08547877
H       -0.26291920      -1.43309324      -1.64385061
H       -0.85638748       0.92050600      -1.15071005
H       -1.34332949       1.65960584       1.17029053
H       -2.57202332       0.54353845       0.57784654
H       -1.35342872      -0.03546094       1.70826496
H        1.00257641      -0.57866554       1.96518732
H        1.82675518      -1.37082452       0.49041990
H        1.31000543       0.95900477       1.00761024
H        2.65312679       1.09139823      -0.63202542
18
Frame=9 idx=010237 GeodesicLength=0.5863656968066503 rxn_smarts="[C:1]([C:2]([C:3]([H:12])([H:13])[H:14])([N:4]([C:5]([H:15])([H:16])[H:17])[C:6](=[O:7])[H:18])[H:11])([H:8])([H:9])[H:10]>>[C:1]([C:2]([C:3]([H:12])([H:13])[H:14])([N+:4]([C-:5]([H:15])[H:16])([C:6](=[O:7])[H:18])[H:17])[H:11])([H:8])([H:9])[H:10]"
C       -0.89118818      -1.18843712      -0.78255606
C       -0.64372134       0.23963015      -0.32334649
C       -1.52361350       0.63263641       0.85257755
N        0.78182462       0.46100795       0.02195796
C        1.47738693      -0.48336897       0.98657228
C        1.64775036       0.86455030      -1.01116383
O        1.35420528       0.91649598      -2.17319076
H       -0.70116551      -1.89809600       0.02426098
H       -1.93304775      -1.29474115      -1.08764007
H       -0.26086735      -1.44598779      -1.63337016
H       -0.85547035       0.91309936      -1.15657120
H       -1.34958342       1.66705371       1.15541701
H       -2.57407511       0.54126032       0.57316751
H       -1.35320856      -0.02399744       1.70785793
H        1.03913118      -0.57769877       1.97352377
H        1.81199696      -1.37901843       0.46970066
H        1.32405277       0.94937453       1.02524705
H        2.64959296       1.10623696      -0.62244412
18
Frame=10 idx=010237 GeodesicLength=0.6513975448086072 rxn_smarts="[C:1]([C:2]([C:3]([H:12])([H:13])[H:14])([N:4]([C:5]([H:15])([H:16])[H:17])[C:6](=[O:7])[H:18])[H:11])([H:8])([H:9])[H:10]>>[C:1]([C:2]([C:3]([H:12])([H:13])[H:14])([N+:4]([C-:5]([H:15])[H:16])([C:6](=[O:7])[H:18])[H:17])[H:11])([H:8])([H:9])[H:10]"
C       -0.89417175      -1.19343357      -0.77790736
C       -0.64415607       0.23651664      -0.32556775
C       -1.52602664       0.63681350       0.84656581
N        0.78035871       0.46001548       0.02283067
C        1.46629732      -0.49289143       0.97216245
C        1.64658227       0.87442159      -1.00487621
O        1.35824375       0.93083185      -2.16848829
H       -0.71285862      -1.89938311       0.03409161
H       -1.93436953      -1.29690798      -1.08959043
H       -0.25913343      -1.45895641      -1.62273360
H       -0.85455658       0.90558103      -1.16263788
H       -1.35591829       1.67456056       1.14018622
H       -2.57627818       0.53916729       0.56833099
H       -1.35319974      -0.01223690       1.70724207
H        1.07739043      -0.57797878       1.98027657
H        1.79752376      -1.38628952       0.44943739
H        1.33839591       0.93930590       1.04303780
H        2.64587668       1.12086386      -0.61236008
18
Frame=11 idx=010237 GeodesicLength=0.7164261324886817 rxn_smarts="[C:1]([C:2]([C:3]([H:12])([H:13])[H:14])([N:4]([C:5]([H:15])([H:16])[H:17])[C:6](=[O:7])[H:18])[H:11])([H:8])([H:9])[H:10]>>[C:1]([C:2]([C:3]([H:12])([H:13])[H:14])([N+:4]([C-:5]([H:15])[H:16])([C:6](=[O:7])[H:18])[H:17])[H:11])([H:8])([H:9])[H:10]"
C       -0.89732340      -1.19847193      -0.77313255
C       -0.64477880       0.23340059      -0.32790610
C       -1.52862769       0.64115295       0.84032082
N        0.77865950       0.45898293       0.02373338
C        1.45482470      -0.50183553       0.95835875
C        1.64533682       0.88419226      -0.99828239
O        1.36233167       0.94528863      -2.16345760
H       -0.72455070      -1.90050828       0.04404500
H       -1.93581822      -1.29929117      -1.09131936
H       -0.25769633      -1.47201955      -1.61190657
H       -0.85363744       0.89793667      -1.16891623
H       -1.36235335       1.68214828       1.12457166
H       -2.57864784       0.53727291       0.56331536
H       -1.35343350      -0.00015210       1.70641793
H        1.11737620      -0.57954692       1.98529636
H        1.78331049      -1.39264502       0.42962296
H        1.35305888       0.92877504       1.06099067
H        2.64196901       1.13532025      -0.60175210
18
Frame=12 idx=010237 GeodesicLength=0.7814536583543723 rxn_smarts="[C:1]([C:2]([C:3]([H:12])([H:13])[H:14])([N:4]([C:5]([H:15])([H:16])[H:17])[C:6](=[O:7])[H:18])[H:11])([H:8])([H:9])[H:10]>>[C:1]([C:2]([C:3]([H:12])([H:13])[H:14])([N+:4]([C-:5]([H:15])[H:16])([C:6](=[O:7])[H:18])[H:17])[H:11])([H:8])([H:9])[H:10]"
C       -0.90063533      -1.20355985      -0.76820470
C       -0.64558710       0.23027763      -0.33035607
C       -1.53142812       0.64567104       0.83382486
N        0.77672526       0.45791371       0.02467904
C        1.44300052      -0.51021183       0.94516746
C        1.64400509       0.89389161      -0.99136337
O        1.36647064       0.95986915      -2.15807931
H       -0.73623633      -1.90146719       0.05416147
H       -1.93738766      -1.30190792      -1.09280328
H       -0.25654480      -1.48519156      -1.60085695
H       -0.85270487       0.89014385      -1.17541268
H       -1.36889901       1.68983450       1.10854122
H       -2.58119391       0.53559248       0.55809312
H       -1.35393439       0.01228936       1.70537763
H        1.15909084      -0.58246238       1.98846428
H        1.76935107      -1.39810547       0.41024043
H        1.36805663       0.91776189       1.07912355
H        2.63785145       1.14966096      -0.59059671
18
Frame=13 idx=010237 GeodesicLength=0.8464649078140766 rxn_smarts="[C:1]([C:2]([C:3]([H:12])([H:13])[H:14])([N:4]([C:5]([H:15])([H:16])[H:17])[C:6](=[O:7])[H:18])[H:11])([H:8])([H:9])[H:10]>>[C:1]([C:2]([C:3]([H:12])([H:13])[H:14])([N+:4]([C-:5]([H:15])[H:16])([C:6](=[O:7])[H:18])[H:17])[H:11])([H:8])([H:9])[H:10]"
C       -0.90409955      -1.20870730      -0.76309438
C       -0.64657466       0.22714335      -0.33291174
C       -1.53443326       0.65038558       0.82706037
N        0.77455569       0.45680920       0.02568007
C        1.43086508      -0.51803515       0.93259573
C        1.64257500       0.90354968      -0.98409682
O        1.37066250       0.97456860      -2.15232929
H       -0.74791320      -1.90225877       0.06448388
H       -1.93907115      -1.30477881      -1.09401591
H       -0.25566867      -1.49848883      -1.58955103
H       -0.85174348       0.88218239      -1.18213054
H       -1.37555830       1.69764118       1.09206274
H       -2.58391641       0.53414283       0.55263611
H       -1.35472437       0.02511873       1.70411059
H        1.20251672      -0.58678401       1.98963561
H        1.75563950      -1.40268670       0.39127383
H        1.38339364       0.90624455       1.09745818
H        2.63349493       1.16395350      -0.57886740
18
Frame=14 idx=010237 GeodesicLength=0.9114522959130145 rxn_smarts="[C:1]([C:2]([C:3]([H:12])([H:13])[H:14])([N:4]([C:5]([H:15])([H:16])[H:17])[C:6](=[O:7])[H:18])[H:11])([H:8])([H:9])[H:10]>>[C:1]([C:2]([C:3]([H:12])([H:13])[H:14])([N+:4]([C-:5]([H:15])[H:16])([C:6](=[O:7])[H:18])[H:17])[H:11])([H:8])([H:9])[H:10]"
C       -0.90770732      -1.21391988      -0.75777388
C       -0.64774049       0.22399317      -0.33556704
C       -1.53765940       0.65531005       0.82000948
N        0.77214685       0.45567741       0.02675538
C        1.41843312      -0.52531414       0.92066512
C        1.64103983       0.91319454      -0.97645567
O        1.37491268       0.98939541      -2.14618266
H       -0.75957923      -1.90287335       0.07505349
H       -1.94085908      -1.30791766      -1.09493792
H       -0.25505031      -1.51192639      -1.57794845
H       -0.85074462       0.87402756      -1.18907581
H       -1.38235150       1.70558139       1.07509766
H       -2.58683181       0.53293154       0.54691949
H       -1.35582461       0.03837049       1.70261081
H        1.24768686      -0.59256289       1.98863165
H        1.74215296      -1.40639436       0.37272362
H        1.39909084       0.89419269       1.11600620
H        2.62888524       1.17823443      -0.56653147
18
Frame=15 idx=010237 GeodesicLength=0.976404608833256 rxn_smarts="[C:1]([C:2]([C:3]([H:12])([H:13])[H:14])([N:4]([C:5]([H:15])([H:16])[H:17])[C:6](=[O:7])[H:18])[H:11])([H:8])([H:9])[H:10]>>[C:1]([C:2]([C:3]([H:12])([H:13])[H:14])([N+:4]([C-:5]([H:15])[H:16])([C:6](=[O:7])[H:18])[H:17])[H:11])([H:8])([H:9])[H:10]"
C       -0.91145144      -1.21920420      -0.75221523
C       -0.64907923       0.22082092      -0.33831473
C       -1.54111309       0.66045411       0.81265324
N        0.76949719       0.45452096       0.02792115
C        1.40572963      -0.53206292       0.90939927
C        1.63939109       0.92285116      -0.96841152
O        1.37922637       1.00435040      -2.13960963
H       -0.77123282      -1.90330488       0.08590733
H       -1.94274481      -1.31134021      -1.09554479
H       -0.25468135      -1.52551514      -1.56601433
H       -0.84969180       0.86565570      -1.19624805
H       -1.38928417       1.71366414       1.05761248
H       -2.58994378       0.53196628       0.54091616
H       -1.35725320       0.05207046       1.70086472
H        1.29460419      -0.59981899       1.98526118
H        1.72886706      -1.40923835       0.35458898
H        1.41516180       0.88158021       1.13478491
H        2.62399836       1.19255036      -0.55355113
18
Frame=16 idx=010237 GeodesicLength=1.0413134617389983 rxn_smarts="[C:1]([C:2]([C:3]([H:12])([H:13])[H:14])([N:4]([C:5]([H:15])([H:16])[H:17])[C:6](=[O:7])[H:18])[H:11])([H:8])([H:9])[H:10]>>[C:1]([C:2]([C:3]([H:12])([H:13])[H:14])([N+:4]([C-:5]([H:15])[H:16])([C:6](=[O:7])[H:18])[H:17])[H:11])([H:8])([H:9])[H:10]"
C       -0.91532321      -1.22456896      -0.74638757
C       -0.65058650       0.21761989      -0.34114517
C       -1.54480816       0.66583141       0.80497536
N        0.76660397       0.45334152       0.02920225
C        1.39277173      -0.53829539       0.89882993
C        1.63762158       0.93254670      -0.95992523
O        1.38361869       1.01942560      -2.13257474
H       -0.78287427      -1.90354918       0.09708834
H       -1.94471829      -1.31506449      -1.09581371
H       -0.25454748      -1.53927093      -1.55370879
H       -0.84856729       0.85704245      -1.20364947
H       -1.39637320       1.72190386       1.03957068
H       -2.59326351       0.53125757       0.53459871
H       -1.35903424       0.06625124       1.69886680
H        1.34329038      -0.60856920       1.97927389
H        1.71575722      -1.41121872       0.33686014
H        1.43161834       0.86837416       1.15381459
H        2.61881425       1.20694246      -0.53987602
