12
Frame=0 idx=008054 GeodesicLength=0.0 rxn_smarts="[N:1]#[C:2][C@@:3]1([H:8])[C:4]([H:9])([H:10])[N:5]=[C:6]([H:11])[N:7]1[H:12]>>[N:1]#[C:2][C:4](/[N:5]=[C:6](\[N+:7](=[C-:3][H:8])[H:12])[H:11])([H:9])[H:10]"
N        1.91021328      -1.57762606       0.79729950
C        1.12949058      -0.93387561       0.21486360
C        1.12222783       0.64323131      -0.64890948
C       -0.43998538      -1.16501952      -0.08098071
N       -1.37240018      -0.11873718       0.13728051
C       -1.03073542       1.09009346       0.22165396
N        0.32669177       1.45229078       0.08200440
H        0.55350888       0.35624455      -1.54174688
H       -0.48824232      -1.51836661      -1.11047239
H       -0.69072825      -1.99028369       0.58186971
H       -1.75610691       1.86407580       0.45303329
H        0.73606611       1.89797281       0.89410451
12
Frame=1 idx=008054 GeodesicLength=0.06249060494695385 rxn_smarts="[N:1]#[C:2][C@@:3]1([H:8])[C:4]([H:9])([H:10])[N:5]=[C:6]([H:11])[N:7]1[H:12]>>[N:1]#[C:2][C:4](/[N:5]=[C:6](\[N+:7](=[C-:3][H:8])[H:12])[H:11])([H:9])[H:10]"
N        1.92127419      -1.56796775       0.82579878
C        1.13789399      -0.94068649       0.23193502
C        1.11300184       0.63190528      -0.65138343
C       -0.44129030      -1.15960182      -0.09047736
N       -1.37869931      -0.11887882       0.14527865
C       -1.03278742       1.08869891       0.22860369
N        0.32226661       1.45191908       0.07439109
H        0.56485332       0.34492411      -1.55566105
H       -0.49721349      -1.50654406      -1.12197634
H       -0.69545865      -1.99661586       0.55680568
H       -1.75147408       1.86262980       0.48051839
H        0.73763332       1.91021763       0.87616688
12
Frame=2 idx=008054 GeodesicLength=0.12496235336727188 rxn_smarts="[N:1]#[C:2][C@@:3]1([H:8])[C:4]([H:9])([H:10])[N:5]=[C:6]([H:11])[N:7]1[H:12]>>[N:1]#[C:2][C:4](/[N:5]=[C:6](\[N+:7](=[C-:3][H:8])[H:12])[H:11])([H:9])[H:10]"
N        1.93229376      -1.55757599       0.85419050
C        1.14601441      -0.94760316       0.24898684
C        1.10365851       0.62042700      -0.65368713
C       -0.44272501      -1.15415174      -0.10011781
N       -1.38499797      -0.11917903       0.15339542
C       -1.03484012       1.08714414       0.23578641
N        0.31768490       1.45137209       0.06676729
H        0.57703687       0.33355920      -1.56942166
H       -0.50688654      -1.49449808      -1.13357219
H       -0.69981344      -2.00248086       0.53176476
H       -1.74643713       1.86090923       0.50792161
H        0.73901175       1.92207720       0.85798597
12
Frame=3 idx=008054 GeodesicLength=0.18736718221941695 rxn_smarts="[N:1]#[C:2][C@@:3]1([H:8])[C:4]([H:9])([H:10])[N:5]=[C:6]([H:11])[N:7]1[H:12]>>[N:1]#[C:2][C:4](/[N:5]=[C:6](\[N+:7](=[C-:3][H:8])[H:12])[H:11])([H:9])[H:10]"
N        1.94336170      -1.54656020       0.88219369
C        1.15386482      -0.95462752       0.26602370
C        1.09417985       0.60883580      -0.65578800
C       -0.44429493      -1.14866468      -0.10984547
N       -1.39126602      -0.11965186       0.16176356
C       -1.03686072       1.08541226       0.24331901
N        0.31295130       1.45064295       0.05922898
H        0.59003536       0.32217873      -1.58293195
H       -0.51729941      -1.48215836      -1.14518913
H       -0.70377353      -2.00790993       0.50680370
H       -1.74109347       1.85900223       0.53474202
H        0.74019504       1.93350056       0.83967989
12
Frame=4 idx=008054 GeodesicLength=0.2497649570160036 rxn_smarts="[N:1]#[C:2][C@@:3]1([H:8])[C:4]([H:9])([H:10])[N:5]=[C:6]([H:11])[N:7]1[H:12]>>[N:1]#[C:2][C:4](/[N:5]=[C:6](\[N+:7](=[C-:3][H:8])[H:12])[H:11])([H:9])[H:10]"
N        1.95443686      -1.53482291       0.90994882
C        1.16141166      -0.96173992       0.28312929
C        1.08460120       0.59710480      -0.65772855
C       -0.44602733      -1.14314370      -0.11972305
N       -1.39753069      -0.12028203       0.17024810
C       -1.03888171       1.08352346       0.25104218
N        0.30804144       1.44974613       0.05163986
H        0.60399392       0.31066784      -1.59618826
H       -0.52840491      -1.46953990      -1.15688699
H       -0.70742738      -2.01290993       0.48187182
H       -1.73535625       1.85682581       0.56155438
H        0.74114320       1.94457037       0.82109240
12
Frame=5 idx=008054 GeodesicLength=0.31210686516239283 rxn_smarts="[N:1]#[C:2][C@@:3]1([H:8])[C:4]([H:9])([H:10])[N:5]=[C:6]([H:11])[N:7]1[H:12]>>[N:1]#[C:2][C:4](/[N:5]=[C:6](\[N+:7](=[C-:3][H:8])[H:12])[H:11])([H:9])[H:10]"
N        1.96561756      -1.52245772       0.93718758
C        1.16868977      -0.96895995       0.30026431
C        1.07490096       0.58527175      -0.65948707
C       -0.44791980      -1.13759132      -0.12968599
N       -1.40375312      -0.12109513       0.17903485
C       -1.04085746       1.08144768       0.25913493
N        0.30297660       1.44866279       0.04412547
H        0.61883295       0.29909542      -1.60908252
H       -0.54025253      -1.45657035      -1.16859937
H       -0.71074495      -2.01752065       0.45701743
H       -1.72938156       1.85452102       0.58770271
H        0.74189158       1.95519644       0.80238767
12
Frame=6 idx=008054 GeodesicLength=0.3744307693567324 rxn_smarts="[N:1]#[C:2][C@@:3]1([H:8])[C:4]([H:9])([H:10])[N:5]=[C:6]([H:11])[N:7]1[H:12]>>[N:1]#[C:2][C:4](/[N:5]=[C:6](\[N+:7](=[C-:3][H:8])[H:12])[H:11])([H:9])[H:10]"
N        1.97686941      -1.50942637       0.96397682
C        1.17564838      -0.97625007       0.31754280
C        1.06510934       0.57331849      -0.66108531
C       -0.45000359      -1.13200239      -0.13978453
N       -1.40995740      -0.12207556       0.18797886
C       -1.04281395       1.07920638       0.26744054
N        0.29772367       1.44741340       0.03655932
H        0.63470337       0.28733461      -1.62158429
H       -0.55278628      -1.44325239      -1.18035724
H       -0.71380673      -2.02174536       0.43218901
H       -1.72306122       1.85198081       0.61372906
H        0.74237500       1.96549844       0.78339496
12
Frame=7 idx=008054 GeodesicLength=0.43673804342077854 rxn_smarts="[N:1]#[C:2][C@@:3]1([H:8])[C:4]([H:9])([H:10])[N:5]=[C:6]([H:11])[N:7]1[H:12]>>[N:1]#[C:2][C:4](/[N:5]=[C:6](\[N+:7](=[C-:3][H:8])[H:12])[H:11])([H:9])[H:10]"
N        1.98809850      -1.49561966       0.99045144
C        1.18224567      -0.98359511       0.33501451
C        1.05523681       0.56123413      -0.66256737
C       -0.45229736      -1.12637495      -0.15006483
N       -1.41614939      -0.12322363       0.19699527
C       -1.04475300       1.07679378       0.27588809
N        0.29225569       1.44599827       0.02882964
H        0.65169605       0.27531415      -1.63366993
H       -0.56595663      -1.42955176      -1.19219416
H       -0.71667461      -2.02560236       0.40732010
H       -1.71626376       1.84909484       0.64004270
H        0.74256203       1.97553228       0.76395455
12
Frame=8 idx=008054 GeodesicLength=0.49903417549230217 rxn_smarts="[N:1]#[C:2][C@@:3]1([H:8])[C:4]([H:9])([H:10])[N:5]=[C:6]([H:11])[N:7]1[H:12]>>[N:1]#[C:2][C:4](/[N:5]=[C:6](\[N+:7](=[C-:3][H:8])[H:12])[H:11])([H:9])[H:10]"
N        1.99941820      -1.48114624       1.01635898
C        1.18850786      -0.99099189       0.35268358
C        1.04528240       0.54904691      -0.66391561
C       -0.45480908      -1.12070853      -0.16047999
N       -1.42232197      -0.12454074       0.20618119
C       -1.04666631       1.07421302       0.28455003
N        0.28658313       1.44441354       0.02102310
H        0.66977821       0.26304633      -1.64522867
H       -0.57978191      -1.41544640      -1.20406030
H       -0.71933664      -2.02911187       0.38245930
H       -1.70910817       1.84597884       0.66622992
H        0.74245428       1.98524703       0.74419847
12
Frame=9 idx=008054 GeodesicLength=0.5613118315426673 rxn_smarts="[N:1]#[C:2][C@@:3]1([H:8])[C:4]([H:9])([H:10])[N:5]=[C:6]([H:11])[N:7]1[H:12]>>[N:1]#[C:2][C:4](/[N:5]=[C:6](\[N+:7](=[C-:3][H:8])[H:12])[H:11])([H:9])[H:10]"
N        2.01073123      -1.46592512       1.04179956
C        1.19438434      -0.99841584       0.37061221
C        1.03525542       0.53674520      -0.66516876
C       -0.45755602      -1.11499630      -0.17107249
N       -1.42848602      -0.12602074       0.21543276
C       -1.04855826       1.07146533       0.29334337
N        0.28067583       1.44266316       0.01302420
H        0.68904259       0.25045155      -1.65620333
H       -0.59420792      -1.40091178      -1.21598129
H       -0.72183602      -2.03228046       0.35754338
H       -1.70145468       1.84251319       0.69271234
H        0.74200950       1.99471181       0.72395802
12
Frame=10 idx=008054 GeodesicLength=0.6235744986913818 rxn_smarts="[N:1]#[C:2][C@@:3]1([H:8])[C:4]([H:9])([H:10])[N:5]=[C:6]([H:11])[N:7]1[H:12]>>[N:1]#[C:2][C:4](/[N:5]=[C:6](\[N+:7](=[C-:3][H:8])[H:12])[H:11])([H:9])[H:10]"
N        2.02220528      -1.45008471       1.06647604
C        1.19991853      -1.00587635       0.38877668
C        1.02514350       0.52436963      -0.66630762
C       -0.46054854      -1.10923826      -0.18177789
N       -1.43461455      -0.12767961       0.22489577
C       -1.05039989       1.06853864       0.30239012
N        0.27455565       1.44073806       0.00497085
H        0.70939894       0.23758602      -1.66647855
H       -0.60926461      -1.38591124      -1.22788195
H       -0.72416464      -2.03513253       0.33263733
H       -1.69348513       1.83886692       0.71885362
H        0.74125546       2.00382344       0.70344560
12
Frame=11 idx=008054 GeodesicLength=0.68584438913632 rxn_smarts="[N:1]#[C:2][C@@:3]1([H:8])[C:4]([H:9])([H:10])[N:5]=[C:6]([H:11])[N:7]1[H:12]>>[N:1]#[C:2][C:4](/[N:5]=[C:6](\[N+:7](=[C-:3][H:8])[H:12])[H:11])([H:9])[H:10]"
N        2.03376271      -1.43355253       1.09046967
C        1.20505772      -1.01332210       0.40726848
C        1.01496718       0.51190206      -0.66736028
C       -0.46380716      -1.10342155      -0.19264496
N       -1.44073894      -0.12949141       0.23442337
C       -1.05222072       1.06544729       0.31156628
N        0.26817467       1.43863504      -0.00326531
H        0.73095551       0.22433548      -1.67598183
H       -0.62487473      -1.37044347      -1.23979584
H       -0.72637723      -2.03765994       0.30767571
H       -1.68501077       1.83491888       0.74517666
H        0.74011176       2.01265223       0.68246805
12
Frame=12 idx=008054 GeodesicLength=0.748124564618624 rxn_smarts="[N:1]#[C:2][C@@:3]1([H:8])[C:4]([H:9])([H:10])[N:5]=[C:6]([H:11])[N:7]1[H:12]>>[N:1]#[C:2][C:4](/[N:5]=[C:6](\[N+:7](=[C-:3][H:8])[H:12])[H:11])([H:9])[H:10]"
N        2.04520499      -1.41618737       1.11399080
C        1.20977334      -1.02074780       0.42609073
C        1.00473338       0.49933655      -0.66840369
C       -0.46734358      -1.09755295      -0.20372762
N       -1.44687816      -0.13145168       0.24389102
C       -1.05401368       1.06220139       0.32080020
N        0.26152221       1.43637630      -0.01180843
H        0.75373447       0.21065547      -1.68467282
H       -0.64097802      -1.35451749      -1.25176251
H       -0.72849543      -2.03987758       0.28259298
H       -1.67584053       1.83048754       0.77214817
H        0.73858102       2.02127760       0.66086116
12
Frame=13 idx=008054 GeodesicLength=0.8103859178206693 rxn_smarts="[N:1]#[C:2][C@@:3]1([H:8])[C:4]([H:9])([H:10])[N:5]=[C:6]([H:11])[N:7]1[H:12]>>[N:1]#[C:2][C:4](/[N:5]=[C:6](\[N+:7](=[C-:3][H:8])[H:12])[H:11])([H:9])[H:10]"
N        2.05664929      -1.39813276       1.13676543
C        1.21406504      -1.02810139       0.44528724
C        0.99443453       0.48670471      -0.66941928
C       -0.47116346      -1.09160581      -0.21497567
N       -1.45301881      -0.13355113       0.25333310
C       -1.05577341       1.05879202       0.33010115
N        0.25459009       1.43393392      -0.02058506
H        0.77768574       0.19656762      -1.69242440
H       -0.65754306      -1.33811709      -1.26372344
H       -0.73051720      -2.04175360       0.25746621
H       -1.66602307       1.82565193       0.79942929
H        0.73661431       2.02961156       0.63874542
12
Frame=14 idx=008054 GeodesicLength=0.8727443411772684 rxn_smarts="[N:1]#[C:2][C@@:3]1([H:8])[C:4]([H:9])([H:10])[N:5]=[C:6]([H:11])[N:7]1[H:12]>>[N:1]#[C:2][C:4](/[N:5]=[C:6](\[N+:7](=[C-:3][H:8])[H:12])[H:11])([H:9])[H:10]"
N        2.06813739      -1.37941608       1.15876814
C        1.21798434      -1.03539165       0.46485127
C        0.98410005       0.47401963      -0.67043230
C       -0.47528812      -1.08561114      -0.22640107
N       -1.45921307      -0.13577786       0.26271692
C       -1.05752733       1.05526271       0.33946730
N        0.24738236       1.43134933      -0.02958757
H        0.80277920       0.18204971      -1.69915091
H       -0.67455089      -1.32130528      -1.27568289
H       -0.73246770      -2.04334598       0.23227537
H       -1.65557051       1.82045871       0.82703052
H        0.73423426       2.03770791       0.61614523
12
Frame=15 idx=008054 GeodesicLength=0.9349902360130947 rxn_smarts="[N:1]#[C:2][C@@:3]1([H:8])[C:4]([H:9])([H:10])[N:5]=[C:6]([H:11])[N:7]1[H:12]>>[N:1]#[C:2][C:4](/[N:5]=[C:6](\[N+:7](=[C-:3][H:8])[H:12])[H:11])([H:9])[H:10]"
N        2.07956909      -1.36006293       1.17986027
C        1.22144899      -1.04254733       0.48481583
C        0.97367665       0.46130153      -0.67145309
C       -0.47969759      -1.07950520      -0.23796080
N       -1.46537635      -0.13814006       0.27205616
C       -1.05921013       1.05154732       0.34887904
N        0.23988498       1.42855317      -0.03881872
H        0.82893688       0.16717339      -1.70473252
H       -0.69191479      -1.30398131      -1.28756561
H       -0.73431791      -2.04456973       0.20707314
H       -1.64438855       1.81480838       0.85479084
H        0.73138874       2.04542277       0.59305547
12
Frame=16 idx=008054 GeodesicLength=0.9972842957255634 rxn_smarts="[N:1]#[C:2][C@@:3]1([H:8])[C:4]([H:9])([H:10])[N:5]=[C:6]([H:11])[N:7]1[H:12]>>[N:1]#[C:2][C:4](/[N:5]=[C:6](\[N+:7](=[C-:3][H:8])[H:12])[H:11])([H:9])[H:10]"
N        2.09076151      -1.33995505       1.20034943
C        1.22451236      -1.04955378       0.50516417
C        0.96320699       0.44854610      -0.67257026
C       -0.48441126      -1.07332135      -0.24974029
N       -1.47160414      -0.14058807       0.28111642
C       -1.06086598       1.04771343       0.35822529
N        0.23207638       1.42560039      -0.04840860
H        0.85612726       0.15186790      -1.70914005
H       -0.70957693      -1.28627457      -1.29945921
H       -0.73609054      -2.04546719       0.18179963
H       -1.63219628       1.80852969       0.88335570
H        0.72806062       2.05290251       0.56930777
