12
Frame=0 idx=001900 GeodesicLength=0.0 rxn_smarts="[C:1]([C:2]([C:3](=[O:4])[N:5]([H:11])[H:12])([H:9])[H:10])([H:6])([H:7])[H:8]>>[C:1]([O:4][C:3](=[C:2]([H:9])[H:10])[N:5]([H:11])[H:12])([H:6])([H:7])[H:8]"
C       -1.62629331       0.78289844       0.21644192
C       -0.13678917      -1.02923796       0.28932127
C        0.71643439       0.01997036      -0.10201219
O        0.31208915       1.21053216       0.05387055
N        1.92330605      -0.16229384      -0.68003635
H       -2.21628117       0.07166758       0.77508720
H       -1.62172766       1.76861477       0.66160011
H       -1.80638230       0.75938023      -0.84756947
H        0.01885109      -2.03075962      -0.10267094
H       -0.39531885      -0.99785066       1.34131463
H        2.40875959      -1.03286521      -0.58895859
H        2.42335221       0.63994375      -1.01638818
12
Frame=1 idx=001900 GeodesicLength=0.03676932493406667 rxn_smarts="[C:1]([C:2]([C:3](=[O:4])[N:5]([H:11])[H:12])([H:9])[H:10])([H:6])([H:7])[H:8]>>[C:1]([O:4][C:3](=[C:2]([H:9])[H:10])[N:5]([H:11])[H:12])([H:6])([H:7])[H:8]"
C       -1.61527926       0.77276288       0.21712698
C       -0.13996929      -1.01916401       0.29042776
C        0.72496057       0.02717026      -0.08588908
O        0.31360715       1.21880905       0.04724325
N        1.92183694      -0.16242879      -0.68422481
H       -2.21327414       0.07982315       0.79164799
H       -1.62903226       1.76694476       0.64412012
H       -1.80769827       0.73512756      -0.84502541
H        0.01108423      -2.01545433      -0.11616203
H       -0.39735379      -1.00432326       1.34299808
H        2.39620425      -1.04041790      -0.60509531
H        2.43491388       0.64115063      -0.99716756
12
Frame=2 idx=001900 GeodesicLength=0.07351449636235845 rxn_smarts="[C:1]([C:2]([C:3](=[O:4])[N:5]([H:11])[H:12])([H:9])[H:10])([H:6])([H:7])[H:8]>>[C:1]([O:4][C:3](=[C:2]([H:9])[H:10])[N:5]([H:11])[H:12])([H:6])([H:7])[H:8]"
C       -1.60443551       0.76298096       0.21812968
C       -0.14303170      -1.00922795       0.29115311
C        0.73293461       0.03426106      -0.07093803
O        0.31488228       1.22665699       0.03987521
N        1.92037694      -0.16237927      -0.68791926
H       -2.20982508       0.08817701       0.80790431
H       -1.63601227       1.76481617       0.62721057
H       -1.80946190       0.71148355      -0.84180109
H        0.00360828      -2.00011354      -0.12977237
H       -0.39921954      -1.01090986       1.34405488
H        2.38395080      -1.04716432      -0.61929522
H        2.44623309       0.64141920      -0.97860178
12
Frame=3 idx=001900 GeodesicLength=0.1102410733881518 rxn_smarts="[C:1]([C:2]([C:3](=[O:4])[N:5]([H:11])[H:12])([H:9])[H:10])([H:6])([H:7])[H:8]>>[C:1]([O:4][C:3](=[C:2]([H:9])[H:10])[N:5]([H:11])[H:12])([H:6])([H:7])[H:8]"
C       -1.59375024       0.75357262       0.21943757
C       -0.14605019      -0.99945329       0.29141380
C        0.74031659       0.04121897      -0.05724268
O        0.31594459       1.23407633       0.03183872
N        1.91908313      -0.16220168      -0.69090451
H       -2.20595048       0.09669569       0.82383935
H       -1.64263203       1.76224468       0.61100650
H       -1.81167919       0.68856762      -0.83790128
H       -0.00359334      -1.98476944      -0.14354385
H       -0.40094716      -1.01763825       1.34439983
H        2.37224505      -1.05316260      -0.63119893
H        2.45701327       0.64084935      -0.96114452
12
Frame=4 idx=001900 GeodesicLength=0.14693836809642516 rxn_smarts="[C:1]([C:2]([C:3](=[O:4])[N:5]([H:11])[H:12])([H:9])[H:10])([H:6])([H:7])[H:8]>>[C:1]([O:4][C:3](=[C:2]([H:9])[H:10])[N:5]([H:11])[H:12])([H:6])([H:7])[H:8]"
C       -1.58331207       0.74452435       0.22109942
C       -0.14905635      -0.98982405       0.29114125
C        0.74699654       0.04808452      -0.04512121
O        0.31664937       1.24112357       0.02266656
N        1.91804030      -0.16194612      -0.69332066
H       -2.20155606       0.10544260       0.83983590
H       -1.64895724       1.75935167       0.59538068
H       -1.81469570       0.66613555      -0.83321162
H       -0.01058785      -1.96945061      -0.15752027
H       -0.40236347      -1.02439486       1.34403077
H        2.36100396      -1.05865068      -0.64118567
H        2.46783857       0.63960406      -0.94379516
12
Frame=5 idx=001900 GeodesicLength=0.1835976248798668 rxn_smarts="[C:1]([C:2]([C:3](=[O:4])[N:5]([H:11])[H:12])([H:9])[H:10])([H:6])([H:7])[H:8]>>[C:1]([O:4][C:3](=[C:2]([H:9])[H:10])[N:5]([H:11])[H:12])([H:6])([H:7])[H:8]"
C       -1.57306365       0.73584500       0.22301992
C       -0.15206194      -0.98036790       0.29043465
C        0.75309797       0.05484964      -0.03419898
O        0.31710288       1.24781206       0.01275218
N        1.91725674      -0.16164822      -0.69513139
H       -2.19674242       0.11435553       0.85563674
H       -1.65501174       1.75612996       0.58040838
H       -1.81822286       0.64432781      -0.82787034
H       -0.01732770      -1.95418337      -0.17161110
H       -0.40367066      -1.03126221       1.34300265
H        2.35035412      -1.06365456      -0.64925319
H        2.47828926       0.63779627      -0.92718954
12
Frame=6 idx=001900 GeodesicLength=0.22021763277636594 rxn_smarts="[C:1]([C:2]([C:3](=[O:4])[N:5]([H:11])[H:12])([H:9])[H:10])([H:6])([H:7])[H:8]>>[C:1]([O:4][C:3](=[C:2]([H:9])[H:10])[N:5]([H:11])[H:12])([H:6])([H:7])[H:8]"
C       -1.56296059       0.72752838       0.22512649
C       -0.15507011      -0.97109533       0.28938611
C        0.75870908       0.06150846      -0.02420319
O        0.31739123       1.25415264       0.00240350
N        1.91668594      -0.16135196      -0.69639837
H       -2.19159937       0.12336569       0.87103385
H       -1.66080364       1.75257761       0.56614076
H       -1.82203564       0.62323267      -0.82199393
H       -0.02378513      -1.93898816      -0.18571876
H       -0.40500147      -1.03826720       1.34137544
H        2.34035811      -1.06821212      -0.65544920
H        2.48811159       0.63554932      -0.91170268
12
Frame=7 idx=001900 GeodesicLength=0.25678852849209133 rxn_smarts="[C:1]([C:2]([C:3](=[O:4])[N:5]([H:11])[H:12])([H:9])[H:10])([H:6])([H:7])[H:8]>>[C:1]([O:4][C:3](=[C:2]([H:9])[H:10])[N:5]([H:11])[H:12])([H:6])([H:7])[H:8]"
C       -1.55296361       0.71955894       0.22734039
C       -0.15806645      -0.96201772       0.28812121
C        0.76389927       0.06803903      -0.01495281
O        0.31758256       1.26014824      -0.00810592
N        1.91624548      -0.16107307      -0.69724046
H       -2.18620461       0.13240519       0.88587147
H       -1.66634924       1.74871353       0.55255165
H       -1.82593194       0.60287895      -0.81572151
H       -0.02994249      -1.92390796      -0.19967783
H       -0.40642016      -1.04537959       1.33926191
H        2.33093644      -1.07238226      -0.66008464
H        2.49721476       0.63301671      -0.89736346
12
Frame=8 idx=001900 GeodesicLength=0.29331962475736034 rxn_smarts="[C:1]([C:2]([C:3](=[O:4])[N:5]([H:11])[H:12])([H:9])[H:10])([H:6])([H:7])[H:8]>>[C:1]([O:4][C:3](=[C:2]([H:9])[H:10])[N:5]([H:11])[H:12])([H:6])([H:7])[H:8]"
C       -1.54308983       0.71190686       0.22964810
C       -0.16103428      -0.95311004       0.28667359
C        0.76871121       0.07447185      -0.00633968
O        0.31766180       1.26583620      -0.01883179
N        1.91594136      -0.16081964      -0.69770151
H       -2.18055787       0.14149757       0.90024038
H       -1.67170002       1.74457596       0.53953980
H       -1.82994808       0.58313931      -0.80904760
H       -0.03581168      -1.90890917      -0.21350944
H       -0.40793631      -1.05258540       1.33669145
H        2.32199123      -1.07627640      -0.66343552
H        2.50577248       0.63027291      -0.88392779
12
Frame=9 idx=001900 GeodesicLength=0.3298415376002195 rxn_smarts="[C:1]([C:2]([C:3](=[O:4])[N:5]([H:11])[H:12])([H:9])[H:10])([H:6])([H:7])[H:8]>>[C:1]([O:4][C:3](=[C:2]([H:9])[H:10])[N:5]([H:11])[H:12])([H:6])([H:7])[H:8]"
C       -1.53335604       0.70455624       0.23205289
C       -0.16399098      -0.94435911       0.28501174
C        0.77313957       0.08085633       0.00154091
O        0.31752821       1.27123442      -0.03008877
N        1.91580141      -0.16056709      -0.69784207
H       -2.17453793       0.15070064       0.91441406
H       -1.67688312       1.74022962       0.52696197
H       -1.83426733       0.56381391      -0.80190700
H       -0.04145885      -1.89398989      -0.22726844
H       -0.40945448      -1.05983995       1.33366516
H        2.31339891      -1.07994109      -0.66583502
H        2.51408062       0.62730596      -0.87070544
12
Frame=10 idx=001900 GeodesicLength=0.36633708181016816 rxn_smarts="[C:1]([C:2]([C:3](=[O:4])[N:5]([H:11])[H:12])([H:9])[H:10])([H:6])([H:7])[H:8]>>[C:1]([O:4][C:3](=[C:2]([H:9])[H:10])[N:5]([H:11])[H:12])([H:6])([H:7])[H:8]"
C       -1.52370129       0.69748714       0.23447906
C       -0.16690091      -0.93577666       0.28328354
C        0.77726849       0.08714037       0.00900042
O        0.31734383       1.27634449      -0.04131222
N        1.91569773      -0.16035616      -0.69773258
H       -2.16833557       0.15989735       0.92801050
H       -1.68188385       1.73563853       0.51490158
H       -1.83850554       0.54506621      -0.79449116
H       -0.04682598      -1.87917405      -0.24079295
H       -0.41112996      -1.06714743       1.33029098
H        2.30517516      -1.08338930      -0.66725997
H        2.52179790       0.62426951      -0.85837719
12
Frame=11 idx=001900 GeodesicLength=0.40280937788032345 rxn_smarts="[C:1]([C:2]([C:3](=[O:4])[N:5]([H:11])[H:12])([H:9])[H:10])([H:6])([H:7])[H:8]>>[C:1]([O:4][C:3](=[C:2]([H:9])[H:10])[N:5]([H:11])[H:12])([H:6])([H:7])[H:8]"
C       -1.51415398       0.69068875       0.23693028
C       -0.16977759      -0.92735085       0.28146323
C        0.78111710       0.09336316       0.01599598
O        0.31704850       1.28118945      -0.05273862
N        1.91568701      -0.16016751      -0.69738240
H       -2.16188789       0.16912609       0.94123882
H       -1.68674097       1.73084961       0.50326676
H       -1.84282476       0.52677046      -0.78675345
H       -0.05196020      -1.86444627      -0.25414382
H       -0.41290865      -1.07450225       1.32656557
H        2.29725535      -1.08666943      -0.66791250
H        2.52914609       0.62114879      -0.84652986
12
Frame=12 idx=001900 GeodesicLength=0.439277431973797 rxn_smarts="[C:1]([C:2]([C:3](=[O:4])[N:5]([H:11])[H:12])([H:9])[H:10])([H:6])([H:7])[H:8]>>[C:1]([O:4][C:3](=[C:2]([H:9])[H:10])[N:5]([H:11])[H:12])([H:6])([H:7])[H:8]"
C       -1.50472609       0.68414118       0.23940960
C       -0.17262105      -0.91906787       0.27954196
C        0.78468255       0.09954845       0.02250524
O        0.31659874       1.28577400      -0.06452890
N        1.91578594      -0.15997838      -0.69681897
H       -2.15513693       0.17843658       0.95425234
H       -1.69147952       1.72589642       0.49195724
H       -1.84731657       0.50878767      -0.77865075
H       -0.05688878      -1.84979290      -0.26735844
H       -0.41475853      -1.08188079       1.32249808
H        2.28953366      -1.08981519      -0.66802046
H        2.53632658       0.61795082      -0.83478695
12
Frame=13 idx=001900 GeodesicLength=0.47575075224007013 rxn_smarts="[C:1]([C:2]([C:3](=[O:4])[N:5]([H:11])[H:12])([H:9])[H:10])([H:6])([H:7])[H:8]>>[C:1]([O:4][C:3](=[C:2]([H:9])[H:10])[N:5]([H:11])[H:12])([H:6])([H:7])[H:8]"
C       -1.49543372       0.67783652       0.24193594
C       -0.17543253      -0.91090991       0.27745449
C        0.78793758       0.10573292       0.02843114
O        0.31588728       1.29008812      -0.07701201
N        1.91603732      -0.15976566      -0.69602780
H       -2.14793525       0.18792059       0.96728876
H       -1.69612104       1.72082070       0.48085757
H       -1.85216580       0.49096821      -0.77005658
H       -0.06164152      -1.83518015      -0.28053946
H       -0.41659408      -1.08927614       1.31803642
H        2.28195167      -1.09285462      -0.66775031
H        2.54351008       0.61461945      -0.82261815
12
Frame=14 idx=001900 GeodesicLength=0.5122193837583416 rxn_smarts="[C:1]([C:2]([C:3](=[O:4])[N:5]([H:11])[H:12])([H:9])[H:10])([H:6])([H:7])[H:8]>>[C:1]([O:4][C:3](=[C:2]([H:9])[H:10])[N:5]([H:11])[H:12])([H:6])([H:7])[H:8]"
C       -1.48620202       0.67176597       0.24443037
C       -0.17818837      -0.90289821       0.27533901
C        0.79097975       0.11185415       0.03410043
O        0.31511001       1.29414289      -0.08949088
N        1.91629535      -0.15960291      -0.69504965
H       -2.14052696       0.19740812       0.97988322
H       -1.70062854       1.71556911       0.47014226
H       -1.85692454       0.47356946      -0.76121502
H       -0.06615680      -1.82064168      -0.29352425
H       -0.41859373      -1.09670623       1.31326085
H        2.27460470      -1.09576913      -0.66681956
H        2.55023115       0.61130846      -0.81105678
12
Frame=15 idx=001900 GeodesicLength=0.5486833845572224 rxn_smarts="[C:1]([C:2]([C:3](=[O:4])[N:5]([H:11])[H:12])([H:9])[H:10])([H:6])([H:7])[H:8]>>[C:1]([O:4][C:3](=[C:2]([H:9])[H:10])[N:5]([H:11])[H:12])([H:6])([H:7])[H:8]"
C       -1.47707455       0.66592284       0.24692261
C       -0.18092779      -0.89503070       0.27312896
C        0.79380080       0.11794677       0.03941885
O        0.31420552       1.29793878      -0.10226470
N        1.91666245      -0.15946638      -0.69387639
H       -2.13282789       0.20697210       0.99229520
H       -1.70502606       1.71018744       0.45973226
H       -1.86180994       0.45646389      -0.75203585
H       -0.07051787      -1.80615752      -0.30644520
H       -0.42072105      -1.10419651       1.30815251
H        2.26752609      -1.09856609      -0.66528511
H        2.55671030       0.60798538      -0.79974314
12
Frame=16 idx=001900 GeodesicLength=0.5851782383756602 rxn_smarts="[C:1]([C:2]([C:3](=[O:4])[N:5]([H:11])[H:12])([H:9])[H:10])([H:6])([H:7])[H:8]>>[C:1]([O:4][C:3](=[C:2]([H:9])[H:10])[N:5]([H:11])[H:12])([H:6])([H:7])[H:8]"
C       -1.46804188       0.66029608       0.24941872
C       -0.18364677      -0.88729217       0.27076725
C        0.79637289       0.12403568       0.04432717
O        0.31310352       1.30145697      -0.11555378
N        1.91713744      -0.15934783      -0.69247443
H       -2.12470477       0.21667996       1.00467659
H       -1.70931277       1.70469452       0.44955970
H       -1.86692512       0.43953890      -0.74242281
H       -0.07473464      -1.79169669      -0.31938481
H       -0.42291739      -1.11173768       1.30264513
H        2.26063191      -1.10127066      -0.66320847
H        2.56303757       0.60464292      -0.78835027
