18
Frame=0 idx=004587 GeodesicLength=0.0 rxn_smarts="[C:1]([C:2]([C:3]([H:11])([H:12])[H:13])([C:4]([C:5]([O:6][H:18])([H:16])[H:17])([H:14])[H:15])[H:10])([H:7])([H:8])[H:9]>>[C:1]([C:2]([C:3]([H:11])([H:12])[H:13])([C:4]([C:5](=[O:6])[H:17])([H:14])[H:15])[H:10])([H:7])([H:8])[H:9].[H:16][H:18]"
C       -0.96148284       0.84643016      -0.96283590
C       -0.59956730      -0.43196331      -0.20935891
C       -1.77921792      -0.91245696       0.63121111
C        0.63469880      -0.26201632       0.67555241
C        1.94183436       0.02770216      -0.02493720
O        3.04666088       0.12181776       0.69385270
H       -0.18315029       1.14724256      -1.66737423
H       -1.12312332       1.67473024      -0.26653950
H       -1.88128493       0.71133886      -1.53537575
H       -0.37395582      -1.20950431      -0.94960353
H       -2.04748590      -0.16537772       1.38347877
H       -1.54497142      -1.84202444       1.15418298
H       -2.65874015      -1.08869944       0.00889375
H        0.47355917       0.48747933       1.45493898
H        0.85381060      -1.19964085       1.20073943
H        1.69924241       1.33759892      -0.54553195
H        2.00961493      -0.44077505      -1.02486391
H        2.49355866       1.19811834      -0.01642933
18
Frame=1 idx=004587 GeodesicLength=0.09806025104659441 rxn_smarts="[C:1]([C:2]([C:3]([H:11])([H:12])[H:13])([C:4]([C:5]([O:6][H:18])([H:16])[H:17])([H:14])[H:15])[H:10])([H:7])([H:8])[H:9]>>[C:1]([C:2]([C:3]([H:11])([H:12])[H:13])([C:4]([C:5](=[O:6])[H:17])([H:14])[H:15])[H:10])([H:7])([H:8])[H:9].[H:16][H:18]"
C       -0.96326050       0.84396653      -0.96261276
C       -0.60212833      -0.43435955      -0.20885805
C       -1.78191759      -0.91407227       0.63195944
C        0.63289364      -0.26448485       0.67526254
C        1.93693622       0.02711563      -0.02941135
O        3.04185146       0.11892599       0.68868457
H       -0.18461681       1.14355258      -1.66728485
H       -1.12437753       1.67230795      -0.26630463
H       -1.88282613       0.70962050      -1.53574132
H       -0.37725842      -1.21233205      -0.94893002
H       -2.04894069      -0.16710743       1.38477898
H       -1.54862043      -1.84438221       1.15404564
H       -2.66201312      -1.08912553       0.01008073
H        0.47249847       0.48728797       1.45265943
H        0.84871059      -1.20226124       1.20148890
H        1.71602995       1.36148264      -0.54385645
H        2.00740428      -0.45326314      -1.02354088
H        2.51963495       1.21712848      -0.01241991
18
Frame=2 idx=004587 GeodesicLength=0.19594508282730405 rxn_smarts="[C:1]([C:2]([C:3]([H:11])([H:12])[H:13])([C:4]([C:5]([O:6][H:18])([H:16])[H:17])([H:14])[H:15])[H:10])([H:7])([H:8])[H:9]>>[C:1]([C:2]([C:3]([H:11])([H:12])[H:13])([C:4]([C:5](=[O:6])[H:17])([H:14])[H:15])[H:10])([H:7])([H:8])[H:9].[H:16][H:18]"
C       -0.96507313       0.84146368      -0.96238068
C       -0.60481062      -0.43684802      -0.20838841
C       -1.78472842      -0.91569922       0.63273060
C        0.63102181      -0.26714815       0.67489233
C        1.93183913       0.02643708      -0.03417665
O        3.03678815       0.11696256       0.68322270
H       -0.18609179       1.13981085      -1.66716356
H       -1.12554622       1.66984506      -0.26603088
H       -1.88443154       0.70795154      -1.53606865
H       -0.38077791      -1.21525481      -0.94831261
H       -2.05042614      -0.16883267       1.38611225
H       -1.55241426      -1.84676355       1.15392066
H       -2.66543473      -1.08949104       0.01132594
H        0.47142335       0.48690589       1.45029614
H        0.84364567      -1.20506934       1.20209424
H        1.73332202       1.38548001      -0.54201908
H        2.00521021      -0.46645924      -1.02201985
H        2.54648442       1.23670935      -0.00803448
18
Frame=3 idx=004587 GeodesicLength=0.29376660381876096 rxn_smarts="[C:1]([C:2]([C:3]([H:11])([H:12])[H:13])([C:4]([C:5]([O:6][H:18])([H:16])[H:17])([H:14])[H:15])[H:10])([H:7])([H:8])[H:9]>>[C:1]([C:2]([C:3]([H:11])([H:12])[H:13])([C:4]([C:5](=[O:6])[H:17])([H:14])[H:15])[H:10])([H:7])([H:8])[H:9].[H:16][H:18]"
C       -0.96692724       0.83891534      -0.96214557
C       -0.60762286      -0.43943529      -0.20795538
C       -1.78765587      -0.91733437       0.63352980
C        0.62908231      -0.27001863       0.67442699
C        1.92653274       0.02562244      -0.03926955
O        3.03146696       0.11598024       0.67741812
H       -0.18758597       1.13600580      -1.66702302
H       -1.12662450       1.66733819      -0.26572505
H       -1.88611259       0.70632977      -1.53635657
H       -0.38453540      -1.21828287      -0.94775649
H       -2.05193741      -0.17054615       1.38748337
H       -1.55636032      -1.84916449       1.15381469
H       -2.66901572      -1.08978915       0.01264156
H        0.47034329       0.48632555       1.44783136
H        0.83861295      -1.20807399       1.20254982
H        1.75116644       1.40957609      -0.53999980
H        2.00303250      -0.48040616      -1.02029944
H        2.57414067       1.25695766      -0.00316486
18
Frame=4 idx=004587 GeodesicLength=0.3916165919672119 rxn_smarts="[C:1]([C:2]([C:3]([H:11])([H:12])[H:13])([C:4]([C:5]([O:6][H:18])([H:16])[H:17])([H:14])[H:15])[H:10])([H:7])([H:8])[H:9]>>[C:1]([C:2]([C:3]([H:11])([H:12])[H:13])([C:4]([C:5](=[O:6])[H:17])([H:14])[H:15])[H:10])([H:7])([H:8])[H:9].[H:16][H:18]"
C       -0.96882957       0.83631451      -0.96191520
C       -0.61057417      -0.44212849      -0.20756572
C       -1.79070422      -0.91897272       0.63436369
C        0.62707505      -0.27310943       0.67384761
C        1.92100490       0.02462323      -0.04473434
O        3.02588347       0.11603942       0.67120279
H       -0.18911135       1.13212345      -1.66687884
H       -1.12760535       1.66478391      -0.26539667
H       -1.88788186       0.70475293      -1.53660389
H       -0.38855503      -1.22142795      -0.94726726
H       -2.05346642      -0.17223804       1.38889785
H       -1.56046469      -1.85157921       1.15373638
H       -2.67276661      -1.09001118       0.01404313
H        0.46927109       0.48553941       1.44524290
H        0.83361134      -1.21128395       1.20284716
H        1.76962011       1.43375548      -0.53777701
H        2.00086889      -0.49516244      -1.01837568
H        2.60262445       1.27798110       0.00233310
18
Frame=5 idx=004587 GeodesicLength=0.4895282096962049 rxn_smarts="[C:1]([C:2]([C:3]([H:11])([H:12])[H:13])([C:4]([C:5]([O:6][H:18])([H:16])[H:17])([H:14])[H:15])[H:10])([H:7])([H:8])[H:9]>>[C:1]([C:2]([C:3]([H:11])([H:12])[H:13])([C:4]([C:5](=[O:6])[H:17])([H:14])[H:15])[H:10])([H:7])([H:8])[H:9].[H:16][H:18]"
C       -0.97078865       0.83365348      -0.96169908
C       -0.61367326      -0.44493398      -0.20722676
C       -1.79387639      -0.92060888       0.63523957
C        0.62500120      -0.27643054       0.67313339
C        1.91524374       0.02339318      -0.05061589
O        3.02003608       0.11719652       0.66450750
H       -0.19068423       1.12814817      -1.66675064
H       -1.12848324       1.66217917      -0.26505809
H       -1.88975487       0.70321648      -1.53680894
H       -0.39286013      -1.22470194      -0.94685056
H       -2.05500395      -0.17389745       1.39036139
H       -1.56473106      -1.85400081       1.15369576
H       -2.67669714      -1.09014988       0.01554769
H        0.46822042       0.48454356       1.44250604
H        0.82864041      -1.21470360       1.20297840
H        1.78873581       1.45800935      -0.53532484
H        1.99871671      -0.51078012      -1.01624756
H        2.63195854       1.29986729       0.00861263
18
Frame=6 idx=004587 GeodesicLength=0.5875865277165504 rxn_smarts="[C:1]([C:2]([C:3]([H:11])([H:12])[H:13])([C:4]([C:5]([O:6][H:18])([H:16])[H:17])([H:14])[H:15])[H:10])([H:7])([H:8])[H:9]>>[C:1]([C:2]([C:3]([H:11])([H:12])[H:13])([C:4]([C:5](=[O:6])[H:17])([H:14])[H:15])[H:10])([H:7])([H:8])[H:9].[H:16][H:18]"
C       -0.97280999       0.83092225      -0.96150669
C       -0.61693215      -0.44786245      -0.20694583
C       -1.79717916      -0.92223504       0.63616780
C        0.62286028      -0.28000179       0.67226169
C        1.90923422       0.02186677      -0.05697035
O        3.01391218       0.11953943       0.65723392
H       -0.19231450       1.12405998      -1.66665743
H       -1.12924526       1.65951868      -0.26472119
H       -1.89174446       0.70171832      -1.53697039
H       -0.39748292      -1.22812155      -0.94651202
H       -2.05653918      -0.17550966       1.39188234
H       -1.56917006      -1.85642042       1.15370652
H       -2.68082208      -1.09019117       0.01717704
H        0.46720882       0.48332686       1.43959228
H        0.82369997      -1.21834669       1.20293281
H        1.80859580       1.48230755      -0.53261797
H        1.99657705      -0.52732711      -1.01391759
H        2.66215142       1.32275602       0.01586505
18
Frame=7 idx=004587 GeodesicLength=0.6858014807896484 rxn_smarts="[C:1]([C:2]([C:3]([H:11])([H:12])[H:13])([C:4]([C:5]([O:6][H:18])([H:16])[H:17])([H:14])[H:15])[H:10])([H:7])([H:8])[H:9]>>[C:1]([C:2]([C:3]([H:11])([H:12])[H:13])([C:4]([C:5](=[O:6])[H:17])([H:14])[H:15])[H:10])([H:7])([H:8])[H:9].[H:16][H:18]"
C       -0.97490445       0.82811051      -0.96134972
C       -0.62036188      -0.45092188      -0.20673061
C       -1.80061600      -0.92384453       0.63715887
C        0.62065266      -0.28383417       0.67120861
C        1.90296259       0.01999172      -0.06385021
O        3.00749897       0.12313067       0.64928283
H       -0.19402052       1.11983862      -1.66662315
H       -1.12988559       1.65679771      -0.26440170
H       -1.89386941       0.70025179      -1.53708721
H       -0.40245097      -1.23170134      -0.94625674
H       -2.05806103      -0.17706118       1.39346871
H       -1.57378577      -1.85882906       1.15378323
H       -2.68515337      -1.09012652       0.01895339
H        0.46625264       0.48188753       1.43647115
H        0.81879043      -1.22221683       1.20270107
H        1.82927266       1.50663019      -0.52962689
H        1.99445091      -0.54485414      -1.01138312
H        2.69322814       1.34675092       0.02428150
18
Frame=8 idx=004587 GeodesicLength=0.7841638671949306 rxn_smarts="[C:1]([C:2]([C:3]([H:11])([H:12])[H:13])([C:4]([C:5]([O:6][H:18])([H:16])[H:17])([H:14])[H:15])[H:10])([H:7])([H:8])[H:9]>>[C:1]([C:2]([C:3]([H:11])([H:12])[H:13])([C:4]([C:5](=[O:6])[H:17])([H:14])[H:15])[H:10])([H:7])([H:8])[H:9].[H:16][H:18]"
C       -0.97708177       0.82520586      -0.96124332
C       -0.62397471      -0.45412209      -0.20659091
C       -1.80419023      -0.92542721       0.63822697
C        0.61838149      -0.28794179       0.66994370
C        1.89641460       0.01770632      -0.07132511
O        3.00077895       0.12806333       0.64052376
H       -0.19581983       1.11545908      -1.66667748
H       -1.13039323       1.65401103      -0.26411915
H       -1.89615026       0.69880938      -1.53715918
H       -0.40779845      -1.23545934      -0.94609108
H       -2.05955301      -0.17853277       1.39513162
H       -1.57858302      -1.86121380       1.15394550
H       -2.68970451      -1.08994227       0.02090642
H        0.46537542       0.48022244       1.43310430
H        0.81391650      -1.22631935       1.20226912
H        1.85085527       1.53096167      -0.52631108
H        1.99234186      -0.56343792      -1.00864396
H        2.72518494       1.37195742       0.03410987
18
Frame=9 idx=004587 GeodesicLength=0.8825827909025336 rxn_smarts="[C:1]([C:2]([C:3]([H:11])([H:12])[H:13])([C:4]([C:5]([O:6][H:18])([H:16])[H:17])([H:14])[H:15])[H:10])([H:7])([H:8])[H:9]>>[C:1]([C:2]([C:3]([H:11])([H:12])[H:13])([C:4]([C:5](=[O:6])[H:17])([H:14])[H:15])[H:10])([H:7])([H:8])[H:9].[H:16][H:18]"
C       -0.97936498       0.82219044      -0.96121666
C       -0.62777688      -0.45746540      -0.20653729
C       -1.80788344      -0.92696821       0.63939227
C        0.61605625      -0.29231154       0.66842446
C        1.88957366       0.01499522      -0.07946179
O        2.99365971       0.13429750       0.63066231
H       -0.19775464       1.11088211      -1.66687679
H       -1.13076648       1.65115439      -0.26392125
H       -1.89862195       0.69736651      -1.53718820
H       -0.41354481      -1.23941048      -0.94601029
H       -2.06098074      -0.17989618       1.39687749
H       -1.58353103      -1.86354950       1.15422687
H       -2.69446635      -1.08963470       0.02307902
H        0.46460575       0.47835602       1.42943637
H        0.80909735      -1.23062772       1.20161179
H        1.87345554       1.55528923      -0.52264551
H        1.99026259      -0.58311369      -1.00563357
H        2.75798046       1.39844601       0.04578077
18
Frame=10 idx=004587 GeodesicLength=0.9810500826202504 rxn_smarts="[C:1]([C:2]([C:3]([H:11])([H:12])[H:13])([C:4]([C:5]([O:6][H:18])([H:16])[H:17])([H:14])[H:15])[H:10])([H:7])([H:8])[H:9]>>[C:1]([C:2]([C:3]([H:11])([H:12])[H:13])([C:4]([C:5](=[O:6])[H:17])([H:14])[H:15])[H:10])([H:7])([H:8])[H:9].[H:16][H:18]"
C       -0.98176191       0.81905381      -0.96127731
C       -0.63178596      -0.46096588      -0.20657906
C       -1.81171198      -0.92846189       0.64066685
C        0.61367332      -0.29696978       0.66662692
C        1.88241574       0.01176763      -0.08833745
O        2.98617682       0.14205067       0.61970242
H       -0.19983470       1.10609522      -1.66723344
H       -1.13099995       1.64821940      -0.26381236
H       -1.90129994       0.69592034      -1.53717457
H       -0.41973404      -1.24357454      -0.94602644
H       -2.06233883      -0.18113967       1.39872101
H       -1.58865396      -1.86583108       1.15464128
H       -2.69946684      -1.08918816       0.02549524
H        0.46395922       0.47627369       1.42543532
H        0.80432871      -1.23516114       1.20072286
H        1.89714091       1.57963073      -0.51854390
H        1.98821920      -0.60395815      -1.00239685
H        2.79167420       1.42623882       0.05936948
18
Frame=11 idx=004587 GeodesicLength=1.079550349058634 rxn_smarts="[C:1]([C:2]([C:3]([H:11])([H:12])[H:13])([C:4]([C:5]([O:6][H:18])([H:16])[H:17])([H:14])[H:15])[H:10])([H:7])([H:8])[H:9]>>[C:1]([C:2]([C:3]([H:11])([H:12])[H:13])([C:4]([C:5](=[O:6])[H:17])([H:14])[H:15])[H:10])([H:7])([H:8])[H:9].[H:16][H:18]"
C       -0.98429062       0.81577932      -0.96144582
C       -0.63601278      -0.46463139      -0.20672513
C       -1.81567300      -0.92989847       0.64206708
C        0.61123600      -0.30191824       0.66451953
C        1.87492321       0.00797937      -0.09801407
O        2.97829675       0.15136738       0.60749437
H       -0.20208960       1.10107032      -1.66778333
H       -1.13109698       1.64519845      -0.26382306
H       -1.90421123       0.69445050      -1.53712251
H       -0.42639282      -1.24797002      -0.94614000
H       -2.06360811      -0.18224288       1.40067178
H       -1.59394501      -1.86804279       1.15521432
H       -2.70471321      -1.08859608       0.02818889
H        0.46345643       0.47398638       1.42105727
H        0.79961613      -1.23991008       1.19959049
H        1.92198513       1.60401952      -0.51393407
H        1.98622302      -0.62600594      -0.99891308
H        2.82629667       1.45536465       0.07509735
18
Frame=12 idx=004587 GeodesicLength=1.178036034188125 rxn_smarts="[C:1]([C:2]([C:3]([H:11])([H:12])[H:13])([C:4]([C:5]([O:6][H:18])([H:16])[H:17])([H:14])[H:15])[H:10])([H:7])([H:8])[H:9]>>[C:1]([C:2]([C:3]([H:11])([H:12])[H:13])([C:4]([C:5](=[O:6])[H:17])([H:14])[H:15])[H:10])([H:7])([H:8])[H:9].[H:16][H:18]"
C       -0.98697441       0.81234784      -0.96174833
C       -0.64046823      -0.46846853      -0.20698610
C       -1.81975945      -0.93126712       0.64361308
C        0.60874877      -0.30715051       0.66206442
C        1.86707526       0.00359623      -0.10856664
O        2.96997715       0.16231325       0.59386959
H       -0.20455621       1.09577660      -1.66857172
H       -1.13106575       1.64208326      -0.26399249
H       -1.90738879       0.69292950      -1.53703857
H       -0.43354795      -1.25261551      -0.94635001
H       -2.06476401      -0.18318262       1.40274038
H       -1.59938981      -1.87016519       1.15597870
H       -2.71020929      -1.08785520       0.03120107
H        0.46311968       0.47151474       1.41624944
H        0.79497115      -1.24485474       1.19819843
H        1.94806383       1.62850852      -0.50871167
H        1.98428982      -0.64928960      -0.99516403
H        2.86187825       1.48577909       0.09321448
18
Frame=13 idx=004587 GeodesicLength=1.276461417243335 rxn_smarts="[C:1]([C:2]([C:3]([H:11])([H:12])[H:13])([C:4]([C:5]([O:6][H:18])([H:16])[H:17])([H:14])[H:15])[H:10])([H:7])([H:8])[H:9]>>[C:1]([C:2]([C:3]([H:11])([H:12])[H:13])([C:4]([C:5](=[O:6])[H:17])([H:14])[H:15])[H:10])([H:7])([H:8])[H:9].[H:16][H:18]"
C       -0.98983869       0.80874073      -0.96221020
C       -0.64516095      -0.47248164      -0.20737082
C       -1.82396303      -0.93256075       0.64532224
C        0.60621534      -0.31265209       0.65922972
C        1.85885217      -0.00140431      -0.12005458
O        2.96117206       0.17493625       0.57867545
H       -0.20727273       1.09018844      -1.66963983
H       -1.13092493       1.63886479      -0.26435893
H       -1.91086556       0.69132556      -1.53693276
H       -0.44121698      -1.25752599      -0.94665370
H       -2.06578636      -0.18394119       1.40493517
H       -1.60496979      -1.87218234       1.15696373
H       -2.71595530      -1.08696933       0.03456697
H        0.46296451       0.46888723       1.41096376
H        0.79040345      -1.24996650       1.19653835
H        1.97543196       1.65317535      -0.50274954
H        1.98243835      -0.67380706      -0.99111756
H        2.89847647       1.51737286       0.11389254
18
Frame=14 idx=004587 GeodesicLength=1.3748371263728771 rxn_smarts="[C:1]([C:2]([C:3]([H:11])([H:12])[H:13])([C:4]([C:5]([O:6][H:18])([H:16])[H:17])([H:14])[H:15])[H:10])([H:7])([H:8])[H:9]>>[C:1]([C:2]([C:3]([H:11])([H:12])[H:13])([C:4]([C:5](=[O:6])[H:17])([H:14])[H:15])[H:10])([H:7])([H:8])[H:9].[H:16][H:18]"
C       -0.99291778       0.80493516      -0.96286238
C       -0.65009913      -0.47667341      -0.20788808
C       -1.82827215      -0.93377523       0.64721248
C        0.60363786      -0.31839510       0.65598386
C        1.85023522      -0.00702476      -0.13253343
O        2.95182242       0.18927205       0.56174840
H       -0.21028743       1.08427833      -1.67103553
H       -1.13070933       1.63553149      -0.26496983
H       -1.91468171       0.68959386      -1.53682090
H       -0.44940975      -1.26271632      -0.94704488
H       -2.06665715      -0.18450324       1.40726211
H       -1.61065797      -1.87407821       1.15820293
H       -2.72194707      -1.08595320       0.03832241
H        0.46300129       0.46614844       1.40514828
H        0.78592375      -1.25520017       1.19460715
H        2.00411375       1.67815534      -0.49587808
H        1.98068968      -0.69952847      -0.98673494
H        2.93621550       1.54993344       0.13728045
18
Frame=15 idx=004587 GeodesicLength=1.4731545442787704 rxn_smarts="[C:1]([C:2]([C:3]([H:11])([H:12])[H:13])([C:4]([C:5]([O:6][H:18])([H:16])[H:17])([H:14])[H:15])[H:10])([H:7])([H:8])[H:9]>>[C:1]([C:2]([C:3]([H:11])([H:12])[H:13])([C:4]([C:5](=[O:6])[H:17])([H:14])[H:15])[H:10])([H:7])([H:8])[H:9].[H:16][H:18]"
C       -0.99625070       0.80090709      -0.96373867
C       -0.65528785      -0.48104324      -0.20854544
C       -1.83267054      -0.93491082       0.64929978
C        0.60101689      -0.32433624       0.65229928
C        1.84120296      -0.01324239      -0.14604777
O        2.94185833       0.20535646       0.54293829
H       -0.21365360       1.07802343      -1.67280687
H       -1.13046910       1.63207084      -0.26587887
H       -1.91887865       0.68767821      -1.53672512
H       -0.45812385      -1.26819801      -0.94751226
H       -2.06736150      -0.18485783       1.40972229
H       -1.61641681      -1.87583849       1.15973053
H       -2.72817200      -1.08483427       0.04249952
H        0.46323057       0.46335816       1.39875244
H        0.78154430      -1.26049297       1.19240708
H        2.03410051       1.70363339      -0.48787033
H        1.97907092      -0.72638498      -0.98196923
H        2.97526013       1.58311166       0.16344534
18
Frame=16 idx=004587 GeodesicLength=1.5714297688166474 rxn_smarts="[C:1]([C:2]([C:3]([H:11])([H:12])[H:13])([C:4]([C:5]([O:6][H:18])([H:16])[H:17])([H:14])[H:15])[H:10])([H:7])([H:8])[H:9]>>[C:1]([C:2]([C:3]([H:11])([H:12])[H:13])([C:4]([C:5](=[O:6])[H:17])([H:14])[H:15])[H:10])([H:7])([H:8])[H:9].[H:16][H:18]"
C       -0.99988721       0.79663087      -0.96487406
C       -0.66073045      -0.48558650      -0.20934768
C       -1.83714084      -0.93597791       0.65159440
C        0.59834728      -0.33041197       0.64815976
C        1.83173528      -0.01999861      -0.16061449
O        2.93120061       0.22320570       0.52213570
H       -0.21743414       1.07140799      -1.67499900
H       -1.13028120       1.62846763      -0.26714245
H       -1.92350356       0.68550883      -1.53667503
H       -0.46733854      -1.27397664      -0.94804053
H       -2.06789780      -0.18500705       1.41230964
H       -1.62219954      -1.87745639       1.16157659
H       -2.73461093      -1.08366135       0.04711824
H        0.46363357       0.46059584       1.39173459
H        0.77727584      -1.26576053       1.18995340
H        2.06533461       1.72984711      -0.47845513
H        1.97761377      -0.75423387      -0.97676051
H        3.01588325       1.61640683       0.19232655
