13
Frame=0 idx=000468 GeodesicLength=0.0 rxn_smarts="[O:1]([C@@:2]1([H:8])[C:3]([H:9])([H:10])[C@@:4]2([H:11])[N:5]([H:12])[C@@:6]12[H:13])[H:7]>>[O:1]([C@@:2]1([H:8])[C:3]([H:9])([H:10])[C:4]([H:11])=[N:5][C:6]1([H:12])[H:13])[H:7]"
O        1.81896246       0.80756855       0.35335167
C        0.80863492       0.29272890      -0.45739091
C        0.31007265      -1.14628187      -0.17614900
C       -1.07684207      -0.56466959       0.16644371
N       -1.12507367       0.22454845       1.29251153
C       -0.60820070       0.85237001      -0.20867241
H        1.55908368       0.64826524       1.26662276
H        1.11897863       0.44326807      -1.49102240
H        0.79508576      -1.65998369       0.65314135
H        0.33151389      -1.77595203      -1.06611919
H       -1.99503172      -0.95484143      -0.27459350
H       -0.69666920       1.41522214       0.82639980
H       -1.24051464       1.41775719      -0.88452336
13
Frame=1 idx=000468 GeodesicLength=0.07471758618212691 rxn_smarts="[O:1]([C@@:2]1([H:8])[C:3]([H:9])([H:10])[C@@:4]2([H:11])[N:5]([H:12])[C@@:6]12[H:13])[H:7]>>[O:1]([C@@:2]1([H:8])[C:3]([H:9])([H:10])[C:4]([H:11])=[N:5][C:6]1([H:12])[H:13])[H:7]"
O        1.82084587       0.80068666       0.35802479
C        0.80869543       0.29299592      -0.45585535
C        0.30920918      -1.14684341      -0.17990349
C       -1.07755596      -0.57390391       0.16821300
N       -1.11935312       0.23434754       1.27876671
C       -0.60533177       0.85660263      -0.20639662
H        1.55635409       0.64649642       1.27079191
H        1.12248491       0.44523820      -1.48819183
H        0.79857682      -1.66567457       0.64364805
H        0.32714113      -1.77159906      -1.07355140
H       -1.99851042      -0.97563879      -0.25539438
H       -0.71104993       1.43837893       0.83045487
H       -1.23150623       1.41891344      -0.89060625
13
Frame=2 idx=000468 GeodesicLength=0.14940872994699916 rxn_smarts="[O:1]([C@@:2]1([H:8])[C:3]([H:9])([H:10])[C@@:4]2([H:11])[N:5]([H:12])[C@@:6]12[H:13])[H:7]>>[O:1]([C@@:2]1([H:8])[C:3]([H:9])([H:10])[C:4]([H:11])=[N:5][C:6]1([H:12])[H:13])[H:7]"
O        1.82270571       0.79368491       0.36280992
C        0.80889499       0.29322657      -0.45437231
C        0.30827583      -1.14734297      -0.18378456
C       -1.07818508      -0.58301858       0.17010004
N       -1.11377896       0.24416260       1.26471303
C       -0.60220223       0.86110244      -0.20433329
H        1.55348171       0.64468765       1.27499405
H        1.12628919       0.44712352      -1.48534722
H        0.80201842      -1.67137197       0.63386562
H        0.32251074      -1.76709427      -1.08111717
H       -2.00162812      -0.99672512      -0.23518265
H       -0.72617016       1.46121678       0.83437481
H       -1.22221204       1.42034843      -0.89672027
13
Frame=3 idx=000468 GeodesicLength=0.22408988037497227 rxn_smarts="[O:1]([C@@:2]1([H:8])[C:3]([H:9])([H:10])[C@@:4]2([H:11])[N:5]([H:12])[C@@:6]12[H:13])[H:7]>>[O:1]([C@@:2]1([H:8])[C:3]([H:9])([H:10])[C:4]([H:11])=[N:5][C:6]1([H:12])[H:13])[H:7]"
O        1.82456931       0.78656385       0.36771597
C        0.80924556       0.29343020      -0.45294829
C        0.30726577      -1.14778427      -0.18779146
C       -1.07874528      -0.59201598       0.17210051
N       -1.10837188       0.25397710       1.25034553
C       -0.59880971       0.86588528      -0.20250436
H        1.55048654       0.64283581       1.27924074
H        1.13041041       0.44893877      -1.48250002
H        0.80540735      -1.67709308       0.62380002
H        0.31760406      -1.76243833      -1.08881744
H       -2.00436821      -1.01810644      -0.21391036
H       -0.74205814       1.48370656       0.83816242
H       -1.21263579       1.42210052      -0.90289327
13
Frame=4 idx=000468 GeodesicLength=0.2987547912689638 rxn_smarts="[O:1]([C@@:2]1([H:8])[C:3]([H:9])([H:10])[C@@:4]2([H:11])[N:5]([H:12])[C@@:6]12[H:13])[H:7]>>[O:1]([C@@:2]1([H:8])[C:3]([H:9])([H:10])[C:4]([H:11])=[N:5][C:6]1([H:12])[H:13])[H:7]"
O        1.82642835       0.77930735       0.37274923
C        0.80974892       0.29360458      -0.45158466
C        0.30617301      -1.14816004      -0.19193221
C       -1.07923492      -0.60088376       0.17420872
N       -1.10314078       0.26379455       1.23564981
C       -0.59514262       0.87095833      -0.20092041
H        1.54735199       0.64093104       1.28353087
H        1.13486021       0.45067460      -1.47964503
H        0.80873153      -1.68283456       0.61343258
H        0.31241057      -1.75761912      -1.09665842
H       -2.00667617      -1.03977671      -0.19151369
H       -0.75874992       1.50581932       0.84181579
H       -1.20276016       1.42418441      -0.90913259
13
Frame=5 idx=000468 GeodesicLength=0.3734023613430695 rxn_smarts="[O:1]([C@@:2]1([H:8])[C:3]([H:9])([H:10])[C@@:4]2([H:11])[N:5]([H:12])[C@@:6]12[H:13])[H:7]>>[O:1]([C@@:2]1([H:8])[C:3]([H:9])([H:10])[C:4]([H:11])=[N:5][C:6]1([H:12])[H:13])[H:7]"
O        1.82828087       0.77190161       0.37791827
C        0.81040876       0.29374988      -0.45028296
C        0.30499062      -1.14846554      -0.19621431
C       -1.07965720      -0.60961341       0.17641828
N       -1.09809572       0.27361570       1.22061093
C       -0.59119090       0.87633076      -0.19959264
H        1.54406841       0.63896255       1.28786707
H        1.13965196       0.45232757      -1.47677890
H        0.81197968      -1.68859885       0.60274755
H        0.30691723      -1.75262581      -1.10464710
H       -2.00849980      -1.06173068      -0.16792507
H       -0.77628404       1.52752671       0.84532937
H       -1.19256987       1.42661952      -0.91545050
13
Frame=6 idx=000468 GeodesicLength=0.44803174594566847 rxn_smarts="[O:1]([C@@:2]1([H:8])[C:3]([H:9])([H:10])[C@@:4]2([H:11])[N:5]([H:12])[C@@:6]12[H:13])[H:7]>>[O:1]([C@@:2]1([H:8])[C:3]([H:9])([H:10])[C:4]([H:11])=[N:5][C:6]1([H:12])[H:13])[H:7]"
O        1.83012405       0.76433186       0.38323339
C        0.81122870       0.29386629      -0.44904402
C        0.30371078      -1.14869618      -0.20064657
C       -1.08001632      -0.61819708       0.17872242
N       -1.09324618       0.28344213       1.20521226
C       -0.58694424       0.88201178      -0.19853122
H        1.54062505       0.63691781       1.29225331
H        1.14479960       0.45389504      -1.47389717
H        0.81513955      -1.69438967       0.59172696
H        0.30110958      -1.74744602      -1.11279250
H       -2.00978080      -1.08396061      -0.14306993
H       -0.79470221       1.54879981       0.84869356
H       -1.18204755       1.42942483      -0.92186048
13
Frame=7 idx=000468 GeodesicLength=0.5226423811939718 rxn_smarts="[O:1]([C@@:2]1([H:8])[C:3]([H:9])([H:10])[C@@:4]2([H:11])[N:5]([H:12])[C@@:6]12[H:13])[H:7]>>[O:1]([C@@:2]1([H:8])[C:3]([H:9])([H:10])[C:4]([H:11])=[N:5][C:6]1([H:12])[H:13])[H:7]"
O        1.83195392       0.75658175       0.38870692
C        0.81221225       0.29395398      -0.44786786
C        0.30232466      -1.14884723      -0.20523933
C       -1.08031748      -0.62662725       0.18111395
N       -1.08860128       0.29327679       1.18943513
C       -0.58239183       0.88801084      -0.19774521
H        1.53700958       0.63478218       1.29669501
H        1.15031781       0.45537501      -1.47099386
H        0.81819781      -1.70021195       0.58034990
H        0.29497143      -1.74206527      -1.12110595
H       -2.01045352      -1.10645657      -0.11686566
H       -0.81404988       1.56960881       0.85189361
H       -1.17117348       1.43261889      -0.92837665
13
Frame=8 idx=000468 GeodesicLength=0.5972322831051513 rxn_smarts="[O:1]([C@@:2]1([H:8])[C:3]([H:9])([H:10])[C@@:4]2([H:11])[N:5]([H:12])[C@@:6]12[H:13])[H:7]>>[O:1]([C@@:2]1([H:8])[C:3]([H:9])([H:10])[C:4]([H:11])=[N:5][C:6]1([H:12])[H:13])[H:7]"
O        1.83376457       0.74863389       0.39435168
C        0.81336201       0.29401250      -0.44675421
C        0.30082266      -1.14891400      -0.21000362
C       -1.08056659      -0.63489723       0.18358492
N       -1.08417069       0.30312140       1.17325897
C       -0.57752288       0.89433688      -0.19724223
H        1.53320773       0.63254019       1.30119767
H        1.15622055       0.45676497      -1.46806227
H        0.82113947      -1.70607058       0.56859433
H        0.28848647      -1.73646846      -1.12959928
H       -2.01044293      -1.12920016      -0.08922528
H       -0.83437443       1.58992006       0.85491178
H       -1.15992596       1.43622052      -0.93501245
13
Frame=9 idx=000468 GeodesicLength=0.6718013588613659 rxn_smarts="[O:1]([C@@:2]1([H:8])[C:3]([H:9])([H:10])[C@@:4]2([H:11])[N:5]([H:12])[C@@:6]12[H:13])[H:7]>>[O:1]([C@@:2]1([H:8])[C:3]([H:9])([H:10])[C:4]([H:11])=[N:5][C:6]1([H:12])[H:13])[H:7]"
O        1.83554880       0.74046868       0.40018381
C        0.81468092       0.29404159      -0.44570167
C        0.29919354      -1.14889160      -0.21495292
C       -1.08077108      -0.64300009       0.18612720
N       -1.07996401       0.31298038       1.15666068
C       -0.57232557       0.90099982      -0.19702910
H        1.52920314       0.63017260       1.30576926
H        1.16252371       0.45806310      -1.46509347
H        0.82394858      -1.71197280       0.55643319
H        0.28163401      -1.73063718      -1.13828802
H       -2.00966256      -1.15217392      -0.06004892
H       -0.85573014       1.60969923       0.85772177
H       -1.14827936       1.44025019      -0.94178180
13
Frame=10 idx=000468 GeodesicLength=0.7463493459010514 rxn_smarts="[O:1]([C@@:2]1([H:8])[C:3]([H:9])([H:10])[C@@:4]2([H:11])[N:5]([H:12])[C@@:6]12[H:13])[H:7]>>[O:1]([C@@:2]1([H:8])[C:3]([H:9])([H:10])[C:4]([H:11])=[N:5][C:6]1([H:12])[H:13])[H:7]"
O        1.83729701       0.73206422       0.40622239
C        0.81617163       0.29404077      -0.44470786
C        0.29742450      -1.14877456      -0.22010311
C       -1.08093945      -0.65092896       0.18873183
N       -1.07599134       0.32285851       1.13961422
C       -0.56678747       0.90800972      -0.19711206
H        1.52497602       0.62765694       1.31041974
H        1.16924470       0.45926811      -1.46207638
H        0.82660709      -1.71792675       0.54383502
H        0.27439110      -1.72454976      -1.14719097
H       -2.00801345      -1.17535461      -0.02922346
H       -0.87817534       1.62890825       0.86029010
H       -1.13620499       1.44472811      -0.94869946
13
Frame=11 idx=000468 GeodesicLength=0.8208758501674345 rxn_smarts="[O:1]([C@@:2]1([H:8])[C:3]([H:9])([H:10])[C@@:4]2([H:11])[N:5]([H:12])[C@@:6]12[H:13])[H:7]>>[O:1]([C@@:2]1([H:8])[C:3]([H:9])([H:10])[C:4]([H:11])=[N:5][C:6]1([H:12])[H:13])[H:7]"
O        1.83899740       0.72339671       0.41248849
C        0.81783609       0.29400915      -0.44376964
C        0.29550107      -1.14855741      -0.22547166
C       -1.08108194      -0.65867789       0.19138953
N       -1.07226387       0.33275984       1.12209129
C       -0.56089606       0.91537660      -0.19749602
H        1.52050407       0.62496802       1.31516052
H        1.17640119       0.46037864      -1.45899830
H        0.82909513      -1.72394155       0.53076509
H        0.26673259      -1.71818258      -1.15632888
H       -2.00538138      -1.19870888       0.00337267
H       -0.90177234       1.64750424       0.86257651
H       -1.12367196       1.44967512      -0.95577961
13
Frame=12 idx=000468 GeodesicLength=0.8953839976859254 rxn_smarts="[O:1]([C@@:2]1([H:8])[C:3]([H:9])([H:10])[C@@:4]2([H:11])[N:5]([H:12])[C@@:6]12[H:13])[H:7]>>[O:1]([C@@:2]1([H:8])[C:3]([H:9])([H:10])[C:4]([H:11])=[N:5][C:6]1([H:12])[H:13])[H:7]"
O        1.84064075       0.71444195       0.41900972
C        0.81967810       0.29394810      -0.44288330
C        0.29340476      -1.14823484      -0.23107933
C       -1.08121421      -0.66624313       0.19409031
N       -1.06879434       0.34268855       1.10406209
C       -0.55463733       0.92311280      -0.19818697
H        1.51576592       0.62207695       1.32001076
H        1.18401548       0.46139835      -1.45584705
H        0.83138961      -1.73003031       0.51718494
H        0.25862572      -1.71150786      -1.16572975
H       -2.00164037      -1.22220697       0.03788023
H       -0.92658821       1.66544169       0.86453032
H       -1.11064588       1.45511471      -0.96304198
13
Frame=13 idx=000468 GeodesicLength=0.9699099501998716 rxn_smarts="[O:1]([C@@:2]1([H:8])[C:3]([H:9])([H:10])[C@@:4]2([H:11])[N:5]([H:12])[C@@:6]12[H:13])[H:7]>>[O:1]([C@@:2]1([H:8])[C:3]([H:9])([H:10])[C:4]([H:11])=[N:5][C:6]1([H:12])[H:13])[H:7]"
O        1.84225237       0.70519041       0.42583709
C        0.82170991       0.29387635      -0.44204425
C        0.29110654      -1.14781717      -0.23694710
C       -1.08137426      -0.67364163       0.19681883
N       -1.06559934       0.35264043       1.08549312
C       -0.54800178       0.93125092      -0.19920487
H        1.51077750       0.61895229       1.32501992
H        1.19211670       0.46236761      -1.45261744
H        0.83346967      -1.73624454       0.50306768
H        0.25000845      -1.70450662      -1.17543327
H       -1.99667107      -1.24586682       0.07446937
H       -0.95268754       1.68269079       0.86608054
H       -1.09710716       1.46110797      -0.97053962
13
Frame=14 idx=000468 GeodesicLength=1.044330896742755 rxn_smarts="[O:1]([C@@:2]1([H:8])[C:3]([H:9])([H:10])[C@@:4]2([H:11])[N:5]([H:12])[C@@:6]12[H:13])[H:7]>>[O:1]([C@@:2]1([H:8])[C:3]([H:9])([H:10])[C:4]([H:11])=[N:5][C:6]1([H:12])[H:13])[H:7]"
O        1.84371630       0.69559012       0.43287233
C        0.82387489       0.29372062      -0.44124362
C        0.28863904      -1.14728947      -0.24302925
C       -1.08147764      -0.68087392       0.19969429
N       -1.06265866       0.36260155       1.06641883
C       -0.54099731       0.93970570      -0.20045781
H        1.50544311       0.61563027       1.33006665
H        1.20060903       0.46313941      -1.44928039
H        0.83538489      -1.74249672       0.48837871
H        0.24093340      -1.69717778      -1.18533871
H       -1.99028091      -1.26916245       0.11279198
H       -0.98013129       1.69910364       0.86725487
H       -1.08305483       1.46750903      -0.97812787
13
Frame=15 idx=000468 GeodesicLength=1.1187600103266733 rxn_smarts="[O:1]([C@@:2]1([H:8])[C:3]([H:9])([H:10])[C@@:4]2([H:11])[N:5]([H:12])[C@@:6]12[H:13])[H:7]>>[O:1]([C@@:2]1([H:8])[C:3]([H:9])([H:10])[C:4]([H:11])=[N:5][C:6]1([H:12])[H:13])[H:7]"
O        1.84498145       0.68553016       0.44031404
C        0.82622131       0.29352400      -0.44046057
C        0.28591349      -1.14658701      -0.24950422
C       -1.08162203      -0.68782363       0.20249313
N       -1.06004911       0.37267196       1.04663491
C       -0.53355989       0.94858047      -0.20205821
H        1.49961433       0.61188610       1.33529625
H        1.20969857       0.46381447      -1.44574042
H        0.83694490      -1.74884481       0.47290962
H        0.23129794      -1.68934391      -1.19568393
H       -1.98207804      -1.29260754       0.15394900
H       -1.00906632       1.71470255       0.86780749
H       -1.06829659       1.47449719      -0.98595710
13
Frame=16 idx=000468 GeodesicLength=1.1932014429644107 rxn_smarts="[O:1]([C@@:2]1([H:8])[C:3]([H:9])([H:10])[C@@:4]2([H:11])[N:5]([H:12])[C@@:6]12[H:13])[H:7]>>[O:1]([C@@:2]1([H:8])[C:3]([H:9])([H:10])[C:4]([H:11])=[N:5][C:6]1([H:12])[H:13])[H:7]"
O        1.84613007       0.67506671       0.44815373
C        0.82874456       0.29329811      -0.43969565
C        0.28292039      -1.14577493      -0.25630853
C       -1.08182915      -0.69461866       0.20534726
N       -1.05776026       0.38277005       1.02621002
C       -0.52571675       0.95786569      -0.20397200
H        1.49341441       0.60778429       1.34073641
H        1.21932036       0.46442011      -1.44204803
H        0.83822914      -1.75536132       0.45672615
H        0.22102364      -1.68106927      -1.20641452
H       -1.97203038      -1.31585903       0.19759292
H       -1.03952939       1.72940385       0.86771296
H       -1.05291664       1.48207440      -0.99404071
