9
Frame=0 idx=006319 GeodesicLength=0.0 rxn_smarts="[O:1]=[c:2]1[n:3]([H:7])[c:4]([H:8])[c:5]([H:9])[o:6]1>>[O:1]=[C:2](/[N+:3](=[C:4](\[C-:5])[H:8])[H:7])[O:6][H:9]"
O        2.08956025      -0.95575227       0.42870094
C        0.96005926      -0.58695182       0.30414406
N        0.54659847       0.66202131      -0.10393566
C       -0.80865022       0.79203225      -0.26561153
C       -1.59329072      -0.22320778       0.09956064
O       -0.12897103      -1.33370267       0.61405931
H        1.22276397       1.36334629      -0.34720316
H       -1.22352467       1.69555776      -0.69255958
H       -1.06454529      -1.41334305      -0.03715505
9
Frame=1 idx=006319 GeodesicLength=0.06776424368128506 rxn_smarts="[O:1]=[c:2]1[n:3]([H:7])[c:4]([H:8])[c:5]([H:9])[o:6]1>>[O:1]=[C:2](/[N+:3](=[C:4](\[C-:5])[H:8])[H:7])[O:6][H:9]"
O        2.08572329      -0.96055977       0.43224323
C        0.95980462      -0.58107161       0.30787190
N        0.55020128       0.66529958      -0.10722734
C       -0.80759673       0.79367224      -0.26516646
C       -1.57995266      -0.22738031       0.11001867
O       -0.13804988      -1.31903418       0.61642958
H        1.22681132       1.36488667      -0.35358928
H       -1.22752347       1.69621496      -0.68821957
H       -1.06941776      -1.43202758      -0.05236073
9
Frame=2 idx=006319 GeodesicLength=0.13552991232280998 rxn_smarts="[O:1]=[c:2]1[n:3]([H:7])[c:4]([H:8])[c:5]([H:9])[o:6]1>>[O:1]=[C:2](/[N+:3](=[C:4](\[C-:5])[H:8])[H:7])[O:6][H:9]"
O        2.08195241      -0.96587041       0.43353921
C        0.95967158      -0.57545526       0.31055896
N        0.55373035       0.66874757      -0.10995767
C       -0.80648335       0.79515469      -0.26545499
C       -1.56677695      -0.23140496       0.11935767
O       -0.14668898      -1.30448283       0.61874424
H        1.23069205       1.36768221      -0.35659742
H       -1.23107570       1.69630179      -0.68582247
H       -1.07502143      -1.45067279      -0.06436754
9
Frame=3 idx=006319 GeodesicLength=0.2033053692303668 rxn_smarts="[O:1]=[c:2]1[n:3]([H:7])[c:4]([H:8])[c:5]([H:9])[o:6]1>>[O:1]=[C:2](/[N+:3](=[C:4](\[C-:5])[H:8])[H:7])[O:6][H:9]"
O        2.07821639      -0.97143766       0.43334534
C        0.95964227      -0.57000299       0.31248475
N        0.55720131       0.67238766      -0.11208167
C       -0.80531954       0.79653309      -0.26624946
C       -1.55377503      -0.23535329       0.12752640
O       -0.15494111      -1.29009677       0.62083890
H        1.23445672       1.37124648      -0.35746491
H       -1.23426173       1.69609909      -0.68458682
H       -1.08121928      -1.46937562      -0.07381253
9
Frame=4 idx=006319 GeodesicLength=0.27112449633665053 rxn_smarts="[O:1]=[c:2]1[n:3]([H:7])[c:4]([H:8])[c:5]([H:9])[o:6]1>>[O:1]=[C:2](/[N+:3](=[C:4](\[C-:5])[H:8])[H:7])[O:6][H:9]"
O        2.07453161      -0.97728221       0.43171747
C        0.95972947      -0.56476788       0.31357641
N        0.56063559       0.67620527      -0.11371853
C       -0.80409841       0.79781588      -0.26758645
C       -1.54093838      -0.23916350       0.13470654
O       -0.16280606      -1.27587288       0.62274720
H        1.23811885       1.37569339      -0.35607657
H       -1.23711221       1.69560581      -0.68457533
H       -1.08806047      -1.48823389      -0.08079075
9
Frame=5 idx=006319 GeodesicLength=0.3390367542406077 rxn_smarts="[O:1]=[c:2]1[n:3]([H:7])[c:4]([H:8])[c:5]([H:9])[o:6]1>>[O:1]=[C:2](/[N+:3](=[C:4](\[C-:5])[H:8])[H:7])[O:6][H:9]"
O        2.07087476      -0.98334855       0.42881420
C        0.95992601      -0.55970347       0.31395118
N        0.56405031       0.68017147      -0.11498218
C       -0.80280884       0.79898207      -0.26952658
C       -1.52825912      -0.24286091       0.14089139
O       -0.17031449      -1.26178547       0.62448919
H        1.24170097       1.38092594      -0.35265787
H       -1.23966294       1.69496078      -0.68550988
H       -1.09550666      -1.50734185      -0.08546945
9
Frame=6 idx=006319 GeodesicLength=0.40670616564597634 rxn_smarts="[O:1]=[c:2]1[n:3]([H:7])[c:4]([H:8])[c:5]([H:9])[o:6]1>>[O:1]=[C:2](/[N+:3](=[C:4](\[C-:5])[H:8])[H:7])[O:6][H:9]"
O        2.06718404      -0.98966573       0.42452043
C        0.96020740      -0.55470069       0.31394180
N        0.56740719       0.68447970      -0.11532814
C       -0.80146725       0.80018149      -0.27159642
C       -1.51574486      -0.24651660       0.14602914
O       -0.17747946      -1.24789236       0.62596948
H        1.24513322       1.38665985      -0.34779832
H       -1.24184467       1.69396721      -0.68757239
H       -1.10339562      -1.52651287      -0.08816557
9
Frame=7 idx=006319 GeodesicLength=0.47450334364954144 rxn_smarts="[O:1]=[c:2]1[n:3]([H:7])[c:4]([H:8])[c:5]([H:9])[o:6]1>>[O:1]=[C:2](/[N+:3](=[C:4](\[C-:5])[H:8])[H:7])[O:6][H:9]"
O        2.06348672      -0.99607406       0.41922591
C        0.96057907      -0.54984489       0.31327325
N        0.57074701       0.68905888      -0.11498391
C       -0.80005837       0.80140629      -0.27388367
C       -1.50338531      -0.25007950       0.15031535
O       -0.18432442      -1.23421693       0.62712863
H        1.24852043       1.39292876      -0.34152957
H       -1.24373236       1.69279225      -0.69058193
H       -1.11183277      -1.54597082      -0.08896405
9
Frame=8 idx=006319 GeodesicLength=0.5423087844323193 rxn_smarts="[O:1]=[c:2]1[n:3]([H:7])[c:4]([H:8])[c:5]([H:9])[o:6]1>>[O:1]=[C:2](/[N+:3](=[C:4](\[C-:5])[H:8])[H:7])[O:6][H:9]"
O        2.05982910      -1.00256758       0.41296059
C        0.96105255      -0.54518857       0.31183012
N        0.57405686       0.69389094      -0.11396608
C       -0.79859495       0.80268494      -0.27625727
C       -1.49115502      -0.25351388       0.15384902
O       -0.19081452      -1.22075630       0.62789952
H        1.25180107       1.39974150      -0.33373040
H       -1.24530537       1.69130645      -0.69470683
H       -1.12086972      -1.56559751      -0.08787867
9
Frame=9 idx=006319 GeodesicLength=0.6101363537668848 rxn_smarts="[O:1]=[c:2]1[n:3]([H:7])[c:4]([H:8])[c:5]([H:9])[o:6]1>>[O:1]=[C:2](/[N+:3](=[C:4](\[C-:5])[H:8])[H:7])[O:6][H:9]"
O        2.05616687      -1.00892402       0.40635921
C        0.96158349      -0.54059640       0.31001615
N        0.57730832       0.69911854      -0.11186769
C       -0.79708403       0.80408299      -0.27855096
C       -1.47908489      -0.25701734       0.15629712
O       -0.19703828      -1.20762010       0.62817345
H        1.25504731       1.40654811      -0.32592231
H       -1.24660365       1.68989759      -0.69907053
H       -1.13029514      -1.58548938      -0.08543445
9
Frame=10 idx=006319 GeodesicLength=0.6779707418963146 rxn_smarts="[O:1]=[c:2]1[n:3]([H:7])[c:4]([H:8])[c:5]([H:9])[o:6]1>>[O:1]=[C:2](/[N+:3](=[C:4](\[C-:5])[H:8])[H:7])[O:6][H:9]"
O        2.05249468      -1.01516229       0.39936306
C        0.96216632      -0.53606377       0.30783852
N        0.58048963       0.70471766      -0.10871310
C       -0.79551725       0.80562473      -0.28073419
C       -1.46715539      -0.26058827       0.15766749
O       -0.20300168      -1.19478365       0.62796289
H        1.25825150       1.41336368      -0.31802130
H       -1.24763081       1.68852319      -0.70373620
H       -1.14009699      -1.60563129      -0.08162717
9
Frame=11 idx=006319 GeodesicLength=0.7457672230840258 rxn_smarts="[O:1]=[c:2]1[n:3]([H:7])[c:4]([H:8])[c:5]([H:9])[o:6]1>>[O:1]=[C:2](/[N+:3](=[C:4](\[C-:5])[H:8])[H:7])[O:6][H:9]"
O        2.04879600      -1.02132264       0.39173812
C        0.96279098      -0.53158206       0.30526473
N        0.58360638       0.71065375      -0.10459715
C       -0.79390150       0.80731787      -0.28279844
C       -1.45536184      -0.26424062       0.15796381
O       -0.20871770      -1.18221645       0.62731839
H        1.26141906       1.42031492      -0.30966584
H       -1.24833236       1.68709765      -0.70891624
H       -1.15029903      -1.62602242      -0.07630736
9
Frame=12 idx=006319 GeodesicLength=0.8135920319467275 rxn_smarts="[O:1]=[c:2]1[n:3]([H:7])[c:4]([H:8])[c:5]([H:9])[o:6]1>>[O:1]=[C:2](/[N+:3](=[C:4](\[C-:5])[H:8])[H:7])[O:6][H:9]"
O        2.04509766      -1.02733552       0.38374535
C        0.96346208      -0.52716180       0.30227648
N        0.58666687       0.71684145      -0.09974672
C       -0.79222481       0.80912615      -0.28485732
C       -1.44368422      -0.26801549       0.15709589
O       -0.21420407      -1.16991205       0.62622698
H        1.26455322       1.42736727      -0.30097992
H       -1.24875318       1.68580259      -0.71427175
H       -1.16091355      -1.64671259      -0.06948899
9
Frame=13 idx=006319 GeodesicLength=0.8814135306980854 rxn_smarts="[O:1]=[c:2]1[n:3]([H:7])[c:4]([H:8])[c:5]([H:9])[o:6]1>>[O:1]=[C:2](/[N+:3](=[C:4](\[C-:5])[H:8])[H:7])[O:6][H:9]"
O        2.04139564      -1.03317254       0.37543281
C        0.96416973      -0.52277859       0.29892658
N        0.58966074       0.72323985      -0.09421743
C       -0.79049347       0.81109293      -0.28682110
C       -1.43210805      -0.27195452       0.15498604
O       -0.21947772      -1.15787331       0.62466658
H        1.26764562       1.43446552      -0.29204378
H       -1.24888723       1.68466375      -0.71974019
H       -1.17190528      -1.66768310      -0.06118951
9
Frame=14 idx=006319 GeodesicLength=0.9492527128702681 rxn_smarts="[O:1]=[c:2]1[n:3]([H:7])[c:4]([H:8])[c:5]([H:9])[o:6]1>>[O:1]=[C:2](/[N+:3](=[C:4](\[C-:5])[H:8])[H:7])[O:6][H:9]"
O        2.03769351      -1.03880298       0.36692537
C        0.96490853      -0.51842228       0.29525109
N        0.59259248       0.72980767      -0.08811204
C       -0.78871441       0.81321555      -0.28869895
C       -1.42061683      -0.27611182       0.15153331
O       -0.22456371      -1.14610411       0.62262373
H        1.27071528       1.44159332      -0.28297237
H       -1.24875108       1.68376898      -0.72513502
H       -1.18326377      -1.68894434      -0.05141512
9
Frame=15 idx=006319 GeodesicLength=1.0170436871205282 rxn_smarts="[O:1]=[c:2]1[n:3]([H:7])[c:4]([H:8])[c:5]([H:9])[o:6]1>>[O:1]=[C:2](/[N+:3](=[C:4](\[C-:5])[H:8])[H:7])[O:6][H:9]"
O        2.03399399      -1.04419204       0.35834656
C        0.96567452      -0.51406346       0.29130796
N        0.59546558       0.73645381      -0.08164891
C       -0.78689354       0.81549913      -0.29051299
C       -1.40918258      -0.28055578       0.14655304
O       -0.22948338      -1.13458327       0.62009955
H        1.27373019       1.44866617      -0.27381293
H       -1.24837145       1.68324940      -0.73021149
H       -1.19493333      -1.71047395      -0.04012079
9
Frame=16 idx=006319 GeodesicLength=1.084845180659764 rxn_smarts="[O:1]=[c:2]1[n:3]([H:7])[c:4]([H:8])[c:5]([H:9])[o:6]1>>[O:1]=[C:2](/[N+:3](=[C:4](\[C-:5])[H:8])[H:7])[O:6][H:9]"
O        2.03028046      -1.04949870       0.34908960
C        0.96648263      -0.50972341       0.28699537
N        0.59828153       0.74320125      -0.07477092
C       -0.78503868       0.81799957      -0.29212452
C       -1.39776321      -0.28525490       0.14015376
O       -0.23421837      -1.12327726       0.61714347
H        1.27667210       1.45599579      -0.26377809
H       -1.24765799       1.68276889      -0.73570898
H       -1.20703848      -1.73221124      -0.02699969
