14
Frame=0 idx=011454 GeodesicLength=0.0 rxn_smarts="[O:1]([C:2]1([H:9])[C:3]([H:10])([H:11])[N:4]([C:6](=[O:7])[H:14])[C:5]1([H:12])[H:13])[H:8]>>[O:1]1[C:2]2([H:9])[C:3]([H:10])([H:11])[N:4]([C:5]2([H:12])[H:13])[C@@:6]1([O:7][H:8])[H:14]"
O       -1.01291331       0.03802312      -1.22218505
C       -1.13779821      -0.25864774       0.08407105
C        0.03241828      -1.26733304       0.45912790
N        0.87005741      -0.02405172       0.43481618
C       -0.30798815       0.75015147       0.92822922
C        1.23314944       0.26693909      -0.80281457
O        1.02698482       1.42316096      -1.36918395
H       -0.00055014       1.31440632      -1.44244960
H       -2.14377430      -0.50931201       0.44141718
H        0.01148493      -1.68986463       1.46288106
H        0.28714291      -2.00207906      -0.30189206
H       -0.37153395       0.63077358       2.00878430
H       -0.32607655       1.79945394       0.64451999
H        1.83939678      -0.47162024      -1.32532161
14
Frame=1 idx=011454 GeodesicLength=0.11515641779644084 rxn_smarts="[O:1]([C:2]1([H:9])[C:3]([H:10])([H:11])[N:4]([C:6](=[O:7])[H:14])[C:5]1([H:12])[H:13])[H:8]>>[O:1]1[C:2]2([H:9])[C:3]([H:10])([H:11])[N:4]([C:5]2([H:12])[H:13])[C@@:6]1([O:7][H:8])[H:14]"
O       -1.00882095       0.04134987      -1.22165877
C       -1.13585929      -0.25873003       0.08831541
C        0.03149423      -1.26743904       0.45822689
N        0.87143898      -0.02620679       0.43928427
C       -0.30540110       0.74911471       0.93167113
C        1.23820620       0.26881497      -0.80114700
O        1.03346164       1.42283796      -1.37258150
H       -0.02286734       1.31232144      -1.45822313
H       -2.14299727      -0.50646034       0.44245325
H        0.01055809      -1.69820004       1.45837670
H        0.27994164      -2.00132965      -0.30596378
H       -0.37055696       0.63651053       2.01277104
H       -0.32824451       1.79798510       0.64590893
H        1.84964663      -0.47056869      -1.31743342
14
Frame=2 idx=011454 GeodesicLength=0.23030951331704896 rxn_smarts="[O:1]([C:2]1([H:9])[C:3]([H:10])([H:11])[N:4]([C:6](=[O:7])[H:14])[C:5]1([H:12])[H:13])[H:8]>>[O:1]1[C:2]2([H:9])[C:3]([H:10])([H:11])[N:4]([C:5]2([H:12])[H:13])[C@@:6]1([O:7][H:8])[H:14]"
O       -1.00466696       0.04446718      -1.22120703
C       -1.13389551      -0.25883084       0.09253945
C        0.03058265      -1.26756308       0.45735450
N        0.87283953      -0.02841612       0.44373571
C       -0.30278159       0.74807494       0.93505585
C        1.24319317       0.27059964      -0.79955676
O        1.04065249       1.42267148      -1.37572389
H       -0.04598678       1.31047598      -1.47392037
H       -2.14218394      -0.50360771       0.44346456
H        0.00960510      -1.70651410       1.45383840
H        0.27276867      -2.00060624      -0.30993159
H       -0.36955377       0.64235338       2.01666779
H       -0.33037333       1.79648800       0.64723563
H        1.85980026      -0.46959252      -1.30955225
14
Frame=3 idx=011454 GeodesicLength=0.34545806779603017 rxn_smarts="[O:1]([C:2]1([H:9])[C:3]([H:10])([H:11])[N:4]([C:6](=[O:7])[H:14])[C:5]1([H:12])[H:13])[H:8]>>[O:1]1[C:2]2([H:9])[C:3]([H:10])([H:11])[N:4]([C:5]2([H:12])[H:13])[C@@:6]1([O:7][H:8])[H:14]"
O       -1.00043680       0.04737005      -1.22083627
C       -1.13190241      -0.25895123       0.09673789
C        0.02968504      -1.26770692       0.45651371
N        0.87426223      -0.03068209       0.44816908
C       -0.30012600       0.74703288       0.93837738
C        1.24811431       0.27228079      -0.79804905
O        1.04861099       1.42267451      -1.37858252
H       -0.07000700       1.30889214      -1.48953543
H       -2.14133170      -0.50075266       0.44444147
H        0.00862392      -1.71480288       1.44927196
H        0.26562445      -1.99991724      -0.31378785
H       -0.36852275       0.64830650       2.02046674
H       -0.33245698       1.79496238       0.64849011
H        1.86986270      -0.46870623      -1.30167722
14
Frame=4 idx=011454 GeodesicLength=0.460600891419092 rxn_smarts="[O:1]([C:2]1([H:9])[C:3]([H:10])([H:11])[N:4]([C:6](=[O:7])[H:14])[C:5]1([H:12])[H:13])[H:8]>>[O:1]1[C:2]2([H:9])[C:3]([H:10])([H:11])[N:4]([C:5]2([H:12])[H:13])[C@@:6]1([O:7][H:8])[H:14]"
O       -0.99611421       0.05005353      -1.22055367
C       -1.12987509      -0.25909211       0.10090462
C        0.02880305      -1.26787241       0.45570749
N        0.87571068      -0.03300737       0.45258287
C       -0.29743025       0.74598951       0.94162882
C        1.25297423       0.27384555      -0.79662940
O        1.05739739       1.42286074      -1.38112463
H       -0.09503922       1.30759175      -1.50506139
H       -2.14043758      -0.49789324       0.44537312
H        0.00761216      -1.72306220       1.44468354
H        0.25850960      -1.99927145      -0.31752465
H       -0.36746207       0.65437482       2.02415909
H       -0.33448845       1.79340814       0.64966098
H        1.87983976      -0.46792527      -1.29380678
14
Frame=5 idx=011454 GeodesicLength=0.5757374226390112 rxn_smarts="[O:1]([C:2]1([H:9])[C:3]([H:10])([H:11])[N:4]([C:6](=[O:7])[H:14])[C:5]1([H:12])[H:13])[H:8]>>[O:1]1[C:2]2([H:9])[C:3]([H:10])([H:11])[N:4]([C:5]2([H:12])[H:13])[C@@:6]1([O:7][H:8])[H:14]"
O       -0.99168088       0.05251290      -1.22036716
C       -1.12780804      -0.25925414       0.10503252
C        0.02793850      -1.26806140       0.45493865
N        0.87718901      -0.03539483       0.45697540
C       -0.29468966       0.74494617       0.94480227
C        1.25777837       0.27528034      -0.79530371
O        1.06707990       1.42324421      -1.38331292
H       -0.12121003       1.30659594      -1.52048941
H       -2.13949821      -0.49502687       0.44624713
H        0.00656704      -1.73128751       1.44007952
H        0.25142498      -1.99867804      -0.32113395
H       -0.36636973       0.66056405       2.02773486
H       -0.33645964       1.79182538       0.65073513
H        1.88973840      -0.46726620      -1.28593832
14
Frame=6 idx=011454 GeodesicLength=0.6908675136551435 rxn_smarts="[O:1]([C:2]1([H:9])[C:3]([H:10])([H:11])[N:4]([C:6](=[O:7])[H:14])[C:5]1([H:12])[H:13])[H:8]>>[O:1]1[C:2]2([H:9])[C:3]([H:10])([H:11])[N:4]([C:5]2([H:12])[H:13])[C@@:6]1([O:7][H:8])[H:14]"
O       -0.98711593       0.05474410      -1.22028575
C       -1.12569498      -0.25943770       0.10911314
C        0.02709352      -1.26827569       0.45420987
N        0.87870202      -0.03784751       0.46134484
C       -0.29189898       0.74390463       0.94788857
C        1.26253330       0.27657086      -0.79407821
O        1.07773642       1.42383923      -1.38510457
H       -0.14866427       1.30592481      -1.53580762
H       -2.13850960      -0.49215054       0.44704891
H        0.00548541      -1.73947360       1.43546670
H        0.24437199      -1.99814655      -0.32460741
H       -0.36524391       0.66688076       2.03118261
H       -0.33836097       1.79021453       0.65169754
H        1.89956598      -0.46674733      -1.27806863
14
Frame=7 idx=011454 GeodesicLength=0.8059916300547708 rxn_smarts="[O:1]([C:2]1([H:9])[C:3]([H:10])([H:11])[N:4]([C:6](=[O:7])[H:14])[C:5]1([H:12])[H:13])[H:8]>>[O:1]1[C:2]2([H:9])[C:3]([H:10])([H:11])[N:4]([C:5]2([H:12])[H:13])[C@@:6]1([O:7][H:8])[H:14]"
O       -0.98239553       0.05674386      -1.22031956
C       -1.12352873      -0.25964263       0.11313658
C        0.02627049      -1.26851699       0.45352353
N        0.88025520      -0.04036871       0.46568924
C       -0.28905212       0.74286725       0.95087719
C        1.26724702       0.27770217      -0.79295944
O        1.08945632       1.42466063      -1.38644958
H       -0.17756866       1.30559567      -1.55100189
H       -2.13746711      -0.48926021       0.44776170
H        0.00436352      -1.74761479       1.43085197
H        0.23735223      -1.99768674      -0.32793677
H       -0.36408252       0.67333256       2.03448937
H       -0.34018118       1.78857640       0.65253096
H        1.90933107      -0.46638848      -1.27019328
14
Frame=8 idx=011454 GeodesicLength=0.9211111105197747 rxn_smarts="[O:1]([C:2]1([H:9])[C:3]([H:10])([H:11])[N:4]([C:6](=[O:7])[H:14])[C:5]1([H:12])[H:13])[H:8]>>[O:1]1[C:2]2([H:9])[C:3]([H:10])([H:11])[N:4]([C:5]2([H:12])[H:13])[C@@:6]1([O:7][H:8])[H:14]"
O       -0.97749249       0.05851038      -1.22048010
C       -1.12130111      -0.25986811       0.11709114
C        0.02547207      -1.26878682       0.45288141
N        0.88185500      -0.04296199       0.47000639
C       -0.28614201       0.74183710       0.95375591
C        1.27192929       0.27865864      -0.79195438
O        1.10234266       1.42572311      -1.38729011
H       -0.20811694       1.30562225      -1.56605400
H       -2.13636537      -0.48635077       0.44836593
H        0.00319675      -1.75570484       1.42624212
H        0.23036771      -1.99730846      -0.33111408
H       -0.36288337       0.67992834       2.03764016
H       -0.34190648       1.78691237       0.65321540
H        1.91904428      -0.46621120      -1.26230579
14
Frame=9 idx=011454 GeodesicLength=1.03623714726682 rxn_smarts="[O:1]([C:2]1([H:9])[C:3]([H:10])([H:11])[N:4]([C:6](=[O:7])[H:14])[C:5]1([H:12])[H:13])[H:8]>>[O:1]1[C:2]2([H:9])[C:3]([H:10])([H:11])[N:4]([C:5]2([H:12])[H:13])[C@@:6]1([O:7][H:8])[H:14]"
O       -0.97237492       0.06004394      -1.22078047
C       -1.11900252      -0.26011233       0.12096278
C        0.02470118      -1.26908650       0.45228470
N        0.88350890      -0.04563132       0.47429408
C       -0.28316034       0.74081829       0.95651043
C        1.27659189       0.27942367      -0.79107012
O        1.11651741       1.42704146      -1.38755329
H       -0.24053698       1.30601318      -1.58094523
H       -2.13519767      -0.48341587       0.44883884
H        0.00198040      -1.76373663       1.42164389
H        0.22342059      -1.99702181      -0.33413170
H       -0.36164335       0.68667894       2.04061772
H       -0.34352110       1.78522453       0.65372742
H        1.92871650      -0.46623955      -1.25439904
14
Frame=10 idx=011454 GeodesicLength=1.1513591315275522 rxn_smarts="[O:1]([C:2]1([H:9])[C:3]([H:10])([H:11])[N:4]([C:6](=[O:7])[H:14])[C:5]1([H:12])[H:13])[H:8]>>[O:1]1[C:2]2([H:9])[C:3]([H:10])([H:11])[N:4]([C:5]2([H:12])[H:13])[C@@:6]1([O:7][H:8])[H:14]"
O       -0.96700635       0.06134838      -1.22123571
C       -1.11662184      -0.26037199       0.12473495
C        0.02396130      -1.26941658       0.45173301
N        0.88522581      -0.04838071       0.47854998
C       -0.28009725       0.73981602       0.95912444
C        1.28125065       0.27998081      -0.79031347
O        1.13211766       1.42862919      -1.38716195
H       -0.27509291       1.30676668      -1.59564462
H       -2.13395653      -0.48044664       0.44915314
H        0.00070670      -1.77170274       1.41706248
H        0.21651402      -1.99683558      -0.33698391
H       -0.36036031       0.69359666       2.04340231
H       -0.34500424       1.78351605       0.65404033
H        1.93836330      -0.46649955      -1.24646098
14
Frame=11 idx=011454 GeodesicLength=1.266474586332317 rxn_smarts="[O:1]([C:2]1([H:9])[C:3]([H:10])([H:11])[N:4]([C:6](=[O:7])[H:14])[C:5]1([H:12])[H:13])[H:8]>>[O:1]1[C:2]2([H:9])[C:3]([H:10])([H:11])[N:4]([C:5]2([H:12])[H:13])[C@@:6]1([O:7][H:8])[H:14]"
O       -0.96134351       0.06243254      -1.22186319
C       -1.11414589      -0.26064182       0.12838753
C        0.02325626      -1.26977692       0.45122441
N        0.88701627      -0.05121459       0.48277197
C       -0.27694100       0.73883722       0.96157880
C        1.28592541       0.28031294      -0.78969080
O        1.14930680       1.43049827      -1.38601943
H       -0.31209919       1.30786961      -1.61011721
H       -2.13263261      -0.47743210       0.44927653
H       -0.00063285      -1.77959466       1.41250195
H        0.20965137      -1.99675790      -0.33966666
H       -0.35903126       0.70069661       2.04597098
H       -0.34633139       1.78179145       0.65412262
H        1.94800161      -0.46702066      -1.23847751
14
Frame=12 idx=011454 GeodesicLength=1.3815808555820934 rxn_smarts="[O:1]([C:2]1([H:9])[C:3]([H:10])([H:11])[N:4]([C:6](=[O:7])[H:14])[C:5]1([H:12])[H:13])[H:8]>>[O:1]1[C:2]2([H:9])[C:3]([H:10])([H:11])[N:4]([C:5]2([H:12])[H:13])[C@@:6]1([O:7][H:8])[H:14]"
O       -0.95533531       0.06331268      -1.22268297
C       -1.11155895      -0.26091384       0.13189611
C        0.02259033      -1.27016614       0.45075441
N        0.88889288      -0.05413758       0.48695804
C       -0.27367740       0.73789099       0.96385111
C        1.29064190       0.28040310      -0.78920769
O        1.16827861       1.43265850      -1.38400957
H       -0.35193154       1.30928999      -1.62431856
H       -2.13121457      -0.47435786       0.44917025
H       -0.00204911      -1.78740285       1.40796391
H        0.20283655      -1.99679501      -0.34217894
H       -0.35765307       0.70799691       2.04829693
H       -0.34747198       1.78005713       0.65393730
H        1.95765167      -0.46783602      -1.23043033
14
Frame=13 idx=011454 GeodesicLength=1.4966750641175868 rxn_smarts="[O:1]([C:2]1([H:9])[C:3]([H:10])([H:11])[N:4]([C:6](=[O:7])[H:14])[C:5]1([H:12])[H:13])[H:8]>>[O:1]1[C:2]2([H:9])[C:3]([H:10])([H:11])[N:4]([C:5]2([H:12])[H:13])[C@@:6]1([O:7][H:8])[H:14]"
O       -0.94892066       0.06401604      -1.22371840
C       -1.10884211      -0.26117601       0.13523087
C        0.02196828      -1.27058107       0.45031490
N        0.89087089      -0.05715452       0.49110680
C       -0.27028905       0.73698941       0.96591516
C        1.29543383       0.28023510      -0.78886781
O        1.18926470       1.43511636      -1.38099057
H       -0.39504232       1.31096808      -1.63819333
H       -2.12968850      -0.47120496       0.44878751
H       -0.00355584      -1.79511674       1.40344610
H        0.19607365      -1.99695012      -0.34452458
H       -0.35622218       0.71551950       2.05034891
H       -0.34838792       1.77832225       0.65344076
H        1.96733724      -0.46898333      -1.22229631
14
Frame=14 idx=011454 GeodesicLength=1.6117548326564242 rxn_smarts="[O:1]([C:2]1([H:9])[C:3]([H:10])([H:11])[N:4]([C:6](=[O:7])[H:14])[C:5]1([H:12])[H:13])[H:8]>>[O:1]1[C:2]2([H:9])[C:3]([H:10])([H:11])[N:4]([C:5]2([H:12])[H:13])[C@@:6]1([O:7][H:8])[H:14]"
O       -0.94202570       0.06458612      -1.22499678
C       -1.10597220      -0.26141061       0.13835491
C        0.02139537      -1.27101558       0.44989245
N        0.89296877      -0.06027022       0.49521773
C       -0.26675446       0.73614859       0.96774007
C        1.30034589       0.27979440      -0.78867198
O        1.21254475       1.43787285      -1.37678853
H       -0.44198148       1.31280377      -1.65166966
H       -2.12803686      -0.46794835       0.44807110
H       -0.00517103      -1.80272408       1.39894020
H        0.18936718      -1.99722132      -0.34671468
H       -0.35473526       0.72329121       2.05209014
H       -0.34903097       1.77659952       0.65258135
H        1.97708602      -0.47050628      -1.21404632
14
Frame=15 idx=011454 GeodesicLength=1.7268179193089446 rxn_smarts="[O:1]([C:2]1([H:9])[C:3]([H:10])([H:11])[N:4]([C:6](=[O:7])[H:14])[C:5]1([H:12])[H:13])[H:8]>>[O:1]1[C:2]2([H:9])[C:3]([H:10])([H:11])[N:4]([C:5]2([H:12])[H:13])[C@@:6]1([O:7][H:8])[H:14]"
O       -0.93455999       0.06509028      -1.22655002
C       -1.10292053      -0.26159144       0.14122228
C        0.02087717      -1.27145934       0.44946577
N        0.89520926      -0.06348950       0.49929232
C       -0.26304629       0.73539018       0.96928971
C        1.30543802       0.27906990      -0.78861541
O        1.23845785       1.44092044      -1.37118692
H       -0.49342397       1.31463652      -1.66465700
H       -2.12623742      -0.46455380       0.44695048
H       -0.00691870      -1.81021118       1.39442824
H        0.18272099      -1.99759850      -0.34877186
H       -0.35318810       0.73134496       2.05347745
H       -0.34933910       1.77490678       0.65129791
H        1.98693078      -0.47245529      -1.20564294
14
Frame=16 idx=011454 GeodesicLength=1.8418630492561727 rxn_smarts="[O:1]([C:2]1([H:9])[C:3]([H:10])([H:11])[N:4]([C:6](=[O:7])[H:14])[C:5]1([H:12])[H:13])[H:8]>>[O:1]1[C:2]2([H:9])[C:3]([H:10])([H:11])[N:4]([C:5]2([H:12])[H:13])[C@@:6]1([O:7][H:8])[H:14]"
O       -0.92641087       0.06563209      -1.22841548
C       -1.09965120      -0.26167956       0.14377500
C        0.02041936      -1.27189590       0.44900207
N        0.89762100      -0.06681716       0.50333519
C       -0.25912924       0.73474364       0.97052147
C        1.31079253       0.27805621      -0.78868450
O        1.26741744       1.44423776      -1.36391651
H       -0.55020833       1.31621760      -1.67703672
H       -2.12426209      -0.46097339       0.44533744
H       -0.00883240      -1.81756350       1.38987722
H        0.17613791      -1.99805903      -0.35073582
H       -0.35157587       0.73972115       2.05445968
H       -0.34923085       1.77326949       0.64951757
H        1.99691262      -0.47488939      -1.19703661
