16
Frame=0 idx=003231 GeodesicLength=0.0 rxn_smarts="[C:1]([O:2][C@@:3]1([H:10])[C:4]([H:11])([H:12])[C@:5]1([C:6]([H:14])([H:15])[H:16])[H:13])([H:7])([H:8])[H:9]>>[C:1]([O+:2]=[C-:3][C:4]([C:5]([C:6]([H:14])([H:15])[H:16])([H:10])[H:13])([H:11])[H:12])([H:7])([H:8])[H:9]"
C       -2.18022649      -0.76336792       0.46605132
O       -1.10273290       0.10127863       0.77327505
C       -0.72462990       0.89222705      -0.27131999
C        0.57693892       1.57296250       0.07221219
C        1.04993355       0.39225919      -0.70747128
C        1.62766537      -0.79428775       0.00559080
H       -2.55294284      -1.16179731       1.40888108
H       -1.84382669      -1.59205201      -0.16651908
H       -2.97197390      -0.21934347      -0.05279534
H       -0.19631181       0.14631042      -1.18290129
H        0.81982285       1.55209550       1.13100946
H        0.72783567       2.54960489      -0.37374958
H        1.44171063       0.61516922      -1.69666044
H        1.72510466      -1.65379367      -0.65945047
H        0.98715651      -1.07397813       0.84511641
H        2.61647640      -0.56328710       0.40873121
16
Frame=1 idx=003231 GeodesicLength=0.05812931814020554 rxn_smarts="[C:1]([O:2][C@@:3]1([H:10])[C:4]([H:11])([H:12])[C@:5]1([C:6]([H:14])([H:15])[H:16])[H:13])([H:7])([H:8])[H:9]>>[C:1]([O+:2]=[C-:3][C:4]([C:5]([C:6]([H:14])([H:15])[H:16])([H:10])[H:13])([H:11])[H:12])([H:7])([H:8])[H:9]"
C       -2.19128532      -0.76050713       0.47407223
O       -1.11358079       0.10445557       0.78032434
C       -0.72135009       0.88142983      -0.26675231
C        0.57582326       1.56642310       0.07749296
C        1.05226220       0.39207690      -0.71201414
C        1.63642645      -0.79493441      -0.00347105
H       -2.58760041      -1.12859796       1.41964313
H       -1.84596834      -1.60878444      -0.12663201
H       -2.96889520      -0.22766645      -0.07689583
H       -0.19389449       0.15129966      -1.20827024
H        0.82235044       1.54401657       1.13547869
H        0.71328656       2.54620479      -0.36668126
H        1.46122730       0.62986829      -1.69074023
H        1.74422008      -1.64943260      -0.67343638
H        0.99564584      -1.08694183       0.83152449
H        2.62133251      -0.55890989       0.40635761
16
Frame=2 idx=003231 GeodesicLength=0.11618292200306467 rxn_smarts="[C:1]([O:2][C@@:3]1([H:10])[C:4]([H:11])([H:12])[C@:5]1([C:6]([H:14])([H:15])[H:16])[H:13])([H:7])([H:8])[H:9]>>[C:1]([O+:2]=[C-:3][C:4]([C:5]([C:6]([H:14])([H:15])[H:16])([H:10])[H:13])([H:11])[H:12])([H:7])([H:8])[H:9]"
C       -2.20212359      -0.75772331       0.48225883
O       -1.12483822       0.10834502       0.78759217
C       -0.71798099       0.87030841      -0.26219854
C        0.57470783       1.55975258       0.08277098
C        1.05458140       0.39192873      -0.71669307
C        1.64493532      -0.79568069      -0.01272198
H       -2.62239940      -1.09461097       1.42915480
H       -1.84792433      -1.62505012      -0.08484966
H       -2.96475810      -0.23785940      -0.10121938
H       -0.19133647       0.15745430      -1.23412167
H        0.82495753       1.53577599       1.13991297
H        0.69865890       2.54256831      -0.35945406
H        1.48077323       0.64470109      -1.68428789
H        1.76291647      -1.64499351      -0.68763602
H        1.00394522      -1.09997073       0.81759801
H        2.62588520      -0.55494572       0.40389451
16
Frame=3 idx=003231 GeodesicLength=0.1741498085730045 rxn_smarts="[C:1]([O:2][C@@:3]1([H:10])[C:4]([H:11])([H:12])[C@:5]1([C:6]([H:14])([H:15])[H:16])[H:13])([H:7])([H:8])[H:9]>>[C:1]([O+:2]=[C-:3][C:4]([C:5]([C:6]([H:14])([H:15])[H:16])([H:10])[H:13])([H:11])[H:12])([H:7])([H:8])[H:9]"
C       -2.21276679      -0.75500641       0.49062380
O       -1.13651958       0.11296460       0.79502820
C       -0.71450844       0.85881086      -0.25769011
C        0.57358292       1.55293444       0.08802982
C        1.05691664       0.39181388      -0.72151504
C        1.65321646      -0.79652096      -0.02215721
H       -2.65727401      -1.05993250       1.43733043
H       -1.84984975      -1.64071408      -0.04118306
H       -2.95956425      -0.24993180      -0.12559350
H       -0.18859684       0.16482310      -1.26044215
H        0.82761590       1.52736489       1.14429622
H        0.68393415       2.53867464      -0.35208112
H        1.50036245       0.65964113      -1.67729129
H        1.78126748      -1.64046242      -0.70204562
H        1.01204561      -1.11308678       0.80330388
H        2.63013806      -0.55137258       0.40138675
16
Frame=4 idx=003231 GeodesicLength=0.2320381216059541 rxn_smarts="[C:1]([O:2][C@@:3]1([H:10])[C:4]([H:11])([H:12])[C@:5]1([C:6]([H:14])([H:15])[H:16])[H:13])([H:7])([H:8])[H:9]>>[C:1]([O+:2]=[C-:3][C:4]([C:5]([C:6]([H:14])([H:15])[H:16])([H:10])[H:13])([H:11])[H:12])([H:7])([H:8])[H:9]"
C       -2.22323338      -0.75234565       0.49918709
O       -1.14863812       0.11834303       0.80258597
C       -0.71091992       0.84689786      -0.25323991
C        0.57244469       1.54595425       0.09326699
C        1.05928950       0.39173854      -0.72648842
C        1.66129197      -0.79745401      -0.03179202
H       -2.69226457      -1.02458228       1.44405298
H       -1.85184175      -1.65566244       0.00446662
H       -2.95326649      -0.26398506      -0.14991401
H       -0.18564170       0.17347021      -1.28720883
H        0.83031234       1.51876375       1.14862718
H        0.66909900       2.53450823      -0.34455512
H        1.51999373       0.67467768      -1.66974379
H        1.79932785      -1.63582428      -0.71668964
H        1.01994694      -1.12631480       0.78859750
H        2.63409990      -0.54818504       0.39884741
16
Frame=5 idx=003231 GeodesicLength=0.28976254291047054 rxn_smarts="[C:1]([O:2][C@@:3]1([H:10])[C:4]([H:11])([H:12])[C@:5]1([C:6]([H:14])([H:15])[H:16])[H:13])([H:7])([H:8])[H:9]>>[C:1]([O+:2]=[C-:3][C:4]([C:5]([C:6]([H:14])([H:15])[H:16])([H:10])[H:13])([H:11])[H:12])([H:7])([H:8])[H:9]"
C       -2.23354109      -0.74973611       0.50794246
O       -1.16126387       0.12451531       0.81013564
C       -0.70720273       0.83451622      -0.24890786
C        0.57127220       1.53878711       0.09848195
C        1.06172019       0.39170722      -0.73162025
C        1.66918756      -0.79848735      -0.04163722
H       -2.72741350      -0.98858767       1.44922568
H       -1.85385877      -1.66977366       0.05214642
H       -2.94586172      -0.28003115      -0.17394442
H       -0.18242650       0.18346083      -1.31437469
H        0.83299301       1.50993110       1.15291597
H        0.65412714       2.53004198      -0.33687432
H        1.53967570       0.68980247      -1.66163429
H        1.81714932      -1.63108044      -0.73158323
H        1.02765755      -1.13967525       0.77344140
H        2.63778551      -0.54539061       0.39628678
16
Frame=6 idx=003231 GeodesicLength=0.34741197747946273 rxn_smarts="[C:1]([O:2][C@@:3]1([H:10])[C:4]([H:11])([H:12])[C@:5]1([C:6]([H:14])([H:15])[H:16])[H:13])([H:7])([H:8])[H:9]>>[C:1]([O+:2]=[C-:3][C:4]([C:5]([C:6]([H:14])([H:15])[H:16])([H:10])[H:13])([H:11])[H:12])([H:7])([H:8])[H:9]"
C       -2.24370758      -0.74716123       0.51692717
O       -1.17439460       0.13152125       0.81764260
C       -0.70334606       0.82164286      -0.24467328
C        0.57007009       1.53142330       0.10367949
C        1.06422430       0.39172847      -0.73691880
C        1.67691788      -0.79962062      -0.05171791
H       -2.76272804      -0.95195170       1.45272034
H       -1.85607410      -1.68291348       0.10201828
H       -2.93723963      -0.29825843      -0.19767241
H       -0.17893624       0.19486404      -1.34192094
H        0.83566279       1.50084901       1.15716537
H        0.63901431       2.52526830      -0.32901778
H        1.55939026       0.70501085      -1.65295631
H        1.83478847      -1.62620488      -0.74676684
H        1.03516791      -1.15320800       0.75777164
H        2.64119024      -0.54298974       0.39371940
16
Frame=7 idx=003231 GeodesicLength=0.4049765925047886 rxn_smarts="[C:1]([O:2][C@@:3]1([H:10])[C:4]([H:11])([H:12])[C@:5]1([C:6]([H:14])([H:15])[H:16])[H:13])([H:7])([H:8])[H:9]>>[C:1]([O+:2]=[C-:3][C:4]([C:5]([C:6]([H:14])([H:15])[H:16])([H:10])[H:13])([H:11])[H:12])([H:7])([H:8])[H:9]"
C       -2.25375239      -0.74461244       0.52613868
O       -1.18806296       0.13940841       0.82501876
C       -0.69933650       0.80823849      -0.24055801
C        0.56883346       1.52384479       0.10884994
C        1.06682005       0.39180351      -0.74238725
C        1.68450297      -0.80085374      -0.06203339
H       -2.79812403      -0.91478183       1.45446083
H       -1.85859046      -1.69492988       0.15407677
H       -2.92741613      -0.31869236      -0.22092652
H       -0.17514425       0.20772984      -1.36979550
H        0.83829842       1.49149931       1.16136908
H        0.62375071       2.52016206      -0.32099318
H        1.57913212       0.72027457      -1.64370348
H        1.85230463      -1.62118001      -0.76224195
H        1.04247200      -1.16693562       0.74154615
H        2.64431237      -0.54097511       0.39117907
16
Frame=8 idx=003231 GeodesicLength=0.4624892024742486 rxn_smarts="[C:1]([O:2][C@@:3]1([H:10])[C:4]([H:11])([H:12])[C@:5]1([C:6]([H:14])([H:15])[H:16])[H:13])([H:7])([H:8])[H:9]>>[C:1]([O+:2]=[C-:3][C:4]([C:5]([C:6]([H:14])([H:15])[H:16])([H:10])[H:13])([H:11])[H:12])([H:7])([H:8])[H:9]"
C       -2.26367643      -0.74208563       0.53559233
O       -1.20230265       0.14823114       0.83216813
C       -0.69516454       0.79428292      -0.23656557
C        0.56756203       1.51603621       0.11399971
C        1.06951777       0.39193886      -0.74803419
C        1.69195081      -0.80219213      -0.07260739
H       -2.83363796      -0.87710590       1.45428149
H       -1.86145548      -1.70564448       0.20846125
H       -2.91630764      -0.34149598      -0.24355874
H       -0.17103464       0.22213393      -1.39795526
H        0.84088317       1.48184967       1.16553640
H        0.60834093       2.51470947      -0.31278216
H        1.59888523       0.73558718      -1.63387013
H        1.86973745      -1.61599022      -0.77804162
H        1.04955920      -1.18089179       0.72470412
H        2.64714274      -0.53936326       0.38867163
16
Frame=9 idx=003231 GeodesicLength=0.5197395029935541 rxn_smarts="[C:1]([O:2][C@@:3]1([H:10])[C:4]([H:11])([H:12])[C@:5]1([C:6]([H:14])([H:15])[H:16])[H:13])([H:7])([H:8])[H:9]>>[C:1]([O+:2]=[C-:3][C:4]([C:5]([C:6]([H:14])([H:15])[H:16])([H:10])[H:13])([H:11])[H:12])([H:7])([H:8])[H:9]"
C       -2.27347919      -0.73956986       0.54527186
O       -1.21722297       0.15806112       0.83888637
C       -0.69082494       0.77973804      -0.23278253
C        0.56623418       1.50796407       0.11911772
C        1.07232632       0.39212671      -0.75385327
C        1.69928057      -0.80363773      -0.08342818
H       -2.86916190      -0.83910957       1.45216197
H       -1.86456038      -1.71487393       0.26501868
H       -2.90403612      -0.36653987      -0.26526037
H       -0.16657226       0.23809393      -1.42625722
H        0.84333756       1.47184693       1.16967086
H        0.59278615       2.50886298      -0.30440044
H        1.61863823       0.75089937      -1.62345447
H        1.88712147      -1.61064019      -0.79413402
H        1.05644290      -1.19506711       0.70723673
H        2.64969038      -0.53815489       0.38620631
16
Frame=10 idx=003231 GeodesicLength=0.5769395720286657 rxn_smarts="[C:1]([O:2][C@@:3]1([H:10])[C:4]([H:11])([H:12])[C@:5]1([C:6]([H:14])([H:15])[H:16])[H:13])([H:7])([H:8])[H:9]>>[C:1]([O+:2]=[C-:3][C:4]([C:5]([C:6]([H:14])([H:15])[H:16])([H:10])[H:13])([H:11])[H:12])([H:7])([H:8])[H:9]"
C       -2.28313828      -0.73706729       0.55520801
O       -1.23283428       0.16899975       0.84510950
C       -0.68631177       0.76463643      -0.22914193
C        0.56487522       1.49963553       0.12423223
C        1.07523952       0.39238864      -0.75985567
C        1.70646526      -0.80520933      -0.09454891
H       -2.90477602      -0.80076622       1.44782273
H       -1.86802988      -1.72239893       0.32411922
H       -2.89031522      -0.39425523      -0.28602681
H       -0.16178736       0.25574012      -1.45469899
H        0.84569706       1.46146689       1.17380162
H        0.57712111       2.50264239      -0.29579070
H        1.63835359       0.76622486      -1.61244896
H        1.90444791      -1.60511100      -0.81060271
H        1.06307694      -1.20952037       0.68904795
H        2.65191620      -0.53740624       0.38377342
16
Frame=11 idx=003231 GeodesicLength=0.634043112691982 rxn_smarts="[C:1]([O:2][C@@:3]1([H:10])[C:4]([H:11])([H:12])[C@:5]1([C:6]([H:14])([H:15])[H:16])[H:13])([H:7])([H:8])[H:9]>>[C:1]([O+:2]=[C-:3][C:4]([C:5]([C:6]([H:14])([H:15])[H:16])([H:10])[H:13])([H:11])[H:12])([H:7])([H:8])[H:9]"
C       -2.29264008      -0.73457088       0.56540020
O       -1.24919297       0.18114181       0.85069492
C       -0.68162155       0.74898363      -0.22565052
C        0.56349309       1.49103301       0.12934400
C        1.07825341       0.39272413      -0.76603544
C        1.71349288      -0.80690758      -0.10597410
H       -2.94039005      -0.76225097       1.44115364
H       -1.87187701      -1.72799233       0.38573959
H       -2.87510837      -0.42472619      -0.30566259
H       -0.15667899       0.27512387      -1.48316645
H        0.84793685       1.45067418       1.17792816
H        0.56138307       2.49602331      -0.28694856
H        1.65799818       0.78151839      -1.60085532
H        1.92171496      -1.59938920      -0.82744076
H        1.06943865      -1.22425094       0.67010191
H        2.65379794      -0.53713423       0.38137135
16
Frame=12 idx=003231 GeodesicLength=0.6910536309626548 rxn_smarts="[C:1]([O:2][C@@:3]1([H:10])[C:4]([H:11])([H:12])[C@:5]1([C:6]([H:14])([H:15])[H:16])[H:13])([H:7])([H:8])[H:9]>>[C:1]([O+:2]=[C-:3][C:4]([C:5]([C:6]([H:14])([H:15])[H:16])([H:10])[H:13])([H:11])[H:12])([H:7])([H:8])[H:9]"
C       -2.30192582      -0.73208726       0.57586578
O       -1.26639420       0.19462391       0.85543461
C       -0.67676241       0.73283049      -0.22232199
C        0.56209839       1.48214634       0.13448295
C        1.08134848       0.39314996      -0.77239724
C        1.72031496      -0.80875633      -0.11774989
H       -2.97604976      -0.72363382       1.43187710
H       -1.87599902      -1.73133472       0.45014836
H       -2.85819566      -0.45828975      -0.32397160
H       -0.15125973       0.29634994      -1.51157496
H        0.85001948       1.43939095       1.18209441
H        0.54564431       2.48900933      -0.27780505
H        1.67754351       0.79677528      -1.58865912
H        1.93887182      -1.59346971      -0.84471085
H        1.07546482      -1.23929487       0.65031777
H        2.65528082      -0.53740974       0.37896973
16
Frame=13 idx=003231 GeodesicLength=0.7477913980221552 rxn_smarts="[C:1]([O:2][C@@:3]1([H:10])[C:4]([H:11])([H:12])[C@:5]1([C:6]([H:14])([H:15])[H:16])[H:13])([H:7])([H:8])[H:9]>>[C:1]([O+:2]=[C-:3][C:4]([C:5]([C:6]([H:14])([H:15])[H:16])([H:10])[H:13])([H:11])[H:12])([H:7])([H:8])[H:9]"
C       -2.31091718      -0.72960387       0.58658419
O       -1.28461090       0.20964195       0.85902017
C       -0.67176123       0.71625996      -0.21923204
C        0.56069306       1.47296131       0.13965210
C        1.08449757       0.39366051      -0.77891634
C        1.72687648      -0.81077516      -0.12985994
H       -3.01159799      -0.68533721       1.41990448
H       -1.88013462      -1.73208975       0.51720154
H       -2.83956366      -0.49491478      -0.34059660
H       -0.14554298       0.31946374      -1.53976144
H        0.85186554       1.42754959       1.18631734
H        0.52999868       2.48157559      -0.26835867
H        1.69695136       0.81190316      -1.57584894
H        1.95580979      -1.58739678      -0.86236023
H        1.08110326      -1.25459356       0.62971131
H        2.65633282      -0.53830470       0.37654307
16
Frame=14 idx=003231 GeodesicLength=0.8044649964404192 rxn_smarts="[C:1]([O:2][C@@:3]1([H:10])[C:4]([H:11])([H:12])[C@:5]1([C:6]([H:14])([H:15])[H:16])[H:13])([H:7])([H:8])[H:9]>>[C:1]([O+:2]=[C-:3][C:4]([C:5]([C:6]([H:14])([H:15])[H:16])([H:10])[H:13])([H:11])[H:12])([H:7])([H:8])[H:9]"
C       -2.31950855      -0.72715504       0.59759594
O       -1.30391311       0.22638209       0.86125542
C       -0.66663562       0.69939926      -0.21632812
C        0.55931755       1.46349626       0.14492253
C        1.08766265       0.39430465      -0.78560717
C        1.73305816      -0.81300742      -0.14240517
H       -3.04716665      -0.64732960       1.40472544
H       -1.88428752      -1.72983062       0.58756355
H       -2.81863796      -0.53537978      -0.35544104
H       -0.13956041       0.34467839      -1.56770687
H        0.85347839       1.41505620       1.19067889
H        0.51457536       2.47378968      -0.25846032
H        1.71619304       0.82694781      -1.56240529
H        1.97240274      -1.58115549      -0.88055072
H        1.08619424      -1.27023794       0.60812224
H        2.65682769      -0.53995844       0.37404068
16
Frame=15 idx=003231 GeodesicLength=0.8610235086595145 rxn_smarts="[C:1]([O:2][C@@:3]1([H:10])[C:4]([H:11])([H:12])[C@:5]1([C:6]([H:14])([H:15])[H:16])[H:13])([H:7])([H:8])[H:9]>>[C:1]([O+:2]=[C-:3][C:4]([C:5]([C:6]([H:14])([H:15])[H:16])([H:10])[H:13])([H:11])[H:12])([H:7])([H:8])[H:9]"
C       -2.32759215      -0.72474847       0.60890624
O       -1.32445338       0.24504063       0.86179049
C       -0.66141857       0.68237297      -0.21366298
C        0.55798817       1.45374335       0.15031943
C        1.09080887       0.39510406      -0.79245374
C        1.73874345      -0.81547903      -0.15541099
H       -3.08262430      -0.60996893       1.38612879
H       -1.88828979      -1.72409699       0.66134594
H       -2.79514580      -0.57995534      -0.36816145
H       -0.13330308       0.37210625      -1.59530326
H        0.85477320       1.40180798       1.19521768
H        0.49951938       2.46566562      -0.24804197
H        1.73525516       0.84186395      -1.54829235
H        1.98850336      -1.57475508      -0.89930282
H        1.09058636      -1.28622284       0.58548174
H        2.65664914      -0.54247811       0.37143925
16
Frame=16 idx=003231 GeodesicLength=0.9175867576340085 rxn_smarts="[C:1]([O:2][C@@:3]1([H:10])[C:4]([H:11])([H:12])[C@:5]1([C:6]([H:14])([H:15])[H:16])[H:13])([H:7])([H:8])[H:9]>>[C:1]([O+:2]=[C-:3][C:4]([C:5]([C:6]([H:14])([H:15])[H:16])([H:10])[H:13])([H:11])[H:12])([H:7])([H:8])[H:9]"
C       -2.33491248      -0.72242957       0.62058544
O       -1.34650097       0.26598774       0.86015128
C       -0.65618900       0.66547523      -0.21130177
C        0.55673470       1.44373970       0.15596733
C        1.09385801       0.39614453      -0.79945858
C        1.74368963      -0.81829727      -0.16901925
H       -3.11814391      -0.57342563       1.36332993
H       -1.89176782      -1.71414718       0.73951635
H       -2.76815003      -0.62969071      -0.37842853
H       -0.12679827       0.40208323      -1.62252775
H        0.85565593       1.38760406       1.20010112
H        0.48506532       2.45732959      -0.23685173
H        1.75412567       0.85669520      -1.53344334
H        2.00378785      -1.56826105      -0.91884028
H        1.09396430      -1.30263167       0.56157372
H        2.65558106      -0.54617621       0.36864605
