12
Frame=0 idx=001416 GeodesicLength=0.0 rxn_smarts="[C:1]([C:2](=[O:3])[C:4]([C:5](=[O:6])[H:12])([H:10])[H:11])([H:7])([H:8])[H:9]>>[C:1](=[C:2]1[O:3][C@:5]([O:6][H:7])([H:12])[C:4]1([H:10])[H:11])([H:8])[H:9]"
C        1.53603901       0.30194817      -0.49988369
C        0.47893893       0.68533634       0.28294942
O       -0.29423675       1.68829949       0.15699742
C       -0.34699643      -0.38345647       1.00387706
C       -1.36640574      -0.24766363      -0.08627916
O       -1.04479135      -0.60102201      -1.25888386
H        0.00658951      -0.52111047      -1.27924671
H        2.13659789      -0.55190260      -0.21070836
H        1.96042009       1.01684842      -1.19424306
H        0.06650662      -1.39100927       1.06733603
H       -0.72778740      -0.03048498       1.95712321
H       -2.40487435       0.03421701       0.06096167
12
Frame=1 idx=001416 GeodesicLength=0.08975820550488804 rxn_smarts="[C:1]([C:2](=[O:3])[C:4]([C:5](=[O:6])[H:12])([H:10])[H:11])([H:7])([H:8])[H:9]>>[C:1](=[C:2]1[O:3][C@:5]([O:6][H:7])([H:12])[C:4]1([H:10])[H:11])([H:8])[H:9]"
C        1.53419060       0.29927259      -0.50675827
C        0.48380032       0.68350277       0.29023811
O       -0.30023755       1.67766076       0.14811162
C       -0.34871653      -0.38449668       1.00450767
C       -1.37069020      -0.24336275      -0.08551595
O       -1.05675778      -0.61649147      -1.25572986
H        0.01617612      -0.52838635      -1.29204826
H        2.14938636      -0.53972367      -0.20436335
H        1.96082722       1.02450248      -1.18906766
H        0.06153896      -1.39354802       1.06262897
H       -0.72630546      -0.03708273       1.96121541
H       -2.40321206       0.05815308       0.06678158
12
Frame=2 idx=001416 GeodesicLength=0.17941795319775886 rxn_smarts="[C:1]([C:2](=[O:3])[C:4]([C:5](=[O:6])[H:12])([H:10])[H:11])([H:7])([H:8])[H:9]>>[C:1](=[C:2]1[O:3][C@:5]([O:6][H:7])([H:12])[C:4]1([H:10])[H:11])([H:8])[H:9]"
C        1.53238821       0.29663443      -0.51329474
C        0.48866238       0.68178021       0.29760866
O       -0.30586149       1.66703714       0.13944084
C       -0.35047031      -0.38543036       1.00513490
C       -1.37495790      -0.23898897      -0.08479584
O       -1.06899755      -0.63176970      -1.25236103
H        0.02614517      -0.53565406      -1.30511149
H        2.16189217      -0.52727639      -0.19825630
H        1.96092375       1.03168135      -1.18401590
H        0.05651127      -1.39595010       1.05794787
H       -0.72495433      -0.04367787       1.96525124
H       -2.40128137       0.08161432       0.07245178
12
Frame=3 idx=001416 GeodesicLength=0.2690079461717 rxn_smarts="[C:1]([C:2](=[O:3])[C:4]([C:5](=[O:6])[H:12])([H:10])[H:11])([H:7])([H:8])[H:9]>>[C:1](=[C:2]1[O:3][C@:5]([O:6][H:7])([H:12])[C:4]1([H:10])[H:11])([H:8])[H:9]"
C        1.53063916       0.29403567      -0.51948991
C        0.49351740       0.68016503       0.30505716
O       -0.31112663       1.65642965       0.13097304
C       -0.35225741      -0.38626402       1.00575456
C       -1.37921442      -0.23454409      -0.08411747
O       -1.08153754      -0.64684960      -1.24878352
H        0.03654590      -0.54293562      -1.31843101
H        2.17412837      -0.51456962      -0.19236670
H        1.96071144       1.03840453      -1.17910280
H        0.05142381      -1.39822265       1.05327971
H       -0.72372740      -0.05028016       1.96922934
H       -2.39910269       0.10463089       0.07799760
12
Frame=4 idx=001416 GeodesicLength=0.3585519317377582 rxn_smarts="[C:1]([C:2](=[O:3])[C:4]([C:5](=[O:6])[H:12])([H:10])[H:11])([H:7])([H:8])[H:9]>>[C:1](=[C:2]1[O:3][C@:5]([O:6][H:7])([H:12])[C:4]1([H:10])[H:11])([H:8])[H:9]"
C        1.52895146       0.29147682      -0.52534094
C        0.49835846       0.67865405       0.31257921
O       -0.31604999       1.64583945       0.12269362
C       -0.35407730      -0.38700336       1.00636181
C       -1.38346443      -0.23002825      -0.08348068
O       -1.09441203      -0.66172528      -1.24500027
H        0.04742859      -0.55025170      -1.33200100
H        2.18610668      -0.50161327      -0.18667759
H        1.96019695       1.04469437      -1.17433849
H        0.04627636      -1.40037211       1.04861119
H       -0.72261868      -0.05689763       1.97314763
H       -2.39669605       0.12722692       0.08344550
12
Frame=5 idx=001416 GeodesicLength=0.44810106633246194 rxn_smarts="[C:1]([C:2](=[O:3])[C:4]([C:5](=[O:6])[H:12])([H:10])[H:11])([H:7])([H:8])[H:9]>>[C:1](=[C:2]1[O:3][C@:5]([O:6][H:7])([H:12])[C:4]1([H:10])[H:11])([H:8])[H:9]"
C        1.52732991       0.28895902      -0.53085223
C        0.50317481       0.67724348       0.32016394
O       -0.32065166       1.63526420       0.11458249
C       -0.35592919      -0.38765632       1.00694818
C       -1.38771712      -0.22544418      -0.08288364
O       -1.10766780      -0.67639804      -1.24101358
H        0.05885016      -0.55762597      -1.34581932
H        2.19784713      -0.48840983      -0.18115813
H        1.95939406       1.05057432      -1.16972487
H        0.04106997      -1.40240658       1.04392273
H       -0.72161671      -0.06354164       1.97700150
H       -2.39408355       0.14944154       0.08883293
12
Frame=6 idx=001416 GeodesicLength=0.5376569398379341 rxn_smarts="[C:1]([C:2](=[O:3])[C:4]([C:5](=[O:6])[H:12])([H:10])[H:11])([H:7])([H:8])[H:9]>>[C:1](=[C:2]1[O:3][C@:5]([O:6][H:7])([H:12])[C:4]1([H:10])[H:11])([H:8])[H:9]"
C        1.52578171       0.28647833      -0.53602541
C        0.50795887       0.67592901       0.32780228
O       -0.32494646       1.62470351       0.10661951
C       -0.35781318      -0.38822762       1.00750788
C       -1.39198278      -0.22078768      -0.08232172
O       -1.12134930      -0.69086742      -1.23682052
H        0.07086209      -0.56507555      -1.35988514
H        2.20935931      -0.47496664      -0.17579066
H        1.95832015       1.05607311      -1.16526113
H        0.03580144      -1.40433214       1.03919909
H       -0.72071044      -0.07021764       1.98078880
H       -2.39128140       0.17129074       0.09418702
12
Frame=7 idx=001416 GeodesicLength=0.6272643989214771 rxn_smarts="[C:1]([C:2](=[O:3])[C:4]([C:5](=[O:6])[H:12])([H:10])[H:11])([H:7])([H:8])[H:9]>>[C:1](=[C:2]1[O:3][C@:5]([O:6][H:7])([H:12])[C:4]1([H:10])[H:11])([H:8])[H:9]"
C        1.52431355       0.28403240      -0.54086670
C        0.51270032       0.67470640       0.33548092
O       -0.32895117       1.61415481       0.09877990
C       -0.35972871      -0.38872468       1.00803069
C       -1.39627423      -0.21605563      -0.08179052
O       -1.13551970      -0.70514041      -1.23241247
H        0.08352554      -0.57262143      -1.37419902
H        2.22066067      -0.46128169      -0.17054500
H        1.95699520       1.06121816      -1.16094115
H        0.03046901      -1.40615699       1.03441729
H       -0.71988542      -0.07693599       1.98450442
H       -2.38830506       0.19280506       0.09954164
12
Frame=8 idx=001416 GeodesicLength=0.7169085005324467 rxn_smarts="[C:1]([C:2](=[O:3])[C:4]([C:5](=[O:6])[H:12])([H:10])[H:11])([H:7])([H:8])[H:9]>>[C:1](=[C:2]1[O:3][C@:5]([O:6][H:7])([H:12])[C:4]1([H:10])[H:11])([H:8])[H:9]"
C        1.52293151       0.28161766      -0.54538087
C        0.51738939       0.67357200       0.34318715
O       -0.33268139       1.60361534       0.09103950
C       -0.36167569      -0.38915318       1.00850894
C       -1.40060565      -0.21124361      -0.08128225
O       -1.15023073      -0.71922395      -1.22778077
H        0.09689971      -0.58027882      -1.38876344
H        2.23176087      -0.44735660      -0.16540093
H        1.95543915       1.06603532      -1.15675726
H        0.02507027      -1.40788723       1.02955815
H       -0.71912734      -0.08370480       1.98814556
H       -2.38517011       0.21400788       0.10492623
12
Frame=9 idx=001416 GeodesicLength=0.806642427877422 rxn_smarts="[C:1]([C:2](=[O:3])[C:4]([C:5](=[O:6])[H:12])([H:10])[H:11])([H:7])([H:8])[H:9]>>[C:1](=[C:2]1[O:3][C@:5]([O:6][H:7])([H:12])[C:4]1([H:10])[H:11])([H:8])[H:9]"
C        1.52165238       0.27923878      -0.54955333
C        0.52201332       0.67252383       0.35090920
O       -0.33615803       1.59307898       0.08336891
C       -0.36365544      -0.38951848       1.00893315
C       -1.40498829      -0.20635118      -0.08079310
O       -1.16555287      -0.73312579      -1.22290825
H        0.11106989      -0.58804718      -1.40358733
H        2.24266058      -0.43319084      -0.16034956
H        1.95366548       1.07052886      -1.15270374
H        0.01960478      -1.40952768       1.02460196
H       -0.71842425      -0.09053052       1.99170314
H       -2.38188757       0.23492123       0.11037894
12
Frame=10 idx=001416 GeodesicLength=0.8964433917703962 rxn_smarts="[C:1]([C:2](=[O:3])[C:4]([C:5](=[O:6])[H:12])([H:10])[H:11])([H:7])([H:8])[H:9]>>[C:1](=[C:2]1[O:3][C@:5]([O:6][H:7])([H:12])[C:4]1([H:10])[H:11])([H:8])[H:9]"
C        1.52047014       0.27688342      -0.55342356
C        0.52656164       0.67155564       0.35862342
O       -0.33939461       1.58254035       0.07573368
C       -0.36566572      -0.38983054       1.00928819
C       -1.40944394      -0.20137062      -0.08031293
O       -1.18156886      -0.74687030      -1.21777161
H        0.12608497      -0.59596061      -1.41867889
H        2.25339456      -0.41877608      -0.15532883
H        1.95172089       1.07475846      -1.14875422
H        0.01406867      -1.41108928       1.01951529
H       -0.71775146      -0.09742867       1.99517303
H       -2.37847628       0.25558825       0.11593643
12
Frame=11 idx=001416 GeodesicLength=0.9863126230844098 rxn_smarts="[C:1]([C:2](=[O:3])[C:4]([C:5](=[O:6])[H:12])([H:10])[H:11])([H:7])([H:8])[H:9]>>[C:1](=[C:2]1[O:3][C@:5]([O:6][H:7])([H:12])[C:4]1([H:10])[H:11])([H:8])[H:9]"
C        1.51939836       0.27454781      -0.55699102
C        0.53102265       0.67066442       0.36631494
O       -0.34240794       1.57199211       0.06809958
C       -0.36770804      -0.39009529       1.00956277
C       -1.41398864      -0.19629638      -0.07983458
O       -1.19835919      -0.76047372      -1.21234084
H        0.14202417      -0.60402289      -1.43405425
H        2.26396954      -0.40410889      -0.15031777
H        1.94962991       1.07874699      -1.14489492
H        0.00845804      -1.41257767       1.01427463
H       -0.71709394      -0.10440739       1.99854718
H       -2.37494491       0.27603088       0.12163428
12
Frame=12 idx=001416 GeodesicLength=1.0762367181682735 rxn_smarts="[C:1]([C:2](=[O:3])[C:4]([C:5](=[O:6])[H:12])([H:10])[H:11])([H:7])([H:8])[H:9]>>[C:1](=[C:2]1[O:3][C@:5]([O:6][H:7])([H:12])[C:4]1([H:10])[H:11])([H:8])[H:9]"
C        1.51844657       0.27223183      -0.56026075
C        0.53538384       0.66984814       0.37396629
O       -0.34521443       1.56142600       0.06043172
C       -0.36978224      -0.39031998       1.00974393
C       -1.41863980      -0.19112317      -0.07935032
O       -1.21601249      -0.77395332      -1.20657945
H        0.15897148      -0.61224106      -1.44972725
H        2.27439326      -0.38918135      -0.14528814
H        1.94741838       1.08251394      -1.14111014
H        0.00277132      -1.41399919       1.00885168
H       -0.71643364      -0.11147941       2.00181799
H       -2.37130224       0.29627755       0.12750444
12
Frame=13 idx=001416 GeodesicLength=1.1661702974539039 rxn_smarts="[C:1]([C:2](=[O:3])[C:4]([C:5](=[O:6])[H:12])([H:10])[H:11])([H:7])([H:8])[H:9]>>[C:1](=[C:2]1[O:3][C@:5]([O:6][H:7])([H:12])[C:4]1([H:10])[H:11])([H:8])[H:9]"
C        1.51762745       0.26993254      -0.56323659
C        0.53963284       0.66910540       0.38156072
O       -0.34782877       1.55083358       0.05269321
C       -0.37188910      -0.39051030       1.00981950
C       -1.42341630      -0.18584308      -0.07885008
O       -1.23461685      -0.78732665      -1.20044759
H        0.17701137      -0.62061694      -1.46571698
H        2.28467038      -0.37399004      -0.14021706
H        1.94511372       1.08608161      -1.13738173
H       -0.00299514      -1.41535865       1.00322027
H       -0.71575299      -0.11865397       2.00497857
H       -2.36755661       0.31634650       0.13357775
12
Frame=14 idx=001416 GeodesicLength=1.2561075821093233 rxn_smarts="[C:1]([C:2](=[O:3])[C:4]([C:5](=[O:6])[H:12])([H:10])[H:11])([H:7])([H:8])[H:9]>>[C:1](=[C:2]1[O:3][C@:5]([O:6][H:7])([H:12])[C:4]1([H:10])[H:11])([H:8])[H:9]"
C        1.51695420       0.26765219      -0.56592071
C        0.54375503       0.66843474       0.38907905
O       -0.35026944       1.54020187       0.04483943
C       -0.37402961      -0.39067503       1.00977334
C       -1.42833988      -0.18044947      -0.07832379
O       -1.25428113      -0.80061549      -1.19389283
H        0.19625240      -0.62915444      -1.48204167
H        2.29480592      -0.35852365      -0.13507636
H        1.94274314       1.08946755      -1.13369129
H       -0.00884412      -1.41666288       0.99734560
H       -0.71503213      -0.12594708       2.00801870
H       -2.36371439       0.33627169       0.13989054
12
Frame=15 idx=001416 GeodesicLength=1.3459983716256967 rxn_smarts="[C:1]([C:2](=[O:3])[C:4]([C:5](=[O:6])[H:12])([H:10])[H:11])([H:7])([H:8])[H:9]>>[C:1](=[C:2]1[O:3][C@:5]([O:6][H:7])([H:12])[C:4]1([H:10])[H:11])([H:8])[H:9]"
C        1.51644166       0.26539079      -0.56831473
C        0.54773510       0.66783614       0.39650093
O       -0.35255281       1.52951724       0.03682551
C       -0.37620471      -0.39082147       1.00958961
C       -1.43343304      -0.17493517      -0.07776047
O       -1.27511517      -0.81383919      -1.18685805
H        0.21680194      -0.63785219      -1.49872357
H        2.30480317      -0.34277420      -0.12983830
H        1.94033543       1.09268977      -1.13002010
H       -0.01477865      -1.41791726       0.99119432
H       -0.71425068      -0.13337255       2.01092831
H       -2.35978225       0.35607808       0.14647655
12
Frame=16 idx=001416 GeodesicLength=1.435797134238768 rxn_smarts="[C:1]([C:2](=[O:3])[C:4]([C:5](=[O:6])[H:12])([H:10])[H:11])([H:7])([H:8])[H:9]>>[C:1](=[C:2]1[O:3][C@:5]([O:6][H:7])([H:12])[C:4]1([H:10])[H:11])([H:8])[H:9]"
C        1.51610583       0.26315013      -0.57042079
C        0.55155667       0.66730958       0.40380487
O       -0.35469587       1.51876307       0.02860107
C       -0.37841576      -0.39095863       1.00924997
C       -1.43872044      -0.16929234      -0.07714919
O       -1.29724368      -0.82701813      -1.17927512
H        0.23878237      -0.64671128      -1.51578604
H        2.31466593      -0.32672819      -0.12447227
H        1.93792031       1.09576521      -1.12634794
H       -0.02080236      -1.41912812       0.98472760
H       -0.71338729      -0.14094792       2.01369565
H       -2.35576571       0.37579662       0.15337220
