17
Frame=0 idx=011527 GeodesicLength=0.0 rxn_smarts="[C:1]([C@@:2]1([H:11])[N:3]([H:12])[C@:4]1([C@@:5]1([H:14])[C:6]([H:15])([H:16])[N:7]1[H:17])[H:13])([H:8])([H:9])[H:10]>>[C:1]([C-:2]([N:3]([C+:4]([C@@:5]1([H:14])[C:6]([H:15])([H:16])[N:7]1[H:17])[H:13])[H:12])[H:11])([H:8])([H:9])[H:10]"
C       -2.20788760      -0.38749972       0.00921542
C       -1.36364538      -0.15547247      -1.20516869
N       -0.11376361       0.35516910      -1.17461909
C        0.56269726      -0.67050386      -0.57888819
C        1.42104889      -0.45710637       0.59859578
C        2.07832897       0.85665158       0.82532545
N        1.00789576       0.41728611       1.70722997
H       -1.64356709      -0.22365225       0.92655556
H       -2.59775258      -1.40767259       0.05300224
H       -3.07949432       0.28119121       0.00566610
H       -1.87993670      -0.18663373      -2.16669640
H        0.25708272       1.12167922      -1.72233489
H        0.53155344      -1.64076078      -1.05061103
H        1.94479896      -1.34469378       0.93521740
H        3.06645192       0.89410735       1.26838325
H        1.86741970       1.65683980       0.12304739
H        0.14876962       0.89107111       1.44607965
17
Frame=1 idx=011527 GeodesicLength=0.060993776919351574 rxn_smarts="[C:1]([C@@:2]1([H:11])[N:3]([H:12])[C@:4]1([C@@:5]1([H:14])[C:6]([H:15])([H:16])[N:7]1[H:17])[H:13])([H:8])([H:9])[H:10]>>[C:1]([C-:2]([N:3]([C+:4]([C@@:5]1([H:14])[C:6]([H:15])([H:16])[N:7]1[H:17])[H:13])[H:12])[H:11])([H:8])([H:9])[H:10]"
C       -2.21905378      -0.39263250      -0.00056608
C       -1.36445928      -0.16100891      -1.20614698
N       -0.11844426       0.35930858      -1.17731668
C        0.54816106      -0.66702788      -0.57342668
C        1.41624220      -0.45751698       0.59780393
C        2.09716810       0.84452964       0.81741759
N        1.02542886       0.42466540       1.70765143
H       -1.68892295      -0.15610036       0.92169257
H       -2.55015093      -1.43102555       0.08251247
H       -3.12914407       0.22005195      -0.04850914
H       -1.87085715      -0.19422057      -2.17239338
H        0.23995694       1.17028070      -1.66270353
H        0.52801499      -1.63724783      -1.04663531
H        1.92930071      -1.35117880       0.93617524
H        3.08889990       0.86631931       1.25343850
H        1.89494189       1.64946930       0.11817736
H        0.17291777       0.91333450       1.45282868
17
Frame=2 idx=011527 GeodesicLength=0.12036144555998518 rxn_smarts="[C:1]([C@@:2]1([H:11])[N:3]([H:12])[C@:4]1([C@@:5]1([H:14])[C:6]([H:15])([H:16])[N:7]1[H:17])[H:13])([H:8])([H:9])[H:10]>>[C:1]([C-:2]([N:3]([C+:4]([C@@:5]1([H:14])[C:6]([H:15])([H:16])[N:7]1[H:17])[H:13])[H:12])[H:11])([H:8])([H:9])[H:10]"
C       -2.22842544      -0.39660533      -0.00986626
C       -1.36450077      -0.16623908      -1.20744745
N       -0.12190777       0.36312783      -1.18227334
C        0.53451899      -0.66363999      -0.56925448
C        1.41139809      -0.45789370       0.59632273
C        2.11427295       0.83263125       0.80984091
N        1.04134377       0.43079803       1.70738624
H       -1.73508105      -0.08952220       0.91241212
H       -2.50204213      -1.44750766       0.11529523
H       -3.17201421       0.15708942      -0.09989478
H       -1.86205708      -0.20153323      -2.17775445
H        0.22075002       1.21557358      -1.60030198
H        0.52438833      -1.63430769      -1.04272144
H        1.91433764      -1.35715892       0.93640242
H        3.10899560       0.83941213       1.23953904
H        1.92064298       1.64233657       0.11382000
H        0.19538008       0.93343901       1.45849548
17
Frame=3 idx=011527 GeodesicLength=0.1786592455840128 rxn_smarts="[C:1]([C@@:2]1([H:11])[N:3]([H:12])[C@:4]1([C@@:5]1([H:14])[C:6]([H:15])([H:16])[N:7]1[H:17])[H:13])([H:8])([H:9])[H:10]>>[C:1]([C-:2]([N:3]([C+:4]([C@@:5]1([H:14])[C:6]([H:15])([H:16])[N:7]1[H:17])[H:13])[H:12])[H:11])([H:8])([H:9])[H:10]"
C       -2.23620214      -0.39940098      -0.01871645
C       -1.36380384      -0.17099924      -1.20897623
N       -0.12425121       0.36695588      -1.18908723
C        0.52163781      -0.66020667      -0.56625607
C        1.40660401      -0.45821992       0.59414947
C        2.12972975       0.82105972       0.80264462
N        1.05589338       0.43559204       1.70667799
H       -1.78214485      -0.02398428       0.89883983
H       -2.45370042      -1.45721264       0.15086412
H       -3.20849900       0.09245652      -0.14832072
H       -1.85346091      -0.20841871      -2.18277517
H        0.19986055       1.25634322      -1.53598999
H        0.52059821      -1.63171225      -1.03898527
H        1.90011335      -1.36265693       0.93563822
H        3.12695813       0.81351584       1.22650089
H        1.94438524       1.63561227       0.11018667
H        0.21628194       0.95127615       1.46360531
17
Frame=4 idx=011527 GeodesicLength=0.2363375911905444 rxn_smarts="[C:1]([C@@:2]1([H:11])[N:3]([H:12])[C@:4]1([C@@:5]1([H:14])[C:6]([H:15])([H:16])[N:7]1[H:17])[H:13])([H:8])([H:9])[H:10]>>[C:1]([C-:2]([N:3]([C+:4]([C@@:5]1([H:14])[C:6]([H:15])([H:16])[N:7]1[H:17])[H:13])[H:12])[H:11])([H:8])([H:9])[H:10]"
C       -2.24266871      -0.40103417      -0.02712334
C       -1.36247559      -0.17515535      -1.21063297
N       -0.12563252       0.37111326      -1.19725303
C        0.50939970      -0.65663282      -0.56428609
C        1.40198594      -0.45850207       0.59131473
C        2.14364992       0.80994656       0.79590216
N        1.06934319       0.43890709       1.70581080
H       -1.83030792       0.04035616       0.88111909
H       -2.40549384      -1.46026588       0.18882862
H       -3.23903461       0.02631518      -0.19363743
H       -1.84506699      -0.21469273      -2.18745860
H        0.17798737       1.29161165      -1.47110527
H        0.51658428      -1.62927243      -1.03553416
H        1.88691047      -1.36773273       0.93365906
H        3.14305682       0.78881165       1.21415856
H        1.96602641       1.62954097       0.10752073
H        0.23573610       0.96668565       1.46871714
17
Frame=5 idx=011527 GeodesicLength=0.29362886994675585 rxn_smarts="[C:1]([C@@:2]1([H:11])[N:3]([H:12])[C@:4]1([C@@:5]1([H:14])[C:6]([H:15])([H:16])[N:7]1[H:17])[H:13])([H:8])([H:9])[H:10]>>[C:1]([C-:2]([N:3]([C+:4]([C@@:5]1([H:14])[C:6]([H:15])([H:16])[N:7]1[H:17])[H:13])[H:12])[H:11])([H:8])([H:9])[H:10]"
C       -2.24808782      -0.40153528      -0.03507629
C       -1.36062367      -0.17854167      -1.21223363
N       -0.12629072       0.37584803      -1.20611327
C        0.49769416      -0.65285989      -0.56313203
C        1.39763896      -0.45875515       0.58784271
C        2.15602654       0.79938493       0.78964483
N        1.08184463       0.44058144       1.70498389
H       -1.87977216       0.10309666       0.85946529
H       -2.35767065      -1.45679231       0.22884146
H       -3.26395049      -0.04105412      -0.23564813
H       -1.83682857      -0.22007097      -2.19167227
H        0.15622952       1.32069565      -1.40740666
H        0.51231890      -1.62681404      -1.03236285
H        1.87503785      -1.37242466       0.93023202
H        3.15741864       0.76545496       1.20229710
H        1.98528015       1.62431615       0.10605181
H        0.25373474       0.97947027       1.47428601
17
Frame=6 idx=011527 GeodesicLength=0.35076208068696396 rxn_smarts="[C:1]([C@@:2]1([H:11])[N:3]([H:12])[C@:4]1([C@@:5]1([H:14])[C:6]([H:15])([H:16])[N:7]1[H:17])[H:13])([H:8])([H:9])[H:10]>>[C:1]([C-:2]([N:3]([C+:4]([C@@:5]1([H:14])[C:6]([H:15])([H:16])[N:7]1[H:17])[H:13])[H:12])[H:11])([H:8])([H:9])[H:10]"
C       -2.25266916      -0.40103175      -0.04255291
C       -1.35837040      -0.18120751      -1.21372781
N       -0.12638686       0.38122893      -1.21526739
C        0.48644711      -0.64889275      -0.56268484
C        1.39359976      -0.45900161       0.58381267
C        2.16703046       0.78941778       0.78391269
N        1.09360112       0.44062545       1.70438674
H       -1.93068431       0.16403122       0.83399015
H       -2.31060487      -1.44695774       0.27053101
H       -3.28352331      -0.10965409      -0.27416879
H       -1.82879492      -0.22448486      -2.19545946
H        0.13512196       1.34383495      -1.34595922
H        0.50770244      -1.62430055      -1.02951166
H        1.86451330      -1.37680998       0.92536292
H        3.17030200       0.74348440       1.19082891
H        2.00226107       1.62003639       0.10589443
H        0.27045460       0.98968171       1.48061255
17
Frame=7 idx=011527 GeodesicLength=0.4078930894278458 rxn_smarts="[C:1]([C@@:2]1([H:11])[N:3]([H:12])[C@:4]1([C@@:5]1([H:14])[C:6]([H:15])([H:16])[N:7]1[H:17])[H:13])([H:8])([H:9])[H:10]>>[C:1]([C-:2]([N:3]([C+:4]([C@@:5]1([H:14])[C:6]([H:15])([H:16])[N:7]1[H:17])[H:13])[H:12])[H:11])([H:8])([H:9])[H:10]"
C       -2.25656608      -0.39961820      -0.04955299
C       -1.35580911      -0.18319106      -1.21506372
N       -0.12609722       0.38728032      -1.22441236
C        0.47561855      -0.64475116      -0.56285874
C        1.38985932      -0.45928977       0.57927926
C        2.17677454       0.78000204       0.77869392
N        1.10469154       0.43907315       1.70407905
H       -1.98320840       0.22296737       0.80470468
H       -2.26437251      -1.43082606       0.31377156
H       -3.29794888      -0.17956701      -0.30909253
H       -1.82098630      -0.22787519      -2.19881005
H        0.11508867       1.36158875      -1.28738362
H        0.50272623      -1.62172445      -1.02698116
H        1.85529385      -1.38099729       0.91909132
H        3.18186932       0.72280211       1.17967317
H        2.01708976       1.61669261       0.10706828
H        0.28597672       0.99743384       1.48779393
17
Frame=8 idx=011527 GeodesicLength=0.46507869917187766 rxn_smarts="[C:1]([C@@:2]1([H:11])[N:3]([H:12])[C@:4]1([C@@:5]1([H:14])[C:6]([H:15])([H:16])[N:7]1[H:17])[H:13])([H:8])([H:9])[H:10]>>[C:1]([C-:2]([N:3]([C+:4]([C@@:5]1([H:14])[C:6]([H:15])([H:16])[N:7]1[H:17])[H:13])[H:12])[H:11])([H:8])([H:9])[H:10]"
C       -2.25990673      -0.39746170      -0.05610360
C       -1.35302929      -0.18452575      -1.21621399
N       -0.12555412       0.39397766      -1.23332322
C        0.46515570      -0.64044722      -0.56354848
C        1.38637507      -0.45962755       0.57433471
C        2.18543042       0.77107027       0.77394647
N        1.11522209       0.43608737       1.70407027
H       -2.03748144       0.27946618       0.77165501
H       -2.21914636      -1.40853605       0.35817527
H       -3.30731139      -0.25081043      -0.34024311
H       -1.81344152      -0.23018014      -2.20173379
H        0.09633336       1.37469119      -1.23197469
H        0.49732145      -1.61909244      -1.02468390
H        1.84721351      -1.38503975       0.91158466
H        3.19231703       0.70325314       1.16875998
H        2.03003750       1.61418588       0.10949148
H        0.30046469       1.00298935       1.49580693
17
Frame=9 idx=011527 GeodesicLength=0.5223044765528425 rxn_smarts="[C:1]([C@@:2]1([H:11])[N:3]([H:12])[C@:4]1([C@@:5]1([H:14])[C:6]([H:15])([H:16])[N:7]1[H:17])[H:13])([H:8])([H:9])[H:10]>>[C:1]([C-:2]([N:3]([C+:4]([C@@:5]1([H:14])[C:6]([H:15])([H:16])[N:7]1[H:17])[H:13])[H:12])[H:11])([H:8])([H:9])[H:10]"
C       -2.26283478      -0.39477540      -0.06228170
C       -1.35011297      -0.18523829      -1.21717564
N       -0.12487286       0.40128719      -1.24181185
C        0.45498318      -0.63598200      -0.56460826
C        1.38309746      -0.45999451       0.56909507
C        2.19320531       0.76254605       0.76959033
N        1.12533937       0.43191076       1.70434864
H       -2.09361888       0.33287797       0.73496241
H       -2.17518676      -1.38031858       0.40321092
H       -3.31167049      -0.32322422      -0.36749742
H       -1.80617178      -0.23136030      -2.20427081
H        0.07890127       1.38390316      -1.17973319
H        0.49141131      -1.61640922      -1.02247004
H        1.84006941      -1.38895586       0.90307444
H        3.20186948       0.68465067       1.15798407
H        2.04144340       1.61237342       0.11299774
H        0.31414833       1.00670915       1.50458528
17
Frame=10 idx=011527 GeodesicLength=0.5796874952054508 rxn_smarts="[C:1]([C@@:2]1([H:11])[N:3]([H:12])[C@:4]1([C@@:5]1([H:14])[C:6]([H:15])([H:16])[N:7]1[H:17])[H:13])([H:8])([H:9])[H:10]>>[C:1]([C-:2]([N:3]([C+:4]([C@@:5]1([H:14])[C:6]([H:15])([H:16])[N:7]1[H:17])[H:13])[H:12])[H:11])([H:8])([H:9])[H:10]"
C       -2.26544270      -0.39163256      -0.06813844
C       -1.34712065      -0.18536830      -1.21797995
N       -0.12412564       0.40920821      -1.24981622
C        0.44504942      -0.63135939      -0.56598731
C        1.37997868      -0.46041975       0.56360806
C        2.20026923       0.75432225       0.76556893
N        1.13513412       0.42666396       1.70488959
H       -2.15179514       0.38301744       0.69444975
H       -2.13252448      -1.34606224       0.44873862
H       -3.31102144      -0.39706599      -0.39079555
H       -1.79919389      -0.23144752      -2.20647909
H        0.06264681       1.38991573      -1.13027342
H        0.48495660      -1.61368732      -1.02030223
H        1.83367767      -1.39282820       0.89367599
H        3.21070335       0.66678363       1.14728564
H        2.05160945       1.61112742       0.11748315
H        0.32719861       1.00883261       1.51407248
17
Frame=11 idx=011527 GeodesicLength=0.6372251806284175 rxn_smarts="[C:1]([C@@:2]1([H:11])[N:3]([H:12])[C@:4]1([C@@:5]1([H:14])[C:6]([H:15])([H:16])[N:7]1[H:17])[H:13])([H:8])([H:9])[H:10]>>[C:1]([C-:2]([N:3]([C+:4]([C@@:5]1([H:14])[C:6]([H:15])([H:16])[N:7]1[H:17])[H:13])[H:12])[H:11])([H:8])([H:9])[H:10]"
C       -2.26784736      -0.38818040      -0.07377299
C       -1.34410769      -0.18492377      -1.21864844
N       -0.12338268       0.41773088      -1.25720663
C        0.43525905      -0.62656976      -0.56753226
C        1.37698088      -0.46088394       0.55796941
C        2.20680542       0.74631484       0.76178840
N        1.14478003       0.42054491       1.70568222
H       -2.21214470       0.42928536       0.65010673
H       -2.09143394      -1.30583896       0.49423657
H       -3.30527971      -0.47218645      -0.41002924
H       -1.79248345      -0.23044290      -2.20841717
H        0.04739913       1.39330462      -1.08326557
H        0.47787434      -1.61092003      -1.01802116
H        1.82787468      -1.39666593       0.88356995
H        3.21901294       0.64946501       1.13652516
H        2.06082163       1.61030199       0.12278121
H        0.33987142       1.00966453       1.52423381
17
Frame=12 idx=011527 GeodesicLength=0.6949065269643532 rxn_smarts="[C:1]([C@@:2]1([H:11])[N:3]([H:12])[C@:4]1([C@@:5]1([H:14])[C:6]([H:15])([H:16])[N:7]1[H:17])[H:13])([H:8])([H:9])[H:10]>>[C:1]([C-:2]([N:3]([C+:4]([C@@:5]1([H:14])[C:6]([H:15])([H:16])[N:7]1[H:17])[H:13])[H:12])[H:11])([H:8])([H:9])[H:10]"
C       -2.27019291      -0.38456447      -0.07929352
C       -1.34114175      -0.18388256      -1.21921281
N       -0.12270678       0.42687597      -1.26385328
C        0.42549377      -0.62158748      -0.56907423
C        1.37407141      -0.46136084       0.55227802
C        2.21301588       0.73844499       0.75815053
N        1.15447973       0.41375012       1.70673398
H       -2.27481781       0.47105746       0.60193775
H       -2.05223829      -1.25973598       0.53918730
H       -3.29436690      -0.54842991      -0.42515213
H       -1.78600563      -0.22835479      -2.21016645
H        0.03298431       1.39455916      -1.03832421
H        0.47006406      -1.60807954      -1.01547039
H        1.82250274      -1.40047467       0.87292740
H        3.22701740       0.63250846       1.12554431
H        2.06938593       1.60976139       0.12871848
H        0.35245484       1.00951267       1.53506923
17
Frame=13 idx=011527 GeodesicLength=0.7526273550396629 rxn_smarts="[C:1]([C@@:2]1([H:11])[N:3]([H:12])[C@:4]1([C@@:5]1([H:14])[C:6]([H:15])([H:16])[N:7]1[H:17])[H:13])([H:8])([H:9])[H:10]>>[C:1]([C-:2]([N:3]([C+:4]([C@@:5]1([H:14])[C:6]([H:15])([H:16])[N:7]1[H:17])[H:13])[H:12])[H:11])([H:8])([H:9])[H:10]"
C       -2.27272381      -0.38098228      -0.08489589
C       -1.33829194      -0.18220623      -1.21968923
N       -0.12217565       0.43667647      -1.26951760
C        0.41557594      -0.61637962      -0.57029188
C        1.37124932      -0.46179006       0.54668272
C        2.21914436       0.73065610       0.75449031
N        1.16456842       0.40654390       1.70807490
H       -2.33989217       0.50742726       0.55013231
H       -2.01555121      -1.20803114       0.58286299
H       -3.27829199      -0.62534670      -0.43635671
H       -1.77962850      -0.22519549      -2.21182668
H        0.01917632       1.39410116      -0.99497707
H        0.46140857      -1.60512127      -1.01235698
H        1.81745965      -1.40421939       0.86196270
H        3.23499567       0.61573363       1.11402429
H        2.07760692       1.60937528       0.13503641
H        0.36537010       1.00875839       1.54664541
17
Frame=14 idx=011527 GeodesicLength=0.8104451981054246 rxn_smarts="[C:1]([C@@:2]1([H:11])[N:3]([H:12])[C@:4]1([C@@:5]1([H:14])[C:6]([H:15])([H:16])[N:7]1[H:17])[H:13])([H:8])([H:9])[H:10]>>[C:1]([C-:2]([N:3]([C+:4]([C@@:5]1([H:14])[C:6]([H:15])([H:16])[N:7]1[H:17])[H:13])[H:12])[H:11])([H:8])([H:9])[H:10]"
C       -2.27550917      -0.37744182      -0.09064830
C       -1.33561310      -0.17985983      -1.22012831
N       -0.12181542       0.44716758      -1.27414607
C        0.40540282      -0.61092490      -0.57109853
C        1.36849071      -0.46218595       0.54121556
C        2.22529775       0.72287015       0.75075821
N        1.17518133       0.39894953       1.70972985
H       -2.40744012       0.53805107       0.49447641
H       -1.98158319      -1.15052784       0.62496683
H       -3.25683480      -0.70291145      -0.44345720
H       -1.77333597      -0.22101005      -2.21347984
H        0.00576963       1.39220937      -0.95284545
H        0.45181458      -1.60201149      -1.00862175
H        1.81266598      -1.40793776       0.85069785
H        3.24306210       0.59900802       1.10186921
H        2.08563959       1.60906330       0.14168941
H        0.37880730       1.00749206       1.55902211
17
Frame=15 idx=011527 GeodesicLength=0.868306163454712 rxn_smarts="[C:1]([C@@:2]1([H:11])[N:3]([H:12])[C@:4]1([C@@:5]1([H:14])[C:6]([H:15])([H:16])[N:7]1[H:17])[H:13])([H:8])([H:9])[H:10]>>[C:1]([C-:2]([N:3]([C+:4]([C@@:5]1([H:14])[C:6]([H:15])([H:16])[N:7]1[H:17])[H:13])[H:12])[H:11])([H:8])([H:9])[H:10]"
C       -2.27865074      -0.37406697      -0.09667433
C       -1.33313707      -0.17676498      -1.22053821
N       -0.12165437       0.45839191      -1.27757221
C        0.39481648      -0.60518234      -0.57125538
C        1.36574742      -0.46251560       0.53597109
C        2.23158591       0.71503032       0.74682920
N        1.18652196       0.39109953       1.71170012
H       -2.47735621       0.56214933       0.43507430
H       -1.95082096      -1.08743422       0.66484418
H       -3.22984226      -0.78059939      -0.44640241
H       -1.76699626      -0.21580714      -2.21517610
H       -0.00738977       1.38915669      -0.91160631
H        0.44115463      -1.59869270      -1.00403692
H        1.80799096      -1.41161723       0.83925400
H        3.25132048       0.58219062       1.08884342
H        2.09364993       1.60873265       0.14851042
H        0.39305987       1.00592951       1.57223513
17
Frame=16 idx=011527 GeodesicLength=0.9262244519621243 rxn_smarts="[C:1]([C@@:2]1([H:11])[N:3]([H:12])[C@:4]1([C@@:5]1([H:14])[C:6]([H:15])([H:16])[N:7]1[H:17])[H:13])([H:8])([H:9])[H:10]>>[C:1]([C-:2]([N:3]([C+:4]([C@@:5]1([H:14])[C:6]([H:15])([H:16])[N:7]1[H:17])[H:13])[H:12])[H:11])([H:8])([H:9])[H:10]"
C       -2.28228790      -0.37090663      -0.10309142
C       -1.33093259      -0.17284472      -1.22096267
N       -0.12172651       0.47039342      -1.27967785
C        0.38368058      -0.59911958      -0.57058303
C        1.36302176      -0.46277143       0.53101582
C        2.23813561       0.70707747       0.74262869
N        1.19880152       0.38304925       1.71403198
H       -2.54961535       0.57909558       0.37189219
H       -1.92373407      -1.01868773       0.70203456
H       -3.19712045      -0.85809445      -0.44511795
H       -1.76054668      -0.20960294      -2.21702014
H       -0.02048386       1.38515025      -0.87093271
H        0.42931189      -1.59512017      -0.99846364
H        1.80340633      -1.41527001       0.82767428
H        3.25991917       0.56515309       1.07476256
H        2.10178475       1.60831154       0.15541920
H        0.40838582       1.00418707       1.58639012
