16
Frame=0 idx=003253 GeodesicLength=0.0 rxn_smarts="[C:1]([C@@:2]1([H:10])[C:3]([H:11])([H:12])[C:4]([H:13])([H:14])[O:5][C:6]1([H:15])[H:16])([H:7])([H:8])[H:9]>>[C:1]([C@@:2]1([H:10])[C:3]([H:12])=[C:4]([H:13])[O:5][C:6]1([H:15])[H:16])([H:7])([H:8])[H:9].[H:11][H:14]"
C        1.91942455      -0.21379070       0.04883900
C        0.58731342       0.52853089       0.13350328
C       -0.31366502       0.27235486      -1.06055258
C       -1.32902094      -0.61674285      -0.58779939
O       -1.21240089      -0.93521969       0.67981807
C       -0.30744541       0.02679721       1.27399496
H        2.47573942       0.09788968      -0.83714505
H        2.54456054      -0.01566414       0.92339436
H        1.75792180      -1.29240482      -0.02340040
H        0.78257478       1.59399066       0.28677413
H       -1.62177666       0.78805997      -0.87051782
H        0.06062882       0.17299016      -2.07029155
H       -1.94357895      -1.27261566      -1.18834011
H       -2.67645818       0.52147847      -0.46830357
H       -0.93823711       0.82476128       1.67674773
H        0.21441987      -0.48041528       2.08327894
16
Frame=1 idx=003253 GeodesicLength=0.07858496752063321 rxn_smarts="[C:1]([C@@:2]1([H:10])[C:3]([H:11])([H:12])[C:4]([H:13])([H:14])[O:5][C:6]1([H:15])[H:16])([H:7])([H:8])[H:9]>>[C:1]([C@@:2]1([H:10])[C:3]([H:12])=[C:4]([H:13])[O:5][C:6]1([H:15])[H:16])([H:7])([H:8])[H:9].[H:11][H:14]"
C        1.92369525      -0.20245719       0.04954054
C        0.58156228       0.52066394       0.13436310
C       -0.31542299       0.25444748      -1.05965314
C       -1.34725838      -0.61208563      -0.58231952
O       -1.23001812      -0.92999098       0.68956661
C       -0.30419640       0.01274521       1.27820463
H        2.47790989       0.11795609      -0.83469270
H        2.54650379       0.00351168       0.92392154
H        1.77751150      -1.28317006      -0.02363562
H        0.76265098       1.58940573       0.28305088
H       -1.61692908       0.82087508      -0.89621524
H        0.06285071       0.13074026      -2.06536159
H       -1.95295957      -1.27888002      -1.18047774
H       -2.67209840       0.55478066      -0.49365039
H       -0.91733775       0.81258877       1.70381041
H        0.22353630      -0.51113102       2.07354823
16
Frame=2 idx=003253 GeodesicLength=0.15694265350670866 rxn_smarts="[C:1]([C@@:2]1([H:10])[C:3]([H:11])([H:12])[C:4]([H:13])([H:14])[O:5][C:6]1([H:15])[H:16])([H:7])([H:8])[H:9]>>[C:1]([C@@:2]1([H:10])[C:3]([H:12])=[C:4]([H:13])[O:5][C:6]1([H:15])[H:16])([H:7])([H:8])[H:9].[H:11][H:14]"
C        1.92767729      -0.19062693       0.05012043
C        0.57555765       0.51270043       0.13537827
C       -0.31762398       0.23616444      -1.05835578
C       -1.36576140      -0.60718981      -0.57644384
O       -1.24801705      -0.92415666       0.69986942
C       -0.30093404      -0.00172221       1.28256092
H        2.47932216       0.13878879      -0.83246304
H        2.54803657       0.02321035       0.92432922
H        1.79719238      -1.27325583      -0.02411024
H        0.74212996       1.58454208       0.27962867
H       -1.61034250       0.85384553      -0.92373457
H        0.06446395       0.08750101      -2.05940414
H       -1.96271800      -1.28514232      -1.17155877
H       -2.66606085       0.58878288      -0.52031239
H       -0.89545906       0.79942993       1.73146916
H        0.23253694      -0.54287169       2.06302669
16
Frame=3 idx=003253 GeodesicLength=0.23521061611089983 rxn_smarts="[C:1]([C@@:2]1([H:10])[C:3]([H:11])([H:12])[C:4]([H:13])([H:14])[O:5][C:6]1([H:15])[H:16])([H:7])([H:8])[H:9]>>[C:1]([C@@:2]1([H:10])[C:3]([H:12])=[C:4]([H:13])[O:5][C:6]1([H:15])[H:16])([H:7])([H:8])[H:9].[H:11][H:14]"
C        1.93131692      -0.17828685       0.05055996
C        0.56928507       0.50466691       0.13657286
C       -0.32030660       0.21756312      -1.05661038
C       -1.38449070      -0.60207352      -0.57014304
O       -1.26638335      -0.91764650       0.71078236
C       -0.29764912      -0.01660713       1.28708361
H        2.47988710       0.16039608      -0.83048725
H        2.54911656       0.04341093       0.92459561
H        1.81689246      -1.26263077      -0.02486614
H        0.72100606       1.57940705       0.27656808
H       -1.60188873       0.88692431      -0.95318605
H        0.06541559       0.04332732      -2.05231817
H       -1.97285370      -1.29138777      -1.16153057
H       -2.65820553       0.62336081      -0.54839798
H       -0.87253579       0.78522965       1.75974173
H        0.24139374      -0.57565364       2.05163539
16
Frame=4 idx=003253 GeodesicLength=0.3134922682967677 rxn_smarts="[C:1]([C@@:2]1([H:10])[C:3]([H:11])([H:12])[C:4]([H:13])([H:14])[O:5][C:6]1([H:15])[H:16])([H:7])([H:8])[H:9]>>[C:1]([C@@:2]1([H:10])[C:3]([H:12])=[C:4]([H:13])[O:5][C:6]1([H:15])[H:16])([H:7])([H:8])[H:9].[H:11][H:14]"
C        1.93455548      -0.16542877       0.05083612
C        0.56272757       0.49659697       0.13797527
C       -0.32351845       0.19872036      -1.05436494
C       -1.40341464      -0.59674895      -0.56337729
O       -1.28509302      -0.91038617       0.72236879
C       -0.29433346      -0.03190577       1.29179541
H        2.47950785       0.18277826      -0.82879884
H        2.54970277       0.06407751       0.92469427
H        1.83652208      -1.25126590      -0.02595475
H        0.69927928       1.57401522       0.27394555
H       -1.59141800       0.92005057      -0.98469111
H        0.06564425      -0.00168726      -2.04398832
H       -1.98336709      -1.29760027      -1.15032897
H       -2.64837839       0.65834420      -0.57805023
H       -0.84849733       0.76991676       1.78864432
H        0.25008109      -0.60947675       2.03929471
16
Frame=5 idx=003253 GeodesicLength=0.3918656933812671 rxn_smarts="[C:1]([C@@:2]1([H:10])[C:3]([H:11])([H:12])[C:4]([H:13])([H:14])[O:5][C:6]1([H:15])[H:16])([H:7])([H:8])[H:9]>>[C:1]([C@@:2]1([H:10])[C:3]([H:12])=[C:4]([H:13])[O:5][C:6]1([H:15])[H:16])([H:7])([H:8])[H:9].[H:11][H:14]"
C        1.93732958      -0.15205059       0.05092474
C        0.55587083       0.48853194       0.13961822
C       -0.32731273       0.17973546      -1.05157343
C       -1.42250160      -0.59122961      -0.55610182
O       -1.30411515      -0.90229650       0.73469187
C       -0.29098041      -0.04761227       1.29671980
H        2.47808932       0.20593811      -0.82742625
H        2.54976015       0.08515693       0.92459823
H        1.85597922      -1.23914089      -0.02743879
H        0.67695337       1.56839049       0.27184896
H       -1.57877492       0.95314040      -1.01836735
H        0.06508872      -0.04741625      -2.03431624
H       -1.99424700      -1.30378859      -1.13787948
H       -2.63642713       0.69355463      -0.60941340
H       -0.82327407       0.75342336       1.81818835
H        0.25856183      -0.64433663       2.02592660
16
Frame=6 idx=003253 GeodesicLength=0.470324776719272 rxn_smarts="[C:1]([C@@:2]1([H:10])[C:3]([H:11])([H:12])[C:4]([H:13])([H:14])[O:5][C:6]1([H:15])[H:16])([H:7])([H:8])[H:9]>>[C:1]([C@@:2]1([H:10])[C:3]([H:12])=[C:4]([H:13])[O:5][C:6]1([H:15])[H:16])([H:7])([H:8])[H:9].[H:11][H:14]"
C        1.93958060      -0.13814848       0.05080548
C        0.54870086       0.48051567       0.14153585
C       -0.33173628       0.16070739      -1.04818902
C       -1.44174599      -0.58548993      -0.54826209
O       -1.32340496      -0.89329185       0.74781625
C       -0.28757580      -0.06372275       1.30187881
H        2.47554853       0.22987163      -0.82639082
H        2.54925566       0.10659538       0.92428632
H        1.87516393      -1.22623090      -0.02938333
H        0.65403525       1.56255940       0.27037331
H       -1.56379794       0.98606476      -1.05432853
H        0.06367600      -0.09371295      -2.02319856
H       -2.00550465      -1.30990732      -1.12410191
H       -2.62220560       0.72875224      -0.64266086
H       -0.79678686       0.73565870       1.84837884
H        0.26679725      -0.68022099       2.01144027
16
Frame=7 idx=003253 GeodesicLength=0.5488619063114445 rxn_smarts="[C:1]([C@@:2]1([H:10])[C:3]([H:11])([H:12])[C:4]([H:13])([H:14])[O:5][C:6]1([H:15])[H:16])([H:7])([H:8])[H:9]>>[C:1]([C@@:2]1([H:10])[C:3]([H:12])=[C:4]([H:13])[O:5][C:6]1([H:15])[H:16])([H:7])([H:8])[H:9].[H:11][H:14]"
C        1.94125269      -0.12373226       0.05045990
C        0.54120716       0.47259821       0.14376023
C       -0.33684174       0.14176224      -1.04417456
C       -1.46113474      -0.57950880      -0.53980326
O       -1.34290368      -0.88328556       0.76180204
C       -0.28410946      -0.08021969       1.30729036
H        2.47181507       0.25456296      -0.82570300
H        2.54816262       0.12831532       0.92374367
H        1.89396108      -1.21252719      -0.03185810
H        0.63054692       1.55655613       0.26961169
H       -1.54634189       1.01868023      -1.09264279
H        0.06133766      -0.14037497      -2.01057876
H       -2.01712485      -1.31594130      -1.10891439
H       -2.60558903       0.76367343      -0.67795281
H       -0.76897434       0.71654171       1.87920361
H        0.27473654      -0.71710047       1.99575615
16
Frame=8 idx=003253 GeodesicLength=0.6273948771069664 rxn_smarts="[C:1]([C@@:2]1([H:10])[C:3]([H:11])([H:12])[C:4]([H:13])([H:14])[O:5][C:6]1([H:15])[H:16])([H:7])([H:8])[H:9]>>[C:1]([C@@:2]1([H:10])[C:3]([H:12])=[C:4]([H:13])[O:5][C:6]1([H:15])[H:16])([H:7])([H:8])[H:9].[H:11][H:14]"
C        1.94228318      -0.10880727       0.04986607
C        0.53337989       0.46483732       0.14633378
C       -0.34268166       0.12304546      -1.03948653
C       -1.48067436      -0.57322787      -0.53066054
O       -1.36253805      -0.87219174       0.77670843
C       -0.28056417      -0.09710022       1.31297188
H        2.46680881       0.28000075      -0.82537343
H        2.54646363       0.15023481       0.92294762
H        1.91224429      -1.19801828      -0.03494315
H        0.60651028       1.55041950       0.26968491
H       -1.52623141       1.05079398      -1.13339085
H        0.05799325      -0.18719291      -1.99636222
H       -2.02910604      -1.32182810      -1.09222694
H       -2.58644720       0.79799861      -0.71548615
H       -0.73975750       0.69595137       1.91063609
H        0.28231705      -0.75491540       1.97878104
16
Frame=9 idx=003253 GeodesicLength=0.704862062464076 rxn_smarts="[C:1]([C@@:2]1([H:10])[C:3]([H:11])([H:12])[C:4]([H:13])([H:14])[O:5][C:6]1([H:15])[H:16])([H:7])([H:8])[H:9]>>[C:1]([C@@:2]1([H:10])[C:3]([H:12])=[C:4]([H:13])[O:5][C:6]1([H:15])[H:16])([H:7])([H:8])[H:9].[H:11][H:14]"
C        1.94273920      -0.09333352       0.04910678
C        0.52525911       0.45723882       0.14920836
C       -0.34911329       0.10451590      -1.03428266
C       -1.50049516      -0.56625242      -0.52094372
O       -1.38230752      -0.85988954       0.79233410
C       -0.27694124      -0.11440827       1.31879241
H        2.46069052       0.30622758      -0.82523815
H        2.54416403       0.17238485       0.92203466
H        1.93011467      -1.18264655      -0.03858005
H        0.58191333       1.54414054       0.27053573
H       -1.50368107       1.08171920      -1.17628085
H        0.05390602      -0.23438333      -1.98064429
H       -2.04171021      -1.32706297      -1.07412875
H       -2.56502654       0.83155007      -0.75479940
H       -0.70904548       0.67380126       1.94248936
H        0.28953362      -0.79360162       1.96039648
16
Frame=10 idx=003253 GeodesicLength=0.7822438670214432 rxn_smarts="[C:1]([C@@:2]1([H:10])[C:3]([H:11])([H:12])[C:4]([H:13])([H:14])[O:5][C:6]1([H:15])[H:16])([H:7])([H:8])[H:9]>>[C:1]([C@@:2]1([H:10])[C:3]([H:12])=[C:4]([H:13])[O:5][C:6]1([H:15])[H:16])([H:7])([H:8])[H:9].[H:11][H:14]"
C        1.94246647      -0.07738071       0.04808319
C        0.51680798       0.44991650       0.15247899
C       -0.35634130       0.08648245      -1.02837296
C       -1.52045611      -0.55884763      -0.51046317
O       -1.40201220      -0.84635200       0.80893903
C       -0.27322892      -0.13205605       1.32486719
H        2.45321304       0.33315397      -0.82544008
H        2.54123446       0.19456701       0.92086440
H        1.94724308      -1.16647344      -0.04294304
H        0.55683514       1.53781705       0.27237917
H       -1.47822489       1.11175877      -1.22149282
H        0.04869156      -0.28130532      -1.96323180
H       -2.05464129      -1.33200581      -1.05441437
H       -2.54095793       0.86383348      -0.79658397
H       -0.67683930       0.64996924       1.97480774
H        0.29621021      -0.83307752       1.94052250
16
Frame=11 idx=003253 GeodesicLength=0.8596193174168537 rxn_smarts="[C:1]([C@@:2]1([H:10])[C:3]([H:11])([H:12])[C:4]([H:13])([H:14])[O:5][C:6]1([H:15])[H:16])([H:7])([H:8])[H:9]>>[C:1]([C@@:2]1([H:10])[C:3]([H:12])=[C:4]([H:13])[O:5][C:6]1([H:15])[H:16])([H:7])([H:8])[H:9].[H:11][H:14]"
C        1.94142969      -0.06098444       0.04679401
C        0.50803276       0.44292649       0.15615866
C       -0.36437658       0.06908005      -1.02176010
C       -1.54053610      -0.55098053      -0.49919287
O       -1.42151051      -0.83156949       0.82652242
C       -0.26942382      -0.15001125       1.33117184
H        2.44435673       0.36072711      -0.82595608
H        2.53767465       0.21668188       0.91944306
H        1.96350932      -1.14952953      -0.04807399
H        0.53132921       1.53149472       0.27527757
H       -1.44980120       1.14080859      -1.26883038
H        0.04232228      -0.32772880      -1.94414696
H       -2.06785450      -1.33661402      -1.03305552
H       -2.51423858       0.89450176      -0.84089007
H       -0.64317825       0.62440616       2.00744595
H        0.30226490      -0.87320869       1.91909249
16
Frame=12 idx=003253 GeodesicLength=0.9369918229616595 rxn_smarts="[C:1]([C@@:2]1([H:10])[C:3]([H:11])([H:12])[C:4]([H:13])([H:14])[O:5][C:6]1([H:15])[H:16])([H:7])([H:8])[H:9]>>[C:1]([C@@:2]1([H:10])[C:3]([H:12])=[C:4]([H:13])[O:5][C:6]1([H:15])[H:16])([H:7])([H:8])[H:9].[H:11][H:14]"
C        1.93960126      -0.04418602       0.04523996
C        0.49894859       0.43632629       0.16025838
C       -0.37322424       0.05244955      -1.01445800
C       -1.56072318      -0.54258359      -0.48710900
O       -1.44063815      -0.81556672       0.84506609
C       -0.26552499      -0.16823552       1.33767225
H        2.43412309       0.38888216      -0.82675443
H        2.53349934       0.23861840       0.91777661
H        1.97879003      -1.13185497      -0.05401569
H        0.50546382       1.52522106       0.27928641
H       -1.41835842       1.16874381      -1.31805394
H        0.03477220      -0.37339173      -1.92341103
H       -2.08131589      -1.34080066      -1.01003329
H       -2.48490019       0.92313782      -0.88776145
H       -0.60812744       0.59706377       2.04022630
H        0.30761417      -0.91382364       1.89607085
16
Frame=13 idx=003253 GeodesicLength=1.014359797993412 rxn_smarts="[C:1]([C@@:2]1([H:10])[C:3]([H:11])([H:12])[C:4]([H:13])([H:14])[O:5][C:6]1([H:15])[H:16])([H:7])([H:8])[H:9]>>[C:1]([C@@:2]1([H:10])[C:3]([H:12])=[C:4]([H:13])[O:5][C:6]1([H:15])[H:16])([H:7])([H:8])[H:9].[H:11][H:14]"
C        1.93696530      -0.02703949       0.04342961
C        0.48957404       0.43017382       0.16478394
C       -0.38289549       0.03674617      -1.00649181
C       -1.58100827      -0.53359486      -0.47418778
O       -1.45921755      -0.79840182       0.86454115
C       -0.26154106      -0.18667365       1.34432958
H        2.42253873       0.41754404      -0.82779161
H        2.52873553       0.26025416       0.91587778
H        1.99296041      -1.11350567      -0.06080275
H        0.47932651       1.51904455       0.28444754
H       -1.38385878       1.19545000      -1.36886893
H        0.02601228      -0.41799572      -1.90110060
H       -2.09498067      -1.34449301      -0.98533128
H       -2.45299613       0.94929633      -0.93721841
H       -0.57178334       0.56790312       2.07295009
H        0.31216849      -0.95470796       1.87143349
16
Frame=14 idx=003253 GeodesicLength=1.0916812238795277 rxn_smarts="[C:1]([C@@:2]1([H:10])[C:3]([H:11])([H:12])[C:4]([H:13])([H:14])[O:5][C:6]1([H:15])[H:16])([H:7])([H:8])[H:9]>>[C:1]([C@@:2]1([H:10])[C:3]([H:12])=[C:4]([H:13])[O:5][C:6]1([H:15])[H:16])([H:7])([H:8])[H:9].[H:11][H:14]"
C        1.93352794      -0.00961609       0.04137844
C        0.47994468       0.42451519       0.16973307
C       -0.39336679       0.02210868      -0.99789764
C       -1.60136704      -0.52394743      -0.46043427
O       -1.47704698      -0.78023984       0.88488520
C       -0.25747884      -0.20526513       1.35109531
H        2.40966320       0.44661304      -0.82902219
H        2.52342572       0.28146967       0.91376566
H        2.00591807      -1.09456278      -0.06844587
H        0.45302051       1.51301294       0.29077009
H       -1.34635365       1.22079507      -1.42090576
H        0.01604204      -0.46126274      -1.87733632
H       -2.10882506      -1.34753664      -0.95902931
H       -2.41865455       0.97255254      -0.98916356
H       -0.53433643       0.53694463       2.10535326
H        0.31588718      -0.99558113       1.84525390
16
Frame=15 idx=003253 GeodesicLength=1.168928803004313 rxn_smarts="[C:1]([C@@:2]1([H:10])[C:3]([H:11])([H:12])[C:4]([H:13])([H:14])[O:5][C:6]1([H:15])[H:16])([H:7])([H:8])[H:9]>>[C:1]([C@@:2]1([H:10])[C:3]([H:12])=[C:4]([H:13])[O:5][C:6]1([H:15])[H:16])([H:7])([H:8])[H:9].[H:11][H:14]"
C        1.92931326       0.00800943       0.03910703
C        0.47010222       0.41938693       0.17509416
C       -0.40460361       0.00866034      -0.98872697
C       -1.62178165      -0.51355964      -0.44586626
O       -1.49393603      -0.76126733       0.90601627
C       -0.25335080      -0.22394701       1.35790800
H        2.39558560       0.47598553      -0.83038674
H        2.51762631       0.30214658       0.91146505
H        2.01758103      -1.07511527      -0.07694094
H        0.42666325       1.50716631       0.29824138
H       -1.30594890       1.24467836      -1.47375531
H        0.00487018      -0.50291630      -1.85227630
H       -2.12282861      -1.34977752      -0.93122682
H       -2.38203034       0.99245908      -1.04345635
H       -0.49599338       0.50422955       2.13716695
H        0.31873147      -1.03613904       1.81763684
16
Frame=16 idx=003253 GeodesicLength=1.246016542441072 rxn_smarts="[C:1]([C@@:2]1([H:10])[C:3]([H:11])([H:12])[C:4]([H:13])([H:14])[O:5][C:6]1([H:15])[H:16])([H:7])([H:8])[H:9]>>[C:1]([C@@:2]1([H:10])[C:3]([H:12])=[C:4]([H:13])[O:5][C:6]1([H:15])[H:16])([H:7])([H:8])[H:9].[H:11][H:14]"
C        1.92436166       0.02577506       0.03664670
C        0.46009370       0.41482354       0.18085049
C       -0.41655609      -0.00349328      -0.97904327
C       -1.64223725      -0.50232707      -0.43051608
O       -1.50971828      -0.74169102       0.92783641
C       -0.24917204      -0.24265598       1.36470012
H        2.38041937       0.50557678      -0.83181857
H        2.51140097       0.32219354       0.90901113
H        2.02789910      -1.05524240      -0.08626981
H        0.40036404       1.50154704       0.30682305
H       -1.26278526       1.26692904      -1.52703361
H       -0.00747390      -0.54274549      -1.82606541
H       -2.13700644      -1.35100545      -0.90206641
H       -2.34330584       1.00861860      -1.09986881
H       -0.45695572       0.46979288       2.16812949
H        0.32067196      -1.07609579       1.78868458
