19
Frame=0 idx=010395 GeodesicLength=0.0 rxn_smarts="[C:1]([C:2]1([H:11])[C:3]([H:12])([H:13])[C:4]2([C:5]([H:14])([H:15])[C:6]2([H:16])[H:17])[C:7]1([H:18])[H:19])([H:8])([H:9])[H:10]>>[C:1]([C:2](=[C:3]([H:12])[H:13])[H:11])([H:8])([H:9])[H:10].[C:4]1([C:7]([H:17])([H:18])[H:19])=[C:6]([H:16])[C:5]1([H:14])[H:15]"
C       -2.55861105       0.22337854       0.09409255
C       -1.28764065      -0.48145424      -0.21641552
C       -0.26615162       0.05536761      -1.12625682
C        0.89370177       0.08360838      -0.11399369
C        2.16824609      -0.70308086      -0.30727460
C        2.19759100       0.75112372      -0.02708731
C        0.37061611       0.12215335       1.27893464
H       -3.29963456       0.01509102      -0.69162104
H       -2.42528127       1.30610328       0.12594929
H       -2.99176945      -0.10672159       1.03899825
H       -1.25607370      -1.54874978      -0.02810718
H       -0.03587451      -0.60046767      -1.97041627
H       -0.52136552       1.05126426      -1.49474052
H        2.33118086      -1.04427785      -1.32979854
H        2.50726011      -1.41062650       0.44545101
H        2.71742072       1.52823377      -0.57379341
H        1.51573849       0.60636804       1.54338944
H       -0.28380573       0.95584130       1.51822912
H        0.22445299      -0.80315479       1.83446056
19
Frame=1 idx=010395 GeodesicLength=0.11104389344803033 rxn_smarts="[C:1]([C:2]1([H:11])[C:3]([H:12])([H:13])[C:4]2([C:5]([H:14])([H:15])[C:6]2([H:16])[H:17])[C:7]1([H:18])[H:19])([H:8])([H:9])[H:10]>>[C:1]([C:2](=[C:3]([H:12])[H:13])[H:11])([H:8])([H:9])[H:10].[C:4]1([C:7]([H:17])([H:18])[H:19])=[C:6]([H:16])[C:5]1([H:14])[H:15]"
C       -2.56019567       0.23541832       0.09417839
C       -1.29703000      -0.48604948      -0.21485722
C       -0.27854066       0.03131053      -1.13529603
C        0.90603481       0.07921859      -0.10768068
C        2.18602931      -0.69511676      -0.30906651
C        2.19838877       0.75857418      -0.01795622
C        0.36353786       0.11066272       1.27949610
H       -3.30752186       0.03180983      -0.68613595
H       -2.41224155       1.31649010       0.11993629
H       -2.99278151      -0.08395034       1.04320293
H       -1.28730756      -1.55583226      -0.03650273
H       -0.05578094      -0.63049577      -1.97637894
H       -0.51577248       1.03048744      -1.50635921
H        2.35189025      -1.02842614      -1.33352744
H        2.53934670      -1.40031852       0.43920616
H        2.70133179       1.54707358      -0.56382687
H        1.52197690       0.60844145       1.55482655
H       -0.28052938       0.94963099       1.52874318
H        0.21916521      -0.81892847       1.82799821
19
Frame=2 idx=010395 GeodesicLength=0.2220297513123467 rxn_smarts="[C:1]([C:2]1([H:11])[C:3]([H:12])([H:13])[C:4]2([C:5]([H:14])([H:15])[C:6]2([H:16])[H:17])[C:7]1([H:18])[H:19])([H:8])([H:9])[H:10]>>[C:1]([C:2](=[C:3]([H:12])[H:13])[H:11])([H:8])([H:9])[H:10].[C:4]1([C:7]([H:17])([H:18])[H:19])=[C:6]([H:16])[C:5]1([H:14])[H:15]"
C       -2.56144260       0.24782118       0.09403372
C       -1.30660333      -0.49089260      -0.21324114
C       -0.29130992       0.00638964      -1.14436323
C        0.91852664       0.07489430      -0.10097137
C        2.20397950      -0.68655137      -0.31099587
C        2.19904132       0.76628401      -0.00859106
C        0.35641086       0.09878038       1.28003126
H       -3.31503266       0.04941354      -0.68094170
H       -2.39830470       1.32693053       0.11365248
H       -2.99359582      -0.06056166       1.04706111
H       -1.31956416      -1.56258663      -0.04460015
H       -0.07626746      -0.66166752      -1.98207434
H       -0.50995096       1.00855927      -1.51824952
H        2.37236683      -1.01165721      -1.33749183
H        2.57192590      -1.38921629       0.43254206
H        2.68448384       1.56611147      -0.55352419
H        1.52845084       0.61053743       1.56660417
H       -0.27724662       0.94261995       1.53984327
H        0.21413250      -0.83520841       1.82127631
19
Frame=3 idx=010395 GeodesicLength=0.33296873761999324 rxn_smarts="[C:1]([C:2]1([H:11])[C:3]([H:12])([H:13])[C:4]2([C:5]([H:14])([H:15])[C:6]2([H:16])[H:17])[C:7]1([H:18])[H:19])([H:8])([H:9])[H:10]>>[C:1]([C:2](=[C:3]([H:12])[H:13])[H:11])([H:8])([H:9])[H:10].[C:4]1([C:7]([H:17])([H:18])[H:19])=[C:6]([H:16])[C:5]1([H:14])[H:15]"
C       -2.56231253       0.26058210       0.09364369
C       -1.31636041      -0.49599938      -0.21158056
C       -0.30448379      -0.01942455      -1.15345368
C        0.93117846       0.07065954      -0.09384436
C        2.22206916      -0.67735874      -0.31306802
C        2.19954798       0.77425532       0.00102438
C        0.34922612       0.08650660       1.28053386
H       -3.32211775       0.06792008      -0.67605938
H       -2.38341071       1.33739240       0.10708713
H       -2.99416632      -0.03655024       1.05055630
H       -1.35284578      -1.56898704      -0.05239574
H       -0.09738202      -0.69399382      -1.98750469
H       -0.50388432       0.98543087      -1.53038884
H        2.39253849      -0.99394519      -1.34169798
H        2.60496974      -1.37728836       0.42543097
H        2.66687064       1.58532508      -0.54285162
H        1.53517268       0.61267680       1.57873989
H       -0.27395926       0.93478659       1.55154658
H        0.20934961      -0.85198807       1.81428207
19
Frame=4 idx=010395 GeodesicLength=0.4438698980567045 rxn_smarts="[C:1]([C:2]1([H:11])[C:3]([H:12])([H:13])[C:4]2([C:5]([H:14])([H:15])[C:6]2([H:16])[H:17])[C:7]1([H:18])[H:19])([H:8])([H:9])[H:10]>>[C:1]([C:2](=[C:3]([H:12])[H:13])[H:11])([H:8])([H:9])[H:10].[C:4]1([C:7]([H:17])([H:18])[H:19])=[C:6]([H:16])[C:5]1([H:14])[H:15]"
C       -2.56275574       0.27369799       0.09298720
C       -1.32630210      -0.50138694      -0.20988720
C       -0.31809317      -0.04616974      -1.16256078
C        0.94399039       0.06653978      -0.08627399
C        2.24026664      -0.66750400      -0.31529146
C        2.19990161       0.78249457       0.01091210
C        0.34197688       0.07384088       1.28099881
H       -3.32871598       0.08735575      -0.67151604
H       -2.36747871       1.34783536       0.10022068
H       -2.99443683      -0.01190085       1.05366500
H       -1.38715609      -1.57500380      -0.05988126
H       -0.11917846      -0.72749712      -1.99266207
H       -0.49755183       0.96104068      -1.54275016
H        2.41231792      -0.97525382      -1.34615602
H        2.63844754      -1.36450043       0.41783430
H        2.64846970       1.60469648      -0.53177000
H        1.54215384       0.61487546       1.59125567
H       -0.27066961       0.92610266       1.56387459
H        0.20481400      -0.86926291       1.80700063
19
Frame=5 idx=010395 GeodesicLength=0.5547348143233426 rxn_smarts="[C:1]([C:2]1([H:11])[C:3]([H:12])([H:13])[C:4]2([C:5]([H:14])([H:15])[C:6]2([H:16])[H:17])[C:7]1([H:18])[H:19])([H:8])([H:9])[H:10]>>[C:1]([C:2](=[C:3]([H:12])[H:13])[H:11])([H:8])([H:9])[H:10].[C:4]1([C:7]([H:17])([H:18])[H:19])=[C:6]([H:16])[C:5]1([H:14])[H:15]"
C       -2.56273285       0.28715703       0.09205114
C       -1.33642866      -0.50707030      -0.20818067
C       -0.33216292      -0.07386423      -1.17167901
C        0.95696426       0.06255614      -0.07823808
C        2.25854408      -0.65696471      -0.31766952
C        2.20010621       0.79100103       0.02108878
C        0.33464946       0.06078873       1.28141411
H       -3.33478147       0.10773552      -0.66732610
H       -2.35045636       1.35820924       0.09304887
H       -2.99435366       0.01337863       1.05637298
H       -1.42249650      -1.58060450      -0.06706188
H       -0.14170475      -0.76217161      -1.99755187
H       -0.49093310       0.93534772      -1.55530178
H        2.43163136      -0.95557170      -1.35086738
H        2.67232923      -1.35081905       0.40972937
H        2.62928638       1.62419427      -0.52024981
H        1.54940564       0.61716067       1.60416825
H       -0.26737873       0.91655367       1.57683335
H        0.20051240      -0.88701652       1.79941925
19
Frame=6 idx=010395 GeodesicLength=0.6655650238839593 rxn_smarts="[C:1]([C:2]1([H:11])[C:3]([H:12])([H:13])[C:4]2([C:5]([H:14])([H:15])[C:6]2([H:16])[H:17])[C:7]1([H:18])[H:19])([H:8])([H:9])[H:10]>>[C:1]([C:2](=[C:3]([H:12])[H:13])[H:11])([H:8])([H:9])[H:10].[C:4]1([C:7]([H:17])([H:18])[H:19])=[C:6]([H:16])[C:5]1([H:14])[H:15]"
C       -2.56218089       0.30094950       0.09081339
C       -1.34674362      -0.51307178      -0.20647512
C       -0.34672590      -0.10254207      -1.18080085
C        0.97009772       0.05873214      -0.06970730
C        2.27685994      -0.64570691      -0.32020850
C        2.20015499       0.79977791       0.03157649
C        0.32723195       0.04735566       1.28176967
H       -3.34023335       0.12908562      -0.66352136
H       -2.33225542       1.36845846       0.08555651
H       -2.99384487       0.03929459       1.05865459
H       -1.45886924      -1.58575298      -0.07393394
H       -0.16503293      -0.79802757      -2.00217381
H       -0.48400488       0.90828875      -1.56800356
H        2.45037999      -0.93486739      -1.35583932
H        2.70657623      -1.33620368       0.40107996
H        2.60929841       1.64379422      -0.50824576
H        1.55693945       0.61955943       1.61749951
H       -0.26408596       0.90611135       1.59043738
H        0.19643837      -0.90523526       1.79152201
19
Frame=7 idx=010395 GeodesicLength=0.7763890617878806 rxn_smarts="[C:1]([C:2]1([H:11])[C:3]([H:12])([H:13])[C:4]2([C:5]([H:14])([H:15])[C:6]2([H:16])[H:17])[C:7]1([H:18])[H:19])([H:8])([H:9])[H:10]>>[C:1]([C:2](=[C:3]([H:12])[H:13])[H:11])([H:8])([H:9])[H:10].[C:4]1([C:7]([H:17])([H:18])[H:19])=[C:6]([H:16])[C:5]1([H:14])[H:15]"
C       -2.56105272       0.31505044       0.08926363
C       -1.35724646      -0.51940820      -0.20479277
C       -0.36181793      -0.13220735      -1.18993478
C        0.98339675       0.05509313      -0.06065262
C        2.29517739      -0.63371487      -0.32290618
C        2.20006074       0.80882101       0.04239897
C        0.31970488       0.03356536       1.28204889
H       -3.34502060       0.15138988      -0.66010849
H       -2.31283347       1.37851647       0.07773758
H       -2.99283641       0.06581821       1.06050263
H       -1.49625873      -1.59040810      -0.08051721
H       -0.18923740      -0.83503276      -2.00655700
H       -0.47673828       0.87982984      -1.58080942
H        2.46847558      -0.91314099      -1.36106769
H        2.74113951      -1.32063393       0.39186553
H        2.58854121       1.66345272      -0.49572260
H        1.56476640       0.62210687       1.63127046
H       -0.26078877       0.89478151       1.60468127
H        0.19256831      -0.92387923       1.78329981
19
Frame=8 idx=010395 GeodesicLength=0.8871881940874736 rxn_smarts="[C:1]([C:2]1([H:11])[C:3]([H:12])([H:13])[C:4]2([C:5]([H:14])([H:15])[C:6]2([H:16])[H:17])[C:7]1([H:18])[H:19])([H:8])([H:9])[H:10]>>[C:1]([C:2](=[C:3]([H:12])[H:13])[H:11])([H:8])([H:9])[H:10].[C:4]1([C:7]([H:17])([H:18])[H:19])=[C:6]([H:16])[C:5]1([H:14])[H:15]"
C       -2.55928542       0.32944550       0.08737877
C       -1.36794269      -0.52609813      -0.20315288
C       -0.37747515      -0.16289335      -1.19906909
C        0.99685950       0.05165672      -0.05104326
C        2.31345334      -0.62095294      -0.32576975
C        2.19981484       0.81813409       0.05357930
C        0.31205387       0.01942567       1.28223782
H       -3.34905883       0.17467339      -0.65711883
H       -2.29209243       1.38831794       0.06957700
H       -2.99124531       0.09294878       1.06189124
H       -1.53466994      -1.59452589      -0.08681048
H       -0.21439735      -0.87318872      -2.01070188
H       -0.46910254       0.84990239      -1.59366635
H        2.48581276      -0.89036827      -1.36655834
H        2.77598178      -1.30405530       0.38204946
H        2.56699254       1.68314073      -0.48263008
H        1.57289342       0.62483307       1.64550260
H       -0.25748433       0.88253510       1.61957064
H        0.18889193      -0.94293076       1.77473412
19
Frame=9 idx=010395 GeodesicLength=0.9980828103938646 rxn_smarts="[C:1]([C:2]1([H:11])[C:3]([H:12])([H:13])[C:4]2([C:5]([H:14])([H:15])[C:6]2([H:16])[H:17])[C:7]1([H:18])[H:19])([H:8])([H:9])[H:10]>>[C:1]([C:2](=[C:3]([H:12])[H:13])[H:11])([H:8])([H:9])[H:10].[C:4]1([C:7]([H:17])([H:18])[H:19])=[C:6]([H:16])[C:5]1([H:14])[H:15]"
C       -2.55682774       0.34407261       0.08518028
C       -1.37884730      -0.53314181      -0.20159614
C       -0.39373754      -0.19457109      -1.20827659
C        1.01051688       0.04845201      -0.04084328
C        2.33163991      -0.60742236      -0.32878001
C        2.19947360       0.82769890       0.06516217
C        0.30422615       0.00499241       1.28228693
H       -3.35229504       0.19885537      -0.65448877
H       -2.27007087       1.39777421       0.06108561
H       -2.98895544       0.12060806       1.06286661
H       -1.57407440      -1.59804998      -0.09287818
H       -0.24061078      -0.91241972      -2.01470282
H       -0.46104889       0.81848876      -1.60650374
H        2.50232471      -0.86657073      -1.37226781
H        2.81099539      -1.28646850       0.37165180
H        2.54478503       1.70280628      -0.46895887
H        1.58132512       0.62778252       1.66022392
H       -0.25416097       0.86942785       1.63503762
H        0.18534219      -0.96231478       1.76580126
19
Frame=10 idx=010395 GeodesicLength=1.108969418622503 rxn_smarts="[C:1]([C:2]1([H:11])[C:3]([H:12])([H:13])[C:4]2([C:5]([H:14])([H:15])[C:6]2([H:16])[H:17])[C:7]1([H:18])[H:19])([H:8])([H:9])[H:10]>>[C:1]([C:2](=[C:3]([H:12])[H:13])[H:11])([H:8])([H:9])[H:10].[C:4]1([C:7]([H:17])([H:18])[H:19])=[C:6]([H:16])[C:5]1([H:14])[H:15]"
C       -2.55360788       0.35894720       0.08261583
C       -1.38995836      -0.54057912      -0.20012567
C       -0.41065781      -0.22729994      -1.21749284
C        1.02434569       0.04547257      -0.03001557
C        2.34970852      -0.59307157      -0.33195403
C        2.19898121       0.83753453       0.07714711
C        0.29623344      -0.00975449       1.28220483
H       -3.35462209       0.22403662      -0.65231838
H       -2.24658975       1.40682498       0.05224107
H       -2.98591633       0.14884332       1.06335031
H       -1.61448102      -1.60094425      -0.09869215
H       -0.26796694      -0.95275376      -2.01851578
H       -0.45255499       0.78548388      -1.61928071
H        2.51788553      -0.84171270      -1.37821853
H        2.84621091      -1.26779399       0.36060293
H        2.52178817       1.72244962      -0.45464300
H        1.59007603       0.63098864       1.67545126
H       -0.25081957       0.85537029       1.65114475
H        0.18194523      -0.98204186       1.75649858
19
Frame=11 idx=010395 GeodesicLength=1.2198640579457332 rxn_smarts="[C:1]([C:2]1([H:11])[C:3]([H:12])([H:13])[C:4]2([C:5]([H:14])([H:15])[C:6]2([H:16])[H:17])[C:7]1([H:18])[H:19])([H:8])([H:9])[H:10]>>[C:1]([C:2](=[C:3]([H:12])[H:13])[H:11])([H:8])([H:9])[H:10].[C:4]1([C:7]([H:17])([H:18])[H:19])=[C:6]([H:16])[C:5]1([H:14])[H:15]"
C       -2.54956912       0.37403605       0.07967950
C       -1.40128467      -0.54842769      -0.19876828
C       -0.42828385      -0.26107750      -1.22673938
C        1.03835357       0.04272607      -0.01851991
C        2.36762211      -0.57788569      -0.33528103
C        2.19834737       0.84763778       0.08955566
C        0.28804817      -0.02478491       1.28196279
H       -3.35597641       0.25020515      -0.65060557
H       -2.22159747       1.41539711       0.04304651
H       -2.98204814       0.17762227       1.06334122
H       -1.65586397      -1.60316822      -0.10428087
H       -0.29656131      -0.99414851      -2.02218618
H       -0.44357995       0.75084003      -1.63194481
H        2.53241358      -0.81580390      -1.38438997
H        2.88158807      -1.24800872       0.34888029
H        2.49802430       1.74204057      -0.43964471
H        1.59915184       0.63450180       1.69120636
H       -0.24745366       0.84036191       1.66787377
H        0.17866957      -1.00206363       1.74681462
19
Frame=12 idx=010395 GeodesicLength=1.3307603089592128 rxn_smarts="[C:1]([C:2]1([H:11])[C:3]([H:12])([H:13])[C:4]2([C:5]([H:14])([H:15])[C:6]2([H:16])[H:17])[C:7]1([H:18])[H:19])([H:8])([H:9])[H:10]>>[C:1]([C:2](=[C:3]([H:12])[H:13])[H:11])([H:8])([H:9])[H:10].[C:4]1([C:7]([H:17])([H:18])[H:19])=[C:6]([H:16])[C:5]1([H:14])[H:15]"
C       -2.54463461       0.38933292       0.07634693
C       -1.41284078      -0.55670962      -0.19754410
C       -0.44667026      -0.29594593      -1.23601002
C        1.05254336       0.04021063      -0.00631139
C        2.38534139      -0.56182110      -0.33876577
C        2.19755081       0.85802183       0.10241083
C        0.27964931      -0.04009788       1.28154025
H       -3.35624111       0.27741041      -0.64938852
H       -2.19497553       1.42341157       0.03349015
H       -2.97725298       0.20695384       1.06280962
H       -1.69822822      -1.60467045      -0.10964586
H       -0.32650940      -1.03660680      -2.02572473
H       -0.43407775       0.71445133      -1.64444065
H        2.54580206      -0.78881656      -1.39077459
H        2.91710544      -1.22704256       0.33644134
H        2.47343532       1.76157626      -0.42391012
H        1.60855800       0.63836011       1.70751453
H       -0.24405612       0.82435124       1.68523269
H        0.17550106      -1.02236924       1.73672941
19
Frame=13 idx=010395 GeodesicLength=1.441666106392658 rxn_smarts="[C:1]([C:2]1([H:11])[C:3]([H:12])([H:13])[C:4]2([C:5]([H:14])([H:15])[C:6]2([H:16])[H:17])[C:7]1([H:18])[H:19])([H:8])([H:9])[H:10]>>[C:1]([C:2](=[C:3]([H:12])[H:13])[H:11])([H:8])([H:9])[H:10].[C:4]1([C:7]([H:17])([H:18])[H:19])=[C:6]([H:16])[C:5]1([H:14])[H:15]"
C       -2.53874677       0.40480511       0.07261404
C       -1.42463738      -0.56543806      -0.19648303
C       -0.46586924      -0.33190507      -1.24532905
C        1.06692723       0.03792115       0.00665596
C        2.40283504      -0.54485963      -0.34239302
C        2.19659589       0.86868587       0.11573003
C        0.27101056      -0.05566980       1.28090434
H       -3.35534055       0.30564545      -0.64866706
H       -2.16667322       1.43079350       0.02358037
H       -2.97145131       0.23680788       1.06175556
H       -1.74155319      -1.60540384      -0.11481720
H       -0.35792614      -1.08007354      -2.02919564
H       -0.42400375       0.67625341      -1.65671023
H        2.55797426      -0.76077114      -1.39734094
H        2.95273540      -1.20484800       0.32327720
H        2.44803204       1.78103039      -0.40741725
H        1.61829984       0.64262273       1.72439832
H       -0.24061592       0.80732024       1.70320833
H        0.17240722      -1.04291663       1.72622928
19
Frame=14 idx=010395 GeodesicLength=1.5526056005942224 rxn_smarts="[C:1]([C:2]1([H:11])[C:3]([H:12])([H:13])[C:4]2([C:5]([H:14])([H:15])[C:6]2([H:16])[H:17])[C:7]1([H:18])[H:19])([H:8])([H:9])[H:10]>>[C:1]([C:2](=[C:3]([H:12])[H:13])[H:11])([H:8])([H:9])[H:10].[C:4]1([C:7]([H:17])([H:18])[H:19])=[C:6]([H:16])[C:5]1([H:14])[H:15]"
C       -2.53180219       0.42045755       0.06844735
C       -1.43670084      -0.57463441      -0.19559751
C       -0.48595342      -0.36901576      -1.25469879
C        1.08151601       0.03584541       0.02044310
C        2.42006280      -0.52693064      -0.34616937
C        2.19544600       0.87965740       0.12954856
C        0.26211050      -0.07151962       1.28003142
H       -3.35313161       0.33498086      -0.64848569
H       -2.13654052       1.43745739       0.01328703
H       -2.96451600       0.26722024       1.06014171
H       -1.78587142      -1.60528887      -0.11979086
H       -0.39097078      -1.12457969      -2.03260312
H       -0.41329350       0.63607060      -1.66869966
H        2.56881517      -0.73160570      -1.40408639
H        2.98847284      -1.18131198       0.30932960
H        2.42172732       1.80040788      -0.39009657
H        1.62837546       0.64732393       1.74189745
H       -0.23712299       0.78918519       1.72181907
H        0.16937717      -1.06371977       1.71528267
19
Frame=15 idx=010395 GeodesicLength=1.6635935552140446 rxn_smarts="[C:1]([C:2]1([H:11])[C:3]([H:12])([H:13])[C:4]2([C:5]([H:14])([H:15])[C:6]2([H:16])[H:17])[C:7]1([H:18])[H:19])([H:8])([H:9])[H:10]>>[C:1]([C:2](=[C:3]([H:12])[H:13])[H:11])([H:8])([H:9])[H:10].[C:4]1([C:7]([H:17])([H:18])[H:19])=[C:6]([H:16])[C:5]1([H:14])[H:15]"
C       -2.52371389       0.43627719       0.06383190
C       -1.44905412      -0.58431248      -0.19490971
C       -0.50699221      -0.40730017      -1.26414309
C        1.09632662       0.03396516       0.03510924
C        2.43699141      -0.50798691      -0.35008379
C        2.19407886       0.89095256       0.14389106
C        0.25292372      -0.08764543       1.27888721
H       -3.34950077       0.36544268      -0.64885901
H       -2.10447257       1.44332205       0.00260156
H       -2.95633653       0.29819189       1.05795567
H       -1.83118777      -1.60425152      -0.12458561
H       -0.42579166      -1.17010093      -2.03599417
H       -0.40188888       0.59376305      -1.68035164
H        2.57823528      -0.70130791      -1.41098045
H        3.02430522      -1.15634230       0.29457218
H        2.39447295       1.81969788      -0.37191262
H        1.63878077       0.65252048       1.76004357
H       -0.23356297       0.76988068       1.74106664
H        0.16638654      -1.08476597       1.70386106
19
Frame=16 idx=010395 GeodesicLength=1.7746600780151038 rxn_smarts="[C:1]([C:2]1([H:11])[C:3]([H:12])([H:13])[C:4]2([C:5]([H:14])([H:15])[C:6]2([H:16])[H:17])[C:7]1([H:18])[H:19])([H:8])([H:9])[H:10]>>[C:1]([C:2](=[C:3]([H:12])[H:13])[H:11])([H:8])([H:9])[H:10].[C:4]1([C:7]([H:17])([H:18])[H:19])=[C:6]([H:16])[C:5]1([H:14])[H:15]"
C       -2.51435879       0.45228417       0.05873013
C       -1.46173226      -0.59448757      -0.19443025
C       -0.52906878      -0.44683994      -1.27366500
C        1.11137433       0.03225015       0.05072892
C        2.45358606      -0.48793517      -0.35414189
C        2.19243219       0.90261420       0.15879191
C        0.24343323      -0.10409347       1.27744328
H       -3.34427039       0.39713624      -0.64984308
H       -2.07027946       1.44830610      -0.00850642
H       -2.94677797       0.32979153       1.05515369
H       -1.87756557      -1.60218437      -0.12919336
H       -0.46257362      -1.21669127      -2.03936373
H       -0.38971919       0.54908484      -1.69161872
H        2.58612683      -0.66979671      -1.41801014
H        3.06025019      -1.12977411       0.27894153
H        2.36612971       1.83892623      -0.35280452
H        1.64950700       0.65825046       1.77888245
H       -0.22992373       0.74926255       1.76099062
H        0.16343021      -1.10610385       1.69191456
