12
Frame=0 idx=007315 GeodesicLength=0.0 rxn_smarts="[O:1]([C:2]([c:3]1[n:4][n:5]([H:11])[c:6]([H:12])[n:7]1)([H:9])[H:10])[H:8]>>[C:6](#[N:7])[H:12].[O:1]([C:2]([C:3]#[N+:4][N-:5][H:11])([H:9])[H:10])[H:8]"
O       -2.11612214       0.26207442      -0.99204876
C       -1.73611849       0.21359226       0.35959070
C       -0.28198385       0.33406356       0.54651927
N        0.70900914       0.99511948       0.48872325
N        1.91421974       0.84867265       0.11558542
C        1.68750255      -1.22595199      -0.39578472
N        0.54876622      -1.44609875      -0.27657035
H       -1.68065260      -0.46978993      -1.43891696
H       -2.07551701      -0.70843366       0.83902927
H       -2.20800691       1.05770780       0.86676261
H        2.52725052       1.54268188       0.52892604
H        2.71165287      -1.40363772      -0.64181575
12
Frame=1 idx=007315 GeodesicLength=0.047599203755770036 rxn_smarts="[O:1]([C:2]([c:3]1[n:4][n:5]([H:11])[c:6]([H:12])[n:7]1)([H:9])[H:10])[H:8]>>[C:6](#[N:7])[H:12].[O:1]([C:2]([C:3]#[N+:4][N-:5][H:11])([H:9])[H:10])[H:8]"
O       -2.11027672       0.28208068      -0.98700884
C       -1.73572752       0.20639080       0.36476517
C       -0.28023097       0.31815038       0.55760480
N        0.69931292       0.99823634       0.47022576
N        1.90704512       0.83675760       0.10563512
C        1.68072420      -1.21729431      -0.40382315
N        0.54722213      -1.46087022      -0.24993939
H       -1.65108059      -0.42392915      -1.45186197
H       -2.08203256      -0.72353666       0.82392110
H       -2.20924713       1.03853733       0.88972760
H        2.52071776       1.54788336       0.48674993
H        2.71357334      -1.40240615      -0.60599612
12
Frame=2 idx=007315 GeodesicLength=0.09533081615313835 rxn_smarts="[O:1]([C:2]([c:3]1[n:4][n:5]([H:11])[c:6]([H:12])[n:7]1)([H:9])[H:10])[H:8]>>[C:6](#[N:7])[H:12].[O:1]([C:2]([C:3]#[N+:4][N-:5][H:11])([H:9])[H:10])[H:8]"
O       -2.10344816       0.30123575      -0.98221482
C       -1.73507044       0.19926554       0.36939496
C       -0.27835984       0.30289946       0.56844403
N        0.68995559       1.00027497       0.45418404
N        1.89972671       0.82499743       0.09661253
C        1.67376926      -1.20949641      -0.41003157
N        0.54609369      -1.47461882      -0.22409777
H       -1.62120345      -0.37857524      -1.46299150
H       -2.08806213      -0.73801862       0.80842387
H       -2.21070042       1.01926867       0.91113109
H        2.51402022       1.55244385       0.44336529
H        2.71327896      -1.39967659      -0.57222014
12
Frame=3 idx=007315 GeodesicLength=0.14311680373964586 rxn_smarts="[O:1]([C:2]([c:3]1[n:4][n:5]([H:11])[c:6]([H:12])[n:7]1)([H:9])[H:10])[H:8]>>[C:6](#[N:7])[H:12].[O:1]([C:2]([C:3]#[N+:4][N-:5][H:11])([H:9])[H:10])[H:8]"
O       -2.09663476       0.32124729      -0.97693579
C       -1.73426879       0.19184772       0.37381470
C       -0.27636684       0.28753754       0.57869980
N        0.68091277       1.00096602       0.44044031
N        1.89200339       0.81357227       0.08704757
C        1.66790084      -1.20343089      -0.41188198
N        0.54493543      -1.48703637      -0.20238764
H       -1.59195469      -0.33107237      -1.47299093
H       -2.09349840      -0.75290810       0.79164622
H       -2.21213448       0.99872290       0.93285294
H        2.50647239       1.55723400       0.39595389
H        2.71263314      -1.39668000      -0.53625907
12
Frame=4 idx=007315 GeodesicLength=0.19078849051635002 rxn_smarts="[O:1]([C:2]([c:3]1[n:4][n:5]([H:11])[c:6]([H:12])[n:7]1)([H:9])[H:10])[H:8]>>[C:6](#[N:7])[H:12].[O:1]([C:2]([C:3]#[N+:4][N-:5][H:11])([H:9])[H:10])[H:8]"
O       -2.09073422       0.34192782      -0.97084648
C       -1.73335383       0.18420102       0.37809159
C       -0.27414790       0.27217552       0.58751999
N        0.67212425       1.00083374       0.42737889
N        1.88445361       0.80232530       0.07766438
C        1.66358623      -1.19863765      -0.41039906
N        0.54358820      -1.49803899      -0.18598895
H       -1.56468606      -0.28184187      -1.48166397
H       -2.09808647      -0.76802267       0.77405174
H       -2.21325975       0.97700877       0.95507054
H        2.49808981       1.56190500       0.34562738
H        2.71242613      -1.39383601      -0.49650604
12
Frame=5 idx=007315 GeodesicLength=0.23848177154787836 rxn_smarts="[O:1]([C:2]([c:3]1[n:4][n:5]([H:11])[c:6]([H:12])[n:7]1)([H:9])[H:10])[H:8]>>[C:6](#[N:7])[H:12].[O:1]([C:2]([C:3]#[N+:4][N-:5][H:11])([H:9])[H:10])[H:8]"
O       -2.08451310       0.36281396      -0.96455216
C       -1.73235248       0.17654588       0.38198868
C       -0.27189158       0.25688557       0.59586983
N        0.66360519       0.99995661       0.41615454
N        1.87679184       0.79142610       0.06848504
C        1.66023076      -1.19459571      -0.40628429
N        0.54220096      -1.50836201      -0.17164192
H       -1.53808480      -0.23205749      -1.48871359
H       -2.10243025      -0.78279075       0.75563937
H       -2.21442632       0.95472169       0.97665146
H        2.48893133       1.56565103       0.29313011
H        2.71193845      -1.39019487      -0.45672706
12
Frame=6 idx=007315 GeodesicLength=0.28613128322869735 rxn_smarts="[O:1]([C:2]([c:3]1[n:4][n:5]([H:11])[c:6]([H:12])[n:7]1)([H:9])[H:10])[H:8]>>[C:6](#[N:7])[H:12].[O:1]([C:2]([C:3]#[N+:4][N-:5][H:11])([H:9])[H:10])[H:8]"
O       -2.07832607       0.38325853      -0.95807533
C       -1.73127502       0.16899623       0.38550080
C       -0.26956052       0.24193548       0.60342920
N        0.65532998       0.99875701       0.40579510
N        1.86950156       0.78068240       0.06052908
C        1.65757676      -1.19079031      -0.40102415
N        0.54086808      -1.51803000      -0.15898542
H       -1.51240068      -0.18254917      -1.49403568
H       -2.10640739      -0.79691548       0.73700374
H       -2.21557094       0.93228639       0.99726192
H        2.47914827       1.56817197       0.23975828
H        2.71111596      -1.38580305      -0.41715754
12
Frame=7 idx=007315 GeodesicLength=0.33372596672430577 rxn_smarts="[O:1]([C:2]([c:3]1[n:4][n:5]([H:11])[c:6]([H:12])[n:7]1)([H:9])[H:10])[H:8]>>[C:6](#[N:7])[H:12].[O:1]([C:2]([C:3]#[N+:4][N-:5][H:11])([H:9])[H:10])[H:8]"
O       -2.07186733       0.40230324      -0.95186539
C       -1.73014906       0.16176334       0.38849932
C       -0.26725764       0.22767766       0.61044875
N        0.64724792       0.99754808       0.39608319
N        1.86297155       0.76984719       0.05547649
C        1.65499305      -1.18671055      -0.39575168
N        0.53976634      -1.52725040      -0.14612000
H       -1.48700894      -0.13462731      -1.49754280
H       -2.11014727      -0.80991110       0.71878137
H       -2.21687837       0.91048394       1.01598708
H        2.46887515       1.56917947       0.18671908
H        2.70945462      -1.38030356      -0.38071541
12
Frame=8 idx=007315 GeodesicLength=0.38131870813801194 rxn_smarts="[O:1]([C:2]([c:3]1[n:4][n:5]([H:11])[c:6]([H:12])[n:7]1)([H:9])[H:10])[H:8]>>[C:6](#[N:7])[H:12].[O:1]([C:2]([C:3]#[N+:4][N-:5][H:11])([H:9])[H:10])[H:8]"
O       -2.06463274       0.42020698      -0.94613347
C       -1.72901430       0.15486220       0.39095559
C       -0.26509287       0.21410493       0.61744036
N        0.63935343       0.99636907       0.38769061
N        1.85683321       0.75927143       0.05259249
C        1.65226906      -1.18225707      -0.39029642
N        0.53897756      -1.53616530      -0.13195488
H       -1.46150176      -0.08846414      -1.49935739
H       -2.11384105      -0.82186358       0.70068035
H       -2.21860202       0.88930171       1.03278747
H        2.45818423       1.56822624       0.13400998
H        2.70706725      -1.37359249      -0.34841469
12
Frame=9 idx=007315 GeodesicLength=0.42898180655217893 rxn_smarts="[O:1]([C:2]([c:3]1[n:4][n:5]([H:11])[c:6]([H:12])[n:7]1)([H:9])[H:10])[H:8]>>[C:6](#[N:7])[H:12].[O:1]([C:2]([C:3]#[N+:4][N-:5][H:11])([H:9])[H:10])[H:8]"
O       -2.05699593       0.43814571      -0.94032852
C       -1.72781829       0.14802244       0.39308404
C       -0.26294217       0.20065058       0.62427809
N        0.63172881       0.99491524       0.38083737
N        1.85083138       0.74917627       0.05047842
C        1.64998016      -1.17771542      -0.38421007
N        0.53834845      -1.54462076      -0.11860173
H       -1.43626977      -0.04226229      -1.49973661
H       -2.11734806      -0.83340584       0.68198894
H       -2.22049908       0.86782758       1.04884022
H        2.44642603       1.56558736       0.07947845
H        2.70455848      -1.36632088      -0.31610858
12
Frame=10 idx=007315 GeodesicLength=0.47680819861557455 rxn_smarts="[O:1]([C:2]([c:3]1[n:4][n:5]([H:11])[c:6]([H:12])[n:7]1)([H:9])[H:10])[H:8]>>[C:6](#[N:7])[H:12].[O:1]([C:2]([C:3]#[N+:4][N-:5][H:11])([H:9])[H:10])[H:8]"
O       -2.04961478       0.45701472      -0.93377799
C       -1.72646303       0.14101104       0.39509370
C       -0.26058071       0.18694000       0.63040678
N        0.62442960       0.99309949       0.37496278
N        1.84457548       0.73997713       0.04649585
C        1.64883811      -1.17341766      -0.37701871
N        0.53771818      -1.55243964      -0.10830248
H       -1.41220450       0.00535809      -1.49876119
H       -2.12038813      -0.84500614       0.66227960
H       -2.22213492       0.84522629       1.06522840
H        2.43349037       1.56108638       0.02293359
H        2.70233433      -1.35884970      -0.27954032
12
Frame=11 idx=007315 GeodesicLength=0.5249634755825954 rxn_smarts="[O:1]([C:2]([c:3]1[n:4][n:5]([H:11])[c:6]([H:12])[n:7]1)([H:9])[H:10])[H:8]>>[C:6](#[N:7])[H:12].[O:1]([C:2]([C:3]#[N+:4][N-:5][H:11])([H:9])[H:10])[H:8]"
O       -2.04241604       0.47755961      -0.92615206
C       -1.72486149       0.13368474       0.39701028
C       -0.25791194       0.17255850       0.63587954
N        0.61760093       0.99065772       0.37053425
N        1.83800376       0.73154669       0.04015118
C        1.64918779      -1.16964644      -0.36822876
N        0.53702260      -1.55976959      -0.10181061
H       -1.38915758       0.05561372      -1.49638717
H       -2.12296637      -0.85688254       0.64089966
H       -2.22335605       0.82087657       1.08241591
H        2.41852338       1.55501706      -0.03749133
H        2.70033101      -1.35121604      -0.23682088
12
Frame=12 idx=007315 GeodesicLength=0.5735804096561449 rxn_smarts="[O:1]([C:2]([c:3]1[n:4][n:5]([H:11])[c:6]([H:12])[n:7]1)([H:9])[H:10])[H:8]>>[C:6](#[N:7])[H:12].[O:1]([C:2]([C:3]#[N+:4][N-:5][H:11])([H:9])[H:10])[H:8]"
O       -2.03517885       0.49978336      -0.91741762
C       -1.72293438       0.12609166       0.39878362
C       -0.25486873       0.15758916       0.64066833
N        0.61131495       0.98771085       0.36741698
N        1.83099371       0.72386609       0.03076145
C        1.65090702      -1.16637428      -0.35803304
N        0.53635986      -1.56672059      -0.09863755
H       -1.36711847       0.10798772      -1.49240335
H       -2.12505619      -0.86885544       0.61780954
H       -2.22410168       0.79478499       1.10021272
H        2.40162148       1.54713418      -0.10081526
H        2.69806127      -1.34299769      -0.18834581
12
Frame=13 idx=007315 GeodesicLength=0.622724138639764 rxn_smarts="[O:1]([C:2]([c:3]1[n:4][n:5]([H:11])[c:6]([H:12])[n:7]1)([H:9])[H:10])[H:8]>>[C:6](#[N:7])[H:12].[O:1]([C:2]([C:3]#[N+:4][N-:5][H:11])([H:9])[H:10])[H:8]"
O       -2.02765677       0.52309478      -0.90777183
C       -1.72064452       0.11834723       0.40033120
C       -0.25145063       0.14217672       0.64493420
N        0.60566020       0.98433380       0.36563134
N        1.82363833       0.71669310       0.01875536
C        1.65362780      -1.16350000      -0.34690108
N        0.53584541      -1.57346293      -0.09779389
H       -1.34552929       0.16184780      -1.48663862
H       -2.12669080      -0.88059202       0.59333841
H       -2.22444252       0.76738015       1.11802098
H        2.38268916       1.53740832      -0.16614293
H        2.69495363      -1.33372695      -0.13576314
12
Frame=14 idx=007315 GeodesicLength=0.6724081336066124 rxn_smarts="[O:1]([C:2]([c:3]1[n:4][n:5]([H:11])[c:6]([H:12])[n:7]1)([H:9])[H:10])[H:8]>>[C:6](#[N:7])[H:12].[O:1]([C:2]([C:3]#[N+:4][N-:5][H:11])([H:9])[H:10])[H:8]"
O       -2.01954734       0.54704557      -0.89747211
C       -1.71798393       0.11058378       0.40154906
C       -0.24771105       0.12653501       0.64887567
N        0.60068003       0.98064229       0.36522107
N        1.81606768       0.70980472       0.00502407
C        1.65697953      -1.16085162      -0.33517088
N        0.53561867      -1.58011130      -0.09809814
H       -1.32396933       0.21640311      -1.47902079
H       -2.12790632      -0.89179888       0.56772079
H       -2.22452190       0.73906746       1.13528938
H        2.36164618       1.52571149      -0.23278670
H        2.69064776      -1.32303162      -0.08113142
12
Frame=15 idx=007315 GeodesicLength=0.722552929076857 rxn_smarts="[O:1]([C:2]([c:3]1[n:4][n:5]([H:11])[c:6]([H:12])[n:7]1)([H:9])[H:10])[H:8]>>[C:6](#[N:7])[H:12].[O:1]([C:2]([C:3]#[N+:4][N-:5][H:11])([H:9])[H:10])[H:8]"
O       -2.01075837       0.57098677      -0.88683718
C       -1.71499990       0.10297049       0.40237575
C       -0.24372679       0.11102621       0.65256364
N        0.59631910       0.97687670       0.36579651
N        1.80836481       0.70308420      -0.00981474
C        1.66054625      -1.15821038      -0.32335694
N        0.53576803      -1.58673618      -0.09831657
H       -1.30233069       0.27043092      -1.46960509
H       -2.12872830      -0.90217728       0.54147519
H       -2.22448766       0.71045317       1.15147282
H        2.33902999       1.51199957      -0.29893736
H        2.68500353      -1.31070419      -0.02681603
12
Frame=16 idx=007315 GeodesicLength=0.7731165467303653 rxn_smarts="[O:1]([C:2]([c:3]1[n:4][n:5]([H:11])[c:6]([H:12])[n:7]1)([H:9])[H:10])[H:8]>>[C:6](#[N:7])[H:12].[O:1]([C:2]([C:3]#[N+:4][N-:5][H:11])([H:9])[H:10])[H:8]"
O       -2.00126579       0.59462759      -0.87603561
C       -1.71172979       0.09559715       0.40279481
C       -0.23955257       0.09579604       0.65606448
N        0.59254746       0.97311566       0.36718243
N        1.80055591       0.69643180      -0.02539647
C        1.66413114      -1.15550064      -0.31168461
N        0.53630313      -1.59340090      -0.09785211
H       -1.28053669       0.32338625      -1.45850463
H       -2.12918149      -0.91159825       0.51486647
H       -2.22442380       0.68186826       1.16634030
H        2.31505784       1.49640953      -0.36377779
H        2.67809464      -1.29673249       0.02600273
