16
Frame=0 idx=009959 GeodesicLength=0.0 rxn_smarts="[C:1]([C:2]#[C:3][C:4]([N:5]1[C:6]([H:13])([H:14])[C:7]1([H:15])[H:16])([H:11])[H:12])([H:8])([H:9])[H:10]>>[C:1]([C:2]/[C:3](=[C:4](\[N:5]1[C:6]([H:13])([H:14])[C:7]1([H:15])[H:16])[H:11])[H:12])([H:8])([H:9])[H:10]"
C        3.07345059       0.38665932       0.18006045
C        1.73533164       0.57968974      -0.43045864
C        0.82257750      -0.30444789      -0.64411672
C       -0.46929455      -0.80725038      -0.66175290
N       -1.38857629      -0.56579060       0.33380542
C       -2.73879362      -0.15487493       0.03036244
C       -1.77185371       0.78592632       0.66945736
H        3.84825654       0.61920545      -0.55455528
H        3.26652676      -0.61531208       0.58637909
H        3.20790798       1.11680813       0.98203487
H       -0.77057069      -1.52414939      -1.41984960
H        0.91174530      -1.50522136      -0.47146046
H       -3.51892905      -0.61614919       0.62408560
H       -2.98788837       0.02384045      -1.01084832
H       -1.36470378       1.58335259       0.05859897
H       -1.85518620       0.99771378       1.72825772
16
Frame=1 idx=009959 GeodesicLength=0.044301722549136946 rxn_smarts="[C:1]([C:2]#[C:3][C:4]([N:5]1[C:6]([H:13])([H:14])[C:7]1([H:15])[H:16])([H:11])[H:12])([H:8])([H:9])[H:10]>>[C:1]([C:2]/[C:3](=[C:4](\[N:5]1[C:6]([H:13])([H:14])[C:7]1([H:15])[H:16])[H:11])[H:12])([H:8])([H:9])[H:10]"
C        3.07660559       0.38710088       0.18387229
C        1.73026757       0.57579692      -0.40778369
C        0.82716807      -0.31242967      -0.64386161
C       -0.46629830      -0.81479371      -0.65502973
N       -1.38464779      -0.56016830       0.33844719
C       -2.73799186      -0.15940850       0.03646829
C       -1.77147243       0.79391541       0.65725518
H        3.84122838       0.65686145      -0.54867762
H        3.28989345      -0.62377696       0.55635246
H        3.20387327       1.09293702       1.00862431
H       -0.78217020      -1.50250304      -1.43414131
H        0.89928070      -1.52651521      -0.47354350
H       -3.51310129      -0.61577318       0.64048348
H       -2.99380990       0.00428636      -1.00561305
H       -1.36879085       1.58388594       0.03378521
H       -1.85003440       1.02058457       1.71336209
16
Frame=2 idx=009959 GeodesicLength=0.08854248145531968 rxn_smarts="[C:1]([C:2]#[C:3][C:4]([N:5]1[C:6]([H:13])([H:14])[C:7]1([H:15])[H:16])([H:11])[H:12])([H:8])([H:9])[H:10]>>[C:1]([C:2]/[C:3](=[C:4](\[N:5]1[C:6]([H:13])([H:14])[C:7]1([H:15])[H:16])[H:11])[H:12])([H:8])([H:9])[H:10]"
C        3.07954879       0.38774002       0.18774175
C        1.72545523       0.57087610      -0.38572008
C        0.83179916      -0.32083991      -0.64326965
C       -0.46343530      -0.82242515      -0.64872206
N       -1.38062796      -0.55454615       0.34274424
C       -2.73708420      -0.16380132       0.04276530
C       -1.77089589       0.80165150       0.64487442
H        3.83357037       0.69441015      -0.54121593
H        3.31296933      -0.63044572       0.52623902
H        3.19982395       1.06855824       1.03437170
H       -0.79332105      -1.47982097      -1.44817177
H        0.88623704      -1.54828729      -0.47588062
H       -3.50702194      -0.61503921       0.65715047
H       -2.99982258      -0.01509475      -0.99985117
H       -1.37274279       1.58394715       0.00887961
H       -1.84445215       1.04311729       1.69806475
16
Frame=3 idx=009959 GeodesicLength=0.13282725652428165 rxn_smarts="[C:1]([C:2]#[C:3][C:4]([N:5]1[C:6]([H:13])([H:14])[C:7]1([H:15])[H:16])([H:11])[H:12])([H:8])([H:9])[H:10]>>[C:1]([C:2]/[C:3](=[C:4](\[N:5]1[C:6]([H:13])([H:14])[C:7]1([H:15])[H:16])[H:11])[H:12])([H:8])([H:9])[H:10]"
C        3.08237559       0.38855453       0.19162073
C        1.72082879       0.56511670      -0.36412559
C        0.83644671      -0.32962828      -0.64226057
C       -0.46072421      -0.83013213      -0.64279867
N       -1.37656774      -0.54891724       0.34672985
C       -2.73611142      -0.16804826       0.04917411
C       -1.77022642       0.80919262       0.63232532
H        3.82522453       0.73200217      -0.53243482
H        3.33603377      -0.63556841       0.49578396
H        3.19595268       1.04354212       1.05949710
H       -0.80391366      -1.45634318      -1.46177701
H        0.87258949      -1.57050577      -0.47831202
H       -3.50075721      -0.61396448       0.67397242
H       -3.00590382      -0.03431104      -0.99369957
H       -1.37664099       1.58362851      -0.01610219
H       -1.83860610       1.06538213       1.68240697
16
Frame=4 idx=009959 GeodesicLength=0.17706671500602203 rxn_smarts="[C:1]([C:2]#[C:3][C:4]([N:5]1[C:6]([H:13])([H:14])[C:7]1([H:15])[H:16])([H:11])[H:12])([H:8])([H:9])[H:10]>>[C:1]([C:2]/[C:3](=[C:4](\[N:5]1[C:6]([H:13])([H:14])[C:7]1([H:15])[H:16])[H:11])[H:12])([H:8])([H:9])[H:10]"
C        3.08568586       0.38946233       0.19501711
C        1.71627645       0.55854812      -0.34129046
C        0.84111987      -0.33875161      -0.63958700
C       -0.45815546      -0.83784932      -0.63659956
N       -1.37295261      -0.54321429       0.35057027
C       -2.73539294      -0.17207578       0.05513608
C       -1.77008351       0.81656371       0.61954883
H        3.81564580       0.77067238      -0.52314367
H        3.36023878      -0.63922700       0.46276107
H        3.19400457       1.01661229       1.08391609
H       -0.81344921      -1.43226348      -1.47426256
H        0.85825348      -1.59304537      -0.47946715
H       -3.49497626      -0.61245204       0.68995326
H       -3.01179744      -0.05329574      -0.98782707
H       -1.38073658       1.58292427      -0.04098281
H       -1.83368079       1.08739153       1.66625755
16
Frame=5 idx=009959 GeodesicLength=0.22136474245493387 rxn_smarts="[C:1]([C:2]#[C:3][C:4]([N:5]1[C:6]([H:13])([H:14])[C:7]1([H:15])[H:16])([H:11])[H:12])([H:8])([H:9])[H:10]>>[C:1]([C:2]/[C:3](=[C:4](\[N:5]1[C:6]([H:13])([H:14])[C:7]1([H:15])[H:16])[H:11])[H:12])([H:8])([H:9])[H:10]"
C        3.08905510       0.39051742       0.19828733
C        1.71186578       0.55111555      -0.31825462
C        0.84581959      -0.34832321      -0.63612253
C       -0.45575978      -0.84563821      -0.63054600
N       -1.36942508      -0.53742246       0.35419659
C       -2.73470424      -0.17592436       0.06107229
C       -1.77001762       0.82384932       0.60645441
H        3.80500114       0.81023283      -0.51242107
H        3.38495120      -0.64128596       0.42803795
H        3.19279802       0.98806879       1.10797553
H       -0.82224564      -1.40766315      -1.48598257
H        0.84321105      -1.61603920      -0.48026261
H       -3.48918279      -0.61048175       0.70590810
H       -3.01771153      -0.07225036      -0.98175103
H       -1.38486228       1.58185972      -0.06613496
H       -1.82879293       1.10938503       1.64954320
16
Frame=6 idx=009959 GeodesicLength=0.26560584085600264 rxn_smarts="[C:1]([C:2]#[C:3][C:4]([N:5]1[C:6]([H:13])([H:14])[C:7]1([H:15])[H:16])([H:11])[H:12])([H:8])([H:9])[H:10]>>[C:1]([C:2]/[C:3](=[C:4](\[N:5]1[C:6]([H:13])([H:14])[C:7]1([H:15])[H:16])[H:11])[H:12])([H:8])([H:9])[H:10]"
C        3.09154233       0.39194068       0.20202249
C        1.70777249       0.54290687      -0.29742990
C        0.85053378      -0.35834601      -0.63363279
C       -0.45354769      -0.85347954      -0.62563198
N       -1.36536795      -0.53179520       0.35727280
C       -2.73354006      -0.17955558       0.06751872
C       -1.76912347       0.83072691       0.59350026
H        3.79409585       0.84794623      -0.49960591
H        3.40767978      -0.64109455       0.39590442
H        3.19035311       0.96077028       1.13058764
H       -0.83082457      -1.38264697      -1.49764614
H        0.82752502      -1.63946923      -0.48259475
H       -3.48258962      -0.60819000       0.72256741
H       -3.02366720      -0.09065883      -0.97473237
H       -1.38838619       1.58035550      -0.09096772
H       -1.82245562       1.13058942       1.63286781
16
Frame=7 idx=009959 GeodesicLength=0.3098705034799618 rxn_smarts="[C:1]([C:2]#[C:3][C:4]([N:5]1[C:6]([H:13])([H:14])[C:7]1([H:15])[H:16])([H:11])[H:12])([H:8])([H:9])[H:10]>>[C:1]([C:2]/[C:3](=[C:4](\[N:5]1[C:6]([H:13])([H:14])[C:7]1([H:15])[H:16])[H:11])[H:12])([H:8])([H:9])[H:10]"
C        3.09388347       0.39357463       0.20572618
C        1.70382148       0.53395710      -0.27687256
C        0.85527433      -0.36883400      -0.63071945
C       -0.45150979      -0.86137847      -0.62104192
N       -1.36128620      -0.52615510       0.36007811
C       -2.73228380      -0.18295274       0.07397883
C       -1.76811858       0.83743238       0.58038538
H        3.78224553       0.88588067      -0.48533954
H        3.43035866      -0.63913723       0.36302313
H        3.18832032       0.93251843       1.15251028
H       -0.83873015      -1.35737130      -1.50857374
H        0.81109522      -1.66330929      -0.48491897
H       -3.47585805      -0.60542837       0.73919013
H       -3.02954378      -0.10882667      -0.96743817
H       -1.39175124       1.57848908      -0.11580761
H       -1.81591741       1.15154088       1.61581990
16
Frame=8 idx=009959 GeodesicLength=0.35422104373433894 rxn_smarts="[C:1]([C:2]#[C:3][C:4]([N:5]1[C:6]([H:13])([H:14])[C:7]1([H:15])[H:16])([H:11])[H:12])([H:8])([H:9])[H:10]>>[C:1]([C:2]/[C:3](=[C:4](\[N:5]1[C:6]([H:13])([H:14])[C:7]1([H:15])[H:16])[H:11])[H:12])([H:8])([H:9])[H:10]"
C        3.09648561       0.39531124       0.20916466
C        1.69994944       0.52420251      -0.25537562
C        0.86005529      -0.37979368      -0.62660708
C       -0.44963931      -0.86931494      -0.61630482
N       -1.35742479      -0.52032792       0.36279018
C       -2.73115022      -0.18613892       0.08025077
C       -1.76740810       0.84417364       0.56679998
H        3.76891663       0.92543295      -0.46949874
H        3.45405861      -0.63545956       0.32705333
H        3.18775032       0.90156043       1.17425536
H       -0.84569907      -1.33193988      -1.51839005
H        0.79384878      -1.68754011      -0.48641916
H       -3.46929327      -0.60208432       0.75555358
H       -3.03534965      -0.12713109      -0.96014917
H       -1.39528510       1.57629516      -0.14110457
H       -1.80981516       1.17275447       1.59798134
16
Frame=9 idx=009959 GeodesicLength=0.39858941874982284 rxn_smarts="[C:1]([C:2]#[C:3][C:4]([N:5]1[C:6]([H:13])([H:14])[C:7]1([H:15])[H:16])([H:11])[H:12])([H:8])([H:9])[H:10]>>[C:1]([C:2]/[C:3](=[C:4](\[N:5]1[C:6]([H:13])([H:14])[C:7]1([H:15])[H:16])[H:11])[H:12])([H:8])([H:9])[H:10]"
C        3.09901927       0.39728249       0.21249365
C        1.69618491       0.51371821      -0.23381547
C        0.86485206      -0.39123684      -0.62187760
C       -0.44794781      -0.87729459      -0.61175331
N       -1.35362451      -0.51449326       0.36528249
C       -2.72996445      -0.18903805       0.08639527
C       -1.76666081       0.85074004       0.55308876
H        3.75440449       0.96515806      -0.45221122
H        3.47774184      -0.62972106       0.29000546
H        3.18814223       0.86945020       1.19508089
H       -0.85189409      -1.30651409      -1.52733868
H        0.77578482      -1.71214621      -0.48771086
H       -3.46273720      -0.59821920       0.77160950
H       -3.04095476      -0.14511539      -0.95276368
H       -1.39861773       1.57375500      -0.16628846
H       -1.80372826       1.19367469       1.57980326
16
Frame=10 idx=009959 GeodesicLength=0.4430004226190776 rxn_smarts="[C:1]([C:2]#[C:3][C:4]([N:5]1[C:6]([H:13])([H:14])[C:7]1([H:15])[H:16])([H:11])[H:12])([H:8])([H:9])[H:10]>>[C:1]([C:2]/[C:3](=[C:4](\[N:5]1[C:6]([H:13])([H:14])[C:7]1([H:15])[H:16])[H:11])[H:12])([H:8])([H:9])[H:10]"
C        3.10046600       0.39960246       0.21646278
C        1.69275120       0.50268873      -0.21496024
C        0.86970890      -0.40317781      -0.61855574
C       -0.44639985      -0.88530306      -0.60847480
N       -1.34905358      -0.50876503       0.36725602
C       -2.72813966      -0.19178102       0.09330293
C       -1.76493155       0.85700413       0.53940971
H        3.73974089       1.00288440      -0.43244383
H        3.49913411      -0.62178867       0.25600831
H        3.18668759       0.83860750       1.21459653
H       -0.85802083      -1.28085838      -1.53634167
H        0.75698762      -1.73713602      -0.49102175
H       -3.45499900      -0.59403641       0.78884706
H       -3.04665163      -0.16285577      -0.94412617
H       -1.40144502       1.57081429      -0.19146207
H       -1.79583519       1.21410066       1.56150293
16
Frame=11 idx=009959 GeodesicLength=0.48753382065434053 rxn_smarts="[C:1]([C:2]#[C:3][C:4]([N:5]1[C:6]([H:13])([H:14])[C:7]1([H:15])[H:16])([H:11])[H:12])([H:8])([H:9])[H:10]>>[C:1]([C:2]/[C:3](=[C:4](\[N:5]1[C:6]([H:13])([H:14])[C:7]1([H:15])[H:16])[H:11])[H:12])([H:8])([H:9])[H:10]"
C        3.10252205       0.40201666       0.21988698
C        1.68929430       0.49070129      -0.19389726
C        0.87459859      -0.41573001      -0.61319545
C       -0.44502214      -0.89342039      -0.60447610
N       -1.34500547      -0.50274704       0.36933487
C       -2.72663241      -0.19419088       0.09966627
C       -1.76382041       0.86344401       0.52506400
H        3.72275684       1.04338964      -0.41067650
H        3.52236938      -0.61150876       0.21650675
H        3.18813915       0.80326006       1.23395887
H       -0.86291208      -1.25551277      -1.54378029
H        0.73722113      -1.76255717      -0.49255538
H       -3.44787391      -0.58898877       0.80526412
H       -3.05208279      -0.18080958      -0.93595000
H       -1.40450162       1.56754684      -0.21727033
H       -1.78905060       1.23510686       1.54211944
16
Frame=12 idx=009959 GeodesicLength=0.5321196112257002 rxn_smarts="[C:1]([C:2]#[C:3][C:4]([N:5]1[C:6]([H:13])([H:14])[C:7]1([H:15])[H:16])([H:11])[H:12])([H:8])([H:9])[H:10]>>[C:1]([C:2]/[C:3](=[C:4](\[N:5]1[C:6]([H:13])([H:14])[C:7]1([H:15])[H:16])[H:11])[H:12])([H:8])([H:9])[H:10]"
C        3.10409213       0.40475253       0.22345069
C        1.68599485       0.47802777      -0.17369717
C        0.87953297      -0.42890707      -0.60788868
C       -0.44379533      -0.90165207      -0.60091708
N       -1.34071278      -0.49674596       0.37115030
C       -2.72482850      -0.19629551       0.10619388
C       -1.76228130       0.86970008       0.51059050
H        3.70469879       1.08342895      -0.38664317
H        3.54472299      -0.59864590       0.17698034
H        3.18969243       0.76715910       1.25208242
H       -0.86726772      -1.23035350      -1.55060486
H        0.71656581      -1.78838823      -0.49455451
H       -3.44033619      -0.58333360       0.82186185
H       -3.05731875      -0.19848554      -0.92728573
H       -1.40715485       1.56388421      -0.24308448
H       -1.78160457       1.25585472       1.52236570
16
Frame=13 idx=009959 GeodesicLength=0.5767968836976937 rxn_smarts="[C:1]([C:2]#[C:3][C:4]([N:5]1[C:6]([H:13])([H:14])[C:7]1([H:15])[H:16])([H:11])[H:12])([H:8])([H:9])[H:10]>>[C:1]([C:2]/[C:3](=[C:4](\[N:5]1[C:6]([H:13])([H:14])[C:7]1([H:15])[H:16])[H:11])[H:12])([H:8])([H:9])[H:10]"
C        3.10556414       0.40778597       0.22684871
C        1.68275183       0.46456355      -0.15310835
C        0.88449659      -0.44278013      -0.60175578
C       -0.44272294      -0.91006479      -0.59727933
N       -1.33651661      -0.49071740       0.37286617
C       -2.72296516      -0.19800490       0.11248561
C       -1.76066974       0.87586627       0.49590137
H        3.68493098       1.12395280      -0.36046527
H        3.56700202      -0.58297269       0.13544063
H        3.19275338       0.72908296       1.26902654
H       -0.87078099      -1.20564794      -1.55644839
H        0.69495121      -1.81468365      -0.49605335
H       -3.43290215      -0.57691510       0.83799316
H       -3.06220678      -0.21584594      -0.91867462
H       -1.40947072       1.55987368      -0.26891236
H       -1.77421503       1.27650730       1.50213526
16
Frame=14 idx=009959 GeodesicLength=0.6215560608728976 rxn_smarts="[C:1]([C:2]#[C:3][C:4]([N:5]1[C:6]([H:13])([H:14])[C:7]1([H:15])[H:16])([H:11])[H:12])([H:8])([H:9])[H:10]>>[C:1]([C:2]/[C:3](=[C:4](\[N:5]1[C:6]([H:13])([H:14])[C:7]1([H:15])[H:16])[H:11])[H:12])([H:8])([H:9])[H:10]"
C        3.10705863       0.41114792       0.22991482
C        1.67955345       0.45010748      -0.13138851
C        0.88948826      -0.45744413      -0.59428170
C       -0.44180198      -0.91870883      -0.59325605
N       -1.33259594      -0.48466153       0.37456367
C       -2.72114137      -0.19924133       0.11829545
C       -1.75908602       0.88194643       0.48096696
H        3.66304088       1.16522380      -0.33195751
H        3.58922231      -0.56394072       0.09090765
H        3.19822422       0.68845117       1.28439670
H       -0.87326628      -1.18154778      -1.56110335
H        0.67228608      -1.84147810      -0.49654907
H       -3.42587259      -0.56961706       0.85323265
H       -3.06660310      -0.23278803      -0.91042594
H       -1.41132737       1.55549431      -0.29469554
H       -1.76717917       1.29705641       1.48137977
16
Frame=15 idx=009959 GeodesicLength=0.6663715847520072 rxn_smarts="[C:1]([C:2]#[C:3][C:4]([N:5]1[C:6]([H:13])([H:14])[C:7]1([H:15])[H:16])([H:11])[H:12])([H:8])([H:9])[H:10]>>[C:1]([C:2]/[C:3](=[C:4](\[N:5]1[C:6]([H:13])([H:14])[C:7]1([H:15])[H:16])[H:11])[H:12])([H:8])([H:9])[H:10]"
C        3.10811885       0.41497451       0.23287316
C        1.67639637       0.43484963      -0.10988276
C        0.89450107      -0.47299761      -0.58628618
C       -0.44102608      -0.92767605      -0.58927147
N       -1.32867038      -0.47877482       0.37611698
C       -2.71911248      -0.19996026       0.12382377
C       -1.75706413       0.88778236       0.46611291
H        3.63952362       1.20593394      -0.30134832
H        3.61040062      -0.54160091       0.04572596
H        3.20487586       0.64706204       1.29782084
H       -0.87500998      -1.15815900      -1.56494227
H        0.64858609      -1.86883738      -0.49681200
H       -3.41891502      -0.56150878       0.86781967
H       -3.07047449      -0.24892805      -0.90230412
H       -1.41234288       1.55077003      -0.32000573
H       -1.75978705       1.31707035       1.46055956
16
Frame=16 idx=009959 GeodesicLength=0.711200357281747 rxn_smarts="[C:1]([C:2]#[C:3][C:4]([N:5]1[C:6]([H:13])([H:14])[C:7]1([H:15])[H:16])([H:11])[H:12])([H:8])([H:9])[H:10]>>[C:1]([C:2]/[C:3](=[C:4](\[N:5]1[C:6]([H:13])([H:14])[C:7]1([H:15])[H:16])[H:11])[H:12])([H:8])([H:9])[H:10]"
C        3.10854111       0.41931196       0.23580965
C        1.67328329       0.41897328      -0.08918847
C        0.89953319      -0.48941389      -0.57811604
C       -0.44037873      -0.93694389      -0.58555509
N       -1.32462961      -0.47321091       0.37744796
C       -2.71677051      -0.20017198       0.12909948
C       -1.75439856       0.89323072       0.45163564
H        3.61481243       1.24500086      -0.26943914
H        3.62987603      -0.51636398       0.00169724
H        3.21216382       0.60654617       1.30900158
H       -0.87611717      -1.13541310      -1.56820865
H        0.62384384      -1.89669657      -0.49730457
H       -3.41192059      -0.55278213       0.88170637
H       -3.07376648      -0.26395898      -0.89429423
H       -1.41230897       1.54576029      -0.34439196
H       -1.75176310       1.33613216       1.44010022
