14
Frame=0 idx=011480 GeodesicLength=0.0 rxn_smarts="[C:1]([C@@:2]([C:3]#[N:4])([C:5](=[O:6])[C:7]([H:12])([H:13])[H:14])[H:11])([H:8])([H:9])[H:10]>>[C:1]([C:2]([C:5]([C:3]#[N:4])=[O:6])([C:7]([H:12])([H:13])[H:14])[H:11])([H:8])([H:9])[H:10]"
C       -1.70534969      -0.95866951       0.19256018
C       -0.73886680      -0.10068309      -0.41712953
C        0.22129771       1.79953945       0.32285506
N        0.07704381       2.93949968       0.29882982
C        0.41899362       0.28153605       0.42648880
O        0.46656068      -0.18800348       1.61965379
C        1.69517478      -0.04785699      -0.45788107
H       -1.88172741      -0.53883554       1.20102848
H       -2.59719372      -1.19245358      -0.37766825
H       -1.14083842      -1.85870107       0.49909410
H       -0.80560119       0.24607649      -1.44544556
H        1.78333496      -1.13090400      -0.53177714
H        2.53304427       0.33907410       0.11601604
H        1.67412736       0.41038154      -1.44662473
14
Frame=1 idx=011480 GeodesicLength=0.10672579493204551 rxn_smarts="[C:1]([C@@:2]([C:3]#[N:4])([C:5](=[O:6])[C:7]([H:12])([H:13])[H:14])[H:11])([H:8])([H:9])[H:10]>>[C:1]([C:2]([C:5]([C:3]#[N:4])=[O:6])([C:7]([H:12])([H:13])[H:14])[H:11])([H:8])([H:9])[H:10]"
C       -1.69549040      -0.95336898       0.18782531
C       -0.71618780      -0.09006006      -0.40563292
C        0.19805291       1.80752777       0.31846823
N        0.06161206       2.94839383       0.29407777
C        0.42609484       0.28119985       0.46276089
O        0.46685324      -0.18835481       1.64886014
C        1.68652530      -0.05793927      -0.46324242
H       -1.87479388      -0.57272529       1.20982690
H       -2.59701128      -1.14323754      -0.38405106
H       -1.14957665      -1.87569159       0.45519089
H       -0.78943116       0.25487193      -1.43409891
H        1.79779438      -1.14081134      -0.49595048
H        2.52699506       0.37214591       0.07617462
H        1.65856338       0.35804958      -1.47020895
14
Frame=2 idx=011480 GeodesicLength=0.21348122037486206 rxn_smarts="[C:1]([C@@:2]([C:3]#[N:4])([C:5](=[O:6])[C:7]([H:12])([H:13])[H:14])[H:11])([H:8])([H:9])[H:10]>>[C:1]([C:2]([C:5]([C:3]#[N:4])=[O:6])([C:7]([H:12])([H:13])[H:14])[H:11])([H:8])([H:9])[H:10]"
C       -1.68523779      -0.94791517       0.18319574
C       -0.69346251      -0.07919744      -0.39394703
C        0.17458407       1.81531628       0.31457779
N        0.04600185       2.95704094       0.28895176
C        0.43312699       0.28145974       0.49853903
O        0.46667958      -0.18845260       1.67768888
C        1.67760491      -0.06830854      -0.46811476
H       -1.86697049      -0.60828702       1.21776427
H       -2.59595813      -1.09295339      -0.38779954
H       -1.15842517      -1.89101454       0.40844886
H       -0.77355295       0.26361402      -1.42263112
H        1.81371038      -1.14875987      -0.45962004
H        2.51834672       0.40444500       0.03508240
H        1.64355255       0.30301259      -1.49213624
14
Frame=3 idx=011480 GeodesicLength=0.32027774399351494 rxn_smarts="[C:1]([C@@:2]([C:3]#[N:4])([C:5](=[O:6])[C:7]([H:12])([H:13])[H:14])[H:11])([H:8])([H:9])[H:10]>>[C:1]([C:2]([C:5]([C:3]#[N:4])=[O:6])([C:7]([H:12])([H:13])[H:14])[H:11])([H:8])([H:9])[H:10]"
C       -1.67462252      -0.94230687       0.17866451
C       -0.67070504      -0.06811109      -0.38210786
C        0.15087515       1.82290583       0.31120502
N        0.03020473       2.96543495       0.28346200
C        0.44008819       0.28222270       0.53382942
O        0.46606465      -0.18833628       1.70613662
C        1.66849286      -0.07898380      -0.47253160
H       -1.85821155      -0.64553251       1.22467807
H       -2.59403937      -1.04168301      -0.38874783
H       -1.16755877      -1.90442634       0.35887228
H       -0.75786369       0.27227731      -1.41108494
H        1.83117705      -1.15463054      -0.42286140
H        2.50703265       0.43595304      -0.00730240
H        1.62906566       0.24521662      -1.51221189
14
Frame=4 idx=011480 GeodesicLength=0.4271291242862029 rxn_smarts="[C:1]([C@@:2]([C:3]#[N:4])([C:5](=[O:6])[C:7]([H:12])([H:13])[H:14])[H:11])([H:8])([H:9])[H:10]>>[C:1]([C:2]([C:5]([C:3]#[N:4])=[O:6])([C:7]([H:12])([H:13])[H:14])[H:11])([H:8])([H:9])[H:10]"
C       -1.66366523      -0.93655835       0.17421363
C       -0.64792082      -0.05681980      -0.37015517
C        0.12688681       1.83029778       0.30834294
N        0.01422649       2.97357498       0.27760758
C        0.44697408       0.28340319       0.56864062
O        0.46502032      -0.18803902       1.73420611
C        1.65926822      -0.08999104      -0.47652130
H       -1.84845930      -0.68447041       1.23038374
H       -2.59126430      -0.98951315      -0.38670229
H       -1.17714126      -1.91567059       0.30647771
H       -0.74225620       0.28082856      -1.39951307
H        1.85028352      -1.15829614      -0.38576916
H        2.49298356       0.46658670      -0.05101009
H        1.61506410       0.18466729      -1.53020124
14
Frame=5 idx=011480 GeodesicLength=0.5340161866892114 rxn_smarts="[C:1]([C@@:2]([C:3]#[N:4])([C:5](=[O:6])[C:7]([H:12])([H:13])[H:14])[H:11])([H:8])([H:9])[H:10]>>[C:1]([C:2]([C:5]([C:3]#[N:4])=[O:6])([C:7]([H:12])([H:13])[H:14])[H:11])([H:8])([H:9])[H:10]"
C       -1.65235847      -0.93067611       0.16981885
C       -0.62509282      -0.04535681      -0.35811511
C        0.10258857       1.83747715       0.30596520
N       -0.00188786       2.98143499       0.27139458
C        0.45378273       0.28492872       0.60298190
O        0.46355421      -0.18756852       1.76188133
C        1.64997245      -0.10138118      -0.48009000
H       -1.83761352      -0.72512028       1.23467412
H       -2.58756756      -0.93652072      -0.38148512
H       -1.18737380      -1.92447376       0.25125407
H       -0.72661320       0.28919802      -1.38793662
H        1.87107751      -1.15961880      -0.34841315
H        2.47605365       0.49629010      -0.09612339
H        1.60147810       0.12138720      -1.54580666
14
Frame=6 idx=011480 GeodesicLength=0.6409751103215892 rxn_smarts="[C:1]([C@@:2]([C:3]#[N:4])([C:5](=[O:6])[C:7]([H:12])([H:13])[H:14])[H:11])([H:8])([H:9])[H:10]>>[C:1]([C:2]([C:5]([C:3]#[N:4])=[O:6])([C:7]([H:12])([H:13])[H:14])[H:11])([H:8])([H:9])[H:10]"
C       -1.64071800      -0.92470069       0.16545544
C       -0.60222065      -0.03373681      -0.34602065
C        0.07793018       1.84444636       0.30401342
N       -0.01808072       2.98901911       0.26478931
C        0.46050876       0.28673680       0.63687358
O        0.46165227      -0.18694633       1.78918727
C        1.64068750      -0.11320227      -0.48324166
H       -1.82562666      -0.76749637       1.23733698
H       -2.58292325      -0.88286099      -0.37289740
H       -1.19842796      -1.93055044       0.19325898
H       -0.71083922       0.29735280      -1.37641275
H        1.89361243      -1.15846677      -0.31093478
H        2.45617188       0.52487769      -0.14266921
H        1.58827345       0.05552792      -1.55873851
14
Frame=7 idx=011480 GeodesicLength=0.7480129497630967 rxn_smarts="[C:1]([C@@:2]([C:3]#[N:4])([C:5](=[O:6])[C:7]([H:12])([H:13])[H:14])[H:11])([H:8])([H:9])[H:10]>>[C:1]([C:2]([C:5]([C:3]#[N:4])=[O:6])([C:7]([H:12])([H:13])[H:14])[H:11])([H:8])([H:9])[H:10]"
C       -1.62871976      -0.91866929       0.16108252
C       -0.57929421      -0.02197009      -0.33390529
C        0.05285219       1.85120410       0.30240155
N       -0.03431178       2.99631746       0.25774504
C        0.46713138       0.28878543       0.67033011
O        0.45927914      -0.18616027       1.81612914
C        1.63147008      -0.12551097      -0.48596519
H       -1.81239867      -0.81156276       1.23812442
H       -2.57725726      -0.82875593      -0.36072014
H       -1.21042612      -1.93357562       0.13258604
H       -0.69484230       0.30524602      -1.36499234
H        1.91784087      -1.15473535      -0.27355115
H        2.43327796       0.55202106      -0.19058057
H        1.57539846      -0.01263382      -1.56868415
14
Frame=8 idx=011480 GeodesicLength=0.8551683449778464 rxn_smarts="[C:1]([C@@:2]([C:3]#[N:4])([C:5](=[O:6])[C:7]([H:12])([H:13])[H:14])[H:11])([H:8])([H:9])[H:10]>>[C:1]([C:2]([C:5]([C:3]#[N:4])=[O:6])([C:7]([H:12])([H:13])[H:14])[H:11])([H:8])([H:9])[H:10]"
C       -1.61635734      -0.91262107       0.15666970
C       -0.55628835      -0.01009273      -0.32180300
C        0.02729708       1.85773321       0.30101512
N       -0.05057176       3.00330420       0.25020927
C        0.47363957       0.29102867       0.70337057
O        0.45640205      -0.18522582       1.84272050
C        1.62240211      -0.13835607      -0.48824084
H       -1.79786037      -0.85725990       1.23679780
H       -2.57047992      -0.77442082      -0.34475625
H       -1.22355946      -1.93323146       0.06939231
H       -0.67853580       0.31281654      -1.35372736
H        1.94371348      -1.14833720      -0.23650548
H        2.40734996       0.57740235      -0.23976972
H        1.56284876      -0.08273990      -1.57537262
14
Frame=9 idx=011480 GeodesicLength=0.9624229976656002 rxn_smarts="[C:1]([C@@:2]([C:3]#[N:4])([C:5](=[O:6])[C:7]([H:12])([H:13])[H:14])[H:11])([H:8])([H:9])[H:10]>>[C:1]([C:2]([C:5]([C:3]#[N:4])=[O:6])([C:7]([H:12])([H:13])[H:14])[H:11])([H:8])([H:9])[H:10]"
C       -1.60361382      -0.90658130       0.15218489
C       -0.53315410       0.00182578      -0.30974791
C        0.00124607       1.86397509       0.29969529
N       -0.06689499       3.00988857       0.24214030
C        0.48003784       0.29343670       0.73600250
O        0.45301087      -0.18412965       1.86894299
C        1.61355279      -0.15176971      -0.49002192
H       -1.78190439      -0.90452523       1.23310569
H       -2.56245026      -0.72005184      -0.32480862
H       -1.23810566      -1.92917617       0.00383403
H       -0.66183691       0.31994312      -1.34264915
H        1.97110790      -1.13917354      -0.20002935
H        2.37838452       0.60069760      -0.29010328
H        1.55062013      -0.15435941      -1.57854546
14
Frame=10 idx=011480 GeodesicLength=1.0698289631700344 rxn_smarts="[C:1]([C@@:2]([C:3]#[N:4])([C:5](=[O:6])[C:7]([H:12])([H:13])[H:14])[H:11])([H:8])([H:9])[H:10]>>[C:1]([C:2]([C:5]([C:3]#[N:4])=[O:6])([C:7]([H:12])([H:13])[H:14])[H:11])([H:8])([H:9])[H:10]"
C       -1.59046574      -0.90060979       0.14759771
C       -0.50985752       0.01374968      -0.29777128
C       -0.02533299       1.86990986       0.29826066
N       -0.08333168       3.01604525       0.23347291
C        0.48630031       0.29599140       0.76823743
O        0.44904471      -0.18287820       1.89479107
C        1.60499806      -0.16576453      -0.49127595
H       -1.76448202      -0.95321686       1.22679296
H       -2.55299851      -0.66598858      -0.30069288
H       -1.25424340      -1.92107292      -0.06378785
H       -0.64467737       0.32656515      -1.33179815
H        1.99979699      -1.12726177      -0.16448067
H        2.34649957       0.62146931      -0.34129145
H        1.53874959      -0.22693799      -1.57805450
14
Frame=11 idx=011480 GeodesicLength=1.1773998318698313 rxn_smarts="[C:1]([C@@:2]([C:3]#[N:4])([C:5](=[O:6])[C:7]([H:12])([H:13])[H:14])[H:11])([H:8])([H:9])[H:10]>>[C:1]([C:2]([C:5]([C:3]#[N:4])=[O:6])([C:7]([H:12])([H:13])[H:14])[H:11])([H:8])([H:9])[H:10]"
C       -1.57687092      -0.89475866       0.14286421
C       -0.48640039       0.02569427      -0.28591162
C       -0.05246848       1.87553078       0.29650785
N       -0.09999528       3.02175517       0.22415695
C        0.49238287       0.29870078       0.80008915
O        0.44444699      -0.18144467       1.92027327
C        1.59680266      -0.18032262      -0.49200497
H       -1.74557556      -1.00299472       1.21763480
H       -2.54196484      -0.61282942      -0.27236668
H       -1.27197196      -1.90859110      -0.13293444
H       -0.62705887       0.33266924      -1.32123513
H        2.02933722      -1.11281065      -0.13039052
H        2.31206628       0.63911173      -0.39276973
H        1.52727026      -0.29971012      -1.57391314
14
Frame=12 idx=011480 GeodesicLength=1.2851865330798309 rxn_smarts="[C:1]([C@@:2]([C:3]#[N:4])([C:5](=[O:6])[C:7]([H:12])([H:13])[H:14])[H:11])([H:8])([H:9])[H:10]>>[C:1]([C:2]([C:5]([C:3]#[N:4])=[O:6])([C:7]([H:12])([H:13])[H:14])[H:11])([H:8])([H:9])[H:10]"
C       -1.56283712      -0.88907155       0.13795159
C       -0.46276548       0.03763692      -0.27421066
C       -0.08017216       1.88080163       0.29420961
N       -0.11704549       3.02698029       0.21414354
C        0.49826251       0.30155831       0.83157441
O        0.43917871      -0.17984611       1.94540364
C        1.58906054      -0.19538724      -0.49221229
H       -1.72518903      -1.05360109       1.20546672
H       -2.52922670      -0.56102735      -0.23978741
H       -1.29144799      -1.89145226      -0.20310032
H       -0.60898102       0.33822005      -1.31101905
H        2.05936312      -1.09605289      -0.09814242
H        2.27553369       0.65325775      -0.44402994
H        1.51626643      -0.37201646      -1.56624741
14
Frame=13 idx=011480 GeodesicLength=1.3931890691469333 rxn_smarts="[C:1]([C@@:2]([C:3]#[N:4])([C:5](=[O:6])[C:7]([H:12])([H:13])[H:14])[H:11])([H:8])([H:9])[H:10]>>[C:1]([C:2]([C:5]([C:3]#[N:4])=[O:6])([C:7]([H:12])([H:13])[H:14])[H:11])([H:8])([H:9])[H:10]"
C       -1.54828969      -0.88355096       0.13281253
C       -0.43885223       0.04947476      -0.26269984
C       -0.10838703       1.88561406       0.29109192
N       -0.13471652       3.03159624       0.20344163
C        0.50390935       0.30458860       0.86264242
O        0.43318779      -0.17801408       1.97002611
C        1.58175505      -0.21090128      -0.49183130
H       -1.70310156      -1.10498462       1.19000579
H       -2.51443945      -0.51073878      -0.20269650
H       -1.31307760      -1.86929830      -0.27406897
H       -0.59035367       0.34303442      -1.30110615
H        2.08946973      -1.07710824      -0.06784594
H        2.23715403       0.66375703      -0.49469285
H        1.50574179      -0.44346884      -1.55507884
14
Frame=14 idx=011480 GeodesicLength=1.5014576540723557 rxn_smarts="[C:1]([C@@:2]([C:3]#[N:4])([C:5](=[O:6])[C:7]([H:12])([H:13])[H:14])[H:11])([H:8])([H:9])[H:10]>>[C:1]([C:2]([C:5]([C:3]#[N:4])=[O:6])([C:7]([H:12])([H:13])[H:14])[H:11])([H:8])([H:9])[H:10]"
C       -1.53325977      -0.87825528       0.12741680
C       -0.41473597       0.06131507      -0.25141325
C       -0.13712928       1.88999672       0.28697783
N       -0.15317222       3.03567464       0.19205574
C        0.50928036       0.30778518       0.89333817
O        0.42644684      -0.17601252       1.99423303
C        1.57497112      -0.22675336      -0.49099847
H       -1.67959853      -1.15642425       1.17126081
H       -2.49756370      -0.46296004      -0.16157103
H       -1.33657904      -1.84203097      -0.34471385
H       -0.57130571       0.34726210      -1.29159173
H        2.11902016      -1.05668264      -0.04010960
H        2.19785329       0.67025010      -0.54394396
H        1.49577244      -0.51316475      -1.54094049
14
Frame=15 idx=011480 GeodesicLength=1.6100091570022759 rxn_smarts="[C:1]([C@@:2]([C:3]#[N:4])([C:5](=[O:6])[C:7]([H:12])([H:13])[H:14])[H:11])([H:8])([H:9])[H:10]>>[C:1]([C:2]([C:5]([C:3]#[N:4])=[O:6])([C:7]([H:12])([H:13])[H:14])[H:11])([H:8])([H:9])[H:10]"
C       -1.51771872      -0.87318929       0.12170099
C       -0.39040719       0.07317940      -0.24036903
C       -0.16636179       1.89389961       0.28168141
N       -0.17254413       3.03918448       0.17999631
C        0.51432757       0.31116812       0.92365115
O        0.41890246      -0.17381495       2.01795946
C        1.56867348      -0.24284489      -0.48975390
H       -1.65464456      -1.20762337       1.14912730
H       -2.47842299      -0.41818712      -0.11656999
H       -1.36199843      -1.80949723      -0.41442778
H       -0.55185825       0.35090075      -1.28246030
H        2.14753113      -1.03523696      -0.01506717
H        2.15821344       0.67276927      -0.59129445
H        1.48630801      -0.58070783      -1.52417400
14
Frame=16 idx=011480 GeodesicLength=1.7188450419931476 rxn_smarts="[C:1]([C@@:2]([C:3]#[N:4])([C:5](=[O:6])[C:7]([H:12])([H:13])[H:14])[H:11])([H:8])([H:9])[H:10]>>[C:1]([C:2]([C:5]([C:3]#[N:4])=[O:6])([C:7]([H:12])([H:13])[H:14])[H:11])([H:8])([H:9])[H:10]"
C       -1.50165594      -0.86834825       0.11560669
C       -0.36588085       0.08513160      -0.22957415
C       -0.19604559       1.89728956       0.27507869
N       -0.19292826       3.04212465       0.16731138
C        0.51901365       0.31474189       0.95357988
O        0.41052695      -0.17142992       2.04116132
C        1.56281363      -0.25906941      -0.48819154
H       -1.62834013      -1.25810732       1.12360573
H       -2.45690300      -0.37704145      -0.06814195
H       -1.38920047      -1.77170030      -0.48237612
H       -0.53206312       0.35401418      -1.27369386
H        2.17451193      -1.01336144       0.00714064
H        2.11889179       0.67145874      -0.63627301
H        1.47725941      -0.64570255      -1.50523370
