12
Frame=0 idx=002635 GeodesicLength=0.0 rxn_smarts="[C:1]([C@@:2]1([H:10])[O:3][C:4]([H:11])([H:12])[C:5]1=[O:6])([H:7])([H:8])[H:9]>>[C:1]([C@@:2]([O:3][H:11])([C:5](=[C+:4][H:12])[O-:6])[H:10])([H:7])([H:8])[H:9]"
C       -1.45186620      -0.41988885      -0.42192480
C       -0.25453644      -0.20276522       0.45853964
O        0.90583952      -1.04630007       0.13146435
C        1.75214279       0.40156099      -0.11571073
C        0.55727531       1.08375349       0.31830306
O        0.26243297       2.23549390       0.50165008
H       -2.22328428       0.30090194      -0.14636073
H       -1.19944657      -0.25832301      -1.47141901
H       -1.85535744      -1.42614002      -0.30210508
H       -0.46300221      -0.40315615       1.51109356
H        1.25160662      -0.64160686      -0.83503297
H        2.71819597       0.37646981       0.37150265
12
Frame=1 idx=002635 GeodesicLength=0.05242949681804791 rxn_smarts="[C:1]([C@@:2]1([H:10])[O:3][C:4]([H:11])([H:12])[C:5]1=[O:6])([H:7])([H:8])[H:9]>>[C:1]([C@@:2]([O:3][H:11])([C:5](=[C+:4][H:12])[O-:6])[H:10])([H:7])([H:8])[H:9]"
C       -1.45186454      -0.41977147      -0.42028002
C       -0.25570749      -0.20130308       0.46143881
O        0.90810521      -1.03987286       0.13119822
C        1.74925599       0.39536341      -0.11122830
C        0.55629806       1.08527517       0.31838310
O        0.26217700       2.23800406       0.49586670
H       -2.22531714       0.29825809      -0.14311821
H       -1.19991575      -0.25428451      -1.46927251
H       -1.85277146      -1.42740804      -0.30318535
H       -0.46510733      -0.40266129       1.51370253
H        1.25960098      -0.64432586      -0.85003086
H        2.71524646       0.37272638       0.37652590
12
Frame=2 idx=002635 GeodesicLength=0.10487057151714044 rxn_smarts="[C:1]([C@@:2]1([H:10])[O:3][C:4]([H:11])([H:12])[C:5]1=[O:6])([H:7])([H:8])[H:9]>>[C:1]([C@@:2]([O:3][H:11])([C:5](=[C+:4][H:12])[O-:6])[H:10])([H:7])([H:8])[H:9]"
C       -1.45184178      -0.41962346      -0.41865388
C       -0.25693425      -0.19985357       0.46443700
O        0.91023231      -1.03353814       0.13102657
C        1.74622502       0.38924982      -0.10697812
C        0.55531070       1.08676166       0.31863448
O        0.26189376       2.24045529       0.49020963
H       -2.22731009       0.29568620      -0.13999310
H       -1.20024599      -0.25026205      -1.46711105
H       -1.85024195      -1.42860135      -0.30429341
H       -0.46732218      -0.40221199       1.51639061
H        1.26799232      -0.64712420      -0.86480579
H        2.71224213       0.36906178       0.38113704
12
Frame=3 idx=002635 GeodesicLength=0.15731505657024972 rxn_smarts="[C:1]([C@@:2]1([H:10])[O:3][C:4]([H:11])([H:12])[C:5]1=[O:6])([H:7])([H:8])[H:9]>>[C:1]([C@@:2]([O:3][H:11])([C:5](=[C+:4][H:12])[O-:6])[H:10])([H:7])([H:8])[H:9]"
C       -1.45180305      -0.41944474      -0.41704043
C       -0.25821393      -0.19841261       0.46752783
O        0.91222126      -1.02729045       0.13093510
C        1.74306030       0.38321482      -0.10294463
C        0.55431365       1.08821391       0.31904950
O        0.26157752       2.24284536       0.48464147
H       -2.22927342       0.29317203      -0.13696501
H       -1.20045663      -0.24624028      -1.46492731
H       -1.84776296      -1.42972207      -0.30542967
H       -0.46963344      -0.40180662       1.51915077
H        1.27678909      -0.64998379      -0.87937285
H        2.70918161       0.36545444       0.38537522
12
Frame=4 idx=002635 GeodesicLength=0.2097592113771972 rxn_smarts="[C:1]([C@@:2]1([H:10])[O:3][C:4]([H:11])([H:12])[C:5]1=[O:6])([H:7])([H:8])[H:9]>>[C:1]([C@@:2]([O:3][H:11])([C:5](=[C+:4][H:12])[O-:6])[H:10])([H:7])([H:8])[H:9]"
C       -1.45175478      -0.41923815      -0.41543526
C       -0.25954417      -0.19698385       0.47070063
O        0.91407277      -1.02112674       0.13090033
C        1.73977149       0.37725945      -0.09911753
C        0.55330561       1.08962913       0.31961254
O        0.26123567       2.24516967       0.47916583
H       -2.23120158       0.29072963      -0.13404049
H       -1.20055768      -0.24224795      -1.46271909
H       -1.84535386      -1.43076463      -0.30656021
H       -0.47203032      -0.40145119       1.52196921
H        1.28599892      -0.65288404      -0.89375966
H        2.70605795       0.36190867       0.38928369
12
Frame=5 idx=002635 GeodesicLength=0.26222410828623394 rxn_smarts="[C:1]([C@@:2]1([H:10])[O:3][C:4]([H:11])([H:12])[C:5]1=[O:6])([H:7])([H:8])[H:9]>>[C:1]([C@@:2]([O:3][H:11])([C:5](=[C+:4][H:12])[O-:6])[H:10])([H:7])([H:8])[H:9]"
C       -1.45169916      -0.41900291      -0.41383483
C       -0.26092427      -0.19556657       0.47395906
O        0.91578858      -1.01505642       0.13092070
C        1.73636481       0.37137734      -0.09549055
C        0.55228679       1.09101506       0.32032438
O        0.26086082       2.24744550       0.47374714
H       -2.23310667       0.28834921      -0.13119453
H       -1.20056007      -0.23825714      -1.46048938
H       -1.84300230      -1.43174234      -0.30769885
H       -0.47451060      -0.40114604       1.52485803
H        1.29563107      -0.65582468      -0.90798558
H        2.70287100       0.35840898       0.39288440
12
Frame=6 idx=002635 GeodesicLength=0.31470543968796105 rxn_smarts="[C:1]([C@@:2]1([H:10])[O:3][C:4]([H:11])([H:12])[C:5]1=[O:6])([H:7])([H:8])[H:9]>>[C:1]([C@@:2]([O:3][H:11])([C:5](=[C+:4][H:12])[O-:6])[H:10])([H:7])([H:8])[H:9]"
C       -1.45163815      -0.41873982      -0.41223749
C       -0.26235471      -0.19415593       0.47730001
O        0.91736771      -1.00907255       0.13099775
C        1.73284453       0.36556214      -0.09205993
C        0.55125615       1.09237412       0.32117791
O        0.26045311       2.24966914       0.46837838
H       -2.23499517       0.28601603      -0.12841551
H       -1.20047238      -0.23425875      -1.45823223
H       -1.84070290      -1.43265685      -0.30885093
H       -0.47707472      -0.40088159       1.52781203
H        1.30569346      -0.65879851      -0.92205514
H        2.69962307       0.35494256       0.39618515
12
Frame=7 idx=002635 GeodesicLength=0.36719808865797554 rxn_smarts="[C:1]([C@@:2]1([H:10])[O:3][C:4]([H:11])([H:12])[C:5]1=[O:6])([H:7])([H:8])[H:9]>>[C:1]([C@@:2]([O:3][H:11])([C:5](=[C+:4][H:12])[O-:6])[H:10])([H:7])([H:8])[H:9]"
C       -1.45157698      -0.41844573      -0.41063767
C       -0.26383563      -0.19275334       0.48072312
O        0.91880749      -1.00318011       0.13112645
C        1.72921347       0.35981060      -0.08881599
C        0.55021768       1.09370010       0.32217017
O        0.26001436       2.25183837       0.46302305
H       -2.23688081       0.28371990      -0.12567681
H       -1.20030678      -0.23022664      -1.45594143
H       -1.83844356      -1.43351399      -0.31003115
H       -0.47972051      -0.40065447       1.53083052
H        1.31620038      -0.66180411      -0.93597719
H        2.69631088       0.35150944       0.39920693
12
Frame=8 idx=002635 GeodesicLength=0.41968606896121374 rxn_smarts="[C:1]([C@@:2]1([H:10])[O:3][C:4]([H:11])([H:12])[C:5]1=[O:6])([H:7])([H:8])[H:9]>>[C:1]([C@@:2]([O:3][H:11])([C:5](=[C+:4][H:12])[O-:6])[H:10])([H:7])([H:8])[H:9]"
C       -1.45151920      -0.41812235      -0.40902812
C       -0.26536321      -0.19135719       0.48422009
O        0.92010835      -0.99737728       0.13128120
C        1.72547743       0.35411467      -0.08574995
C        0.54917429       1.09499676       0.32328510
O        0.25954271       2.25395531       0.45765270
H       -2.23876102       0.28145730      -0.12296048
H       -1.20008204      -0.22615839      -1.45360895
H       -1.83622472      -1.43431671      -0.31123267
H       -0.48243309      -0.40046603       1.53390739
H        1.32716457      -0.66481734      -0.94976629
H        2.69291593       0.34809124       0.40199999
12
Frame=9 idx=002635 GeodesicLength=0.4721889758497077 rxn_smarts="[C:1]([C@@:2]1([H:10])[O:3][C:4]([H:11])([H:12])[C:5]1=[O:6])([H:7])([H:8])[H:9]>>[C:1]([C@@:2]([O:3][H:11])([C:5](=[C+:4][H:12])[O-:6])[H:10])([H:7])([H:8])[H:9]"
C       -1.45146701      -0.41777029      -0.40741295
C       -0.26694251      -0.18996566       0.48779535
O        0.92127192      -0.99166481       0.13148692
C        1.72163533       0.34847079      -0.08286922
C        0.54812008       1.09626715       0.32452919
O        0.25904086       2.25601902       0.45229699
H       -2.24064283       0.27922979      -0.12028252
H       -1.19978966      -0.22206344      -1.45124085
H       -1.83405065      -1.43506549      -0.31245340
H       -0.48522532      -0.40030940       1.53704706
H        1.33859227      -0.66783899      -0.96342312
H        2.68945753       0.34469135       0.40452655
12
Frame=10 idx=002635 GeodesicLength=0.5247210233821084 rxn_smarts="[C:1]([C@@:2]1([H:10])[O:3][C:4]([H:11])([H:12])[C:5]1=[O:6])([H:7])([H:8])[H:9]>>[C:1]([C@@:2]([O:3][H:11])([C:5](=[C+:4][H:12])[O-:6])[H:10])([H:7])([H:8])[H:9]"
C       -1.45142016      -0.41739120      -0.40579298
C       -0.26857512      -0.18857898       0.49144666
O        0.92229918      -0.98603935       0.13175083
C        1.71768576       0.34288086      -0.08017689
C        0.54705153       1.09750979       0.32589723
O        0.25851048       2.25802495       0.44698682
H       -2.24251778       0.27705125      -0.11765867
H       -1.19942397      -0.21796453      -1.44884062
H       -1.83192866      -1.43575569      -0.31367573
H       -0.48810072      -0.40018246       1.54024685
H        1.35048378      -0.67087234      -0.97696255
H        2.68593569       0.34131769       0.40677905
12
Frame=11 idx=002635 GeodesicLength=0.5772729209715393 rxn_smarts="[C:1]([C@@:2]1([H:10])[O:3][C:4]([H:11])([H:12])[C:5]1=[O:6])([H:7])([H:8])[H:9]>>[C:1]([C@@:2]([O:3][H:11])([C:5](=[C+:4][H:12])[O-:6])[H:10])([H:7])([H:8])[H:9]"
C       -1.45138391      -0.41698411      -0.40416355
C       -0.27025928      -0.18719713       0.49517206
O        0.92318973      -0.98050494       0.13206245
C        1.71363107       0.33733892      -0.07766520
C        0.54597359       1.09872459       0.32738510
O        0.25795260       2.25997449       0.44169018
H       -2.24439631       0.27491251      -0.11506862
H       -1.19900093      -0.21384630      -1.44640352
H       -1.82985614      -1.43639190      -0.31490651
H       -0.49105295      -0.40008412       1.54350598
H        1.36285898      -0.67390240      -0.99039015
H        2.68234354       0.33796038       0.40878178
12
Frame=12 idx=002635 GeodesicLength=0.6298189308258166 rxn_smarts="[C:1]([C@@:2]1([H:10])[O:3][C:4]([H:11])([H:12])[C:5]1=[O:6])([H:7])([H:8])[H:9]>>[C:1]([C@@:2]([O:3][H:11])([C:5](=[C+:4][H:12])[O-:6])[H:10])([H:7])([H:8])[H:9]"
C       -1.45136374      -0.41654739      -0.40251690
C       -0.27199593      -0.18581902       0.49896923
O        0.92393999      -0.97506390       0.13240748
C        1.70947421       0.33183175      -0.07532996
C        0.54488784       1.09991054       0.32898488
O        0.25736635       2.26186524       0.43636226
H       -2.24628784       0.27279865      -0.11248536
H       -1.19853570      -0.20968128      -1.44391731
H       -1.82782264      -1.43698064      -0.31615846
H       -0.49407573      -0.40001228       1.54682343
H        1.37574062      -0.67690341      -1.00370092
H        2.67867256       0.33460173       0.41056162
12
Frame=13 idx=002635 GeodesicLength=0.6823781480805008 rxn_smarts="[C:1]([C@@:2]1([H:10])[O:3][C:4]([H:11])([H:12])[C:5]1=[O:6])([H:7])([H:8])[H:9]>>[C:1]([C@@:2]([O:3][H:11])([C:5](=[C+:4][H:12])[O-:6])[H:10])([H:7])([H:8])[H:9]"
C       -1.45135991      -0.41608351      -0.40085730
C       -0.27378601      -0.18444493       0.50283610
O        0.92455194      -0.96971404       0.13279859
C        1.70521404       0.32636393      -0.07317582
C        0.54379078       1.10106802       0.33069440
O        0.25675479       2.26369479       0.43104975
H       -2.24818501       0.27072649      -0.10993245
H       -1.19802346      -0.20550406      -1.44139192
H       -1.82584457      -1.43751449      -0.31740935
H       -0.49717498      -0.39996446       1.55019667
H        1.38913223      -0.67988196      -1.01690851
H        2.67493016       0.33125421       0.41209983
12
Frame=14 idx=002635 GeodesicLength=0.7349579497781951 rxn_smarts="[C:1]([C@@:2]1([H:10])[O:3][C:4]([H:11])([H:12])[C:5]1=[O:6])([H:7])([H:8])[H:9]>>[C:1]([C@@:2]([O:3][H:11])([C:5](=[C+:4][H:12])[O-:6])[H:10])([H:7])([H:8])[H:9]"
C       -1.45137524      -0.41559415      -0.39918449
C       -0.27563109      -0.18307577       0.50677041
O        0.92502867      -0.96445798       0.13324122
C        1.70084845       0.32092960      -0.07120534
C        0.54268068       1.10219668       0.33250697
O        0.25612208       2.26545982       0.42577428
H       -2.25008536       0.26870790      -0.10742379
H       -1.19746224      -0.20133538      -1.43883060
H       -1.82393533      -1.43799162      -0.31864201
H       -0.50035277      -0.39993934       1.55362394
H        1.40304581      -0.68282071      -1.03001912
H        2.67111634       0.32792094       0.41338855
12
Frame=15 idx=002635 GeodesicLength=0.7875513718190125 rxn_smarts="[C:1]([C@@:2]1([H:10])[O:3][C:4]([H:11])([H:12])[C:5]1=[O:6])([H:7])([H:8])[H:9]>>[C:1]([C@@:2]([O:3][H:11])([C:5](=[C+:4][H:12])[O-:6])[H:10])([H:7])([H:8])[H:9]"
C       -1.45141236      -0.41508091      -0.39749862
C       -0.27753232      -0.18171200       0.51076890
O        0.92537118      -0.95929644       0.13373845
C        1.69637568       0.31552534      -0.06942308
C        0.54155604       1.10329563       0.33441513
O        0.25547151       2.26715709       0.42056017
H       -2.25198485       0.26675416      -0.10497140
H       -1.19685230      -0.19719614      -1.43623674
H       -1.82210714      -1.43840901      -0.31984116
H       -0.50360991      -0.39993491       1.55710237
H        1.41749369      -0.68570924      -1.04303442
H        2.66723078       0.32460642       0.41442041
12
Frame=16 idx=002635 GeodesicLength=0.8401542761212061 rxn_smarts="[C:1]([C@@:2]1([H:10])[O:3][C:4]([H:11])([H:12])[C:5]1=[O:6])([H:7])([H:8])[H:9]>>[C:1]([C@@:2]([O:3][H:11])([C:5](=[C+:4][H:12])[O-:6])[H:10])([H:7])([H:8])[H:9]"
C       -1.45147419      -0.41454545      -0.39579966
C       -0.27949081      -0.18035433       0.51482837
O        0.92558069      -0.95423109       0.13429397
C        1.69179398       0.31014691      -0.06783326
C        0.54041573       1.10436365       0.33641099
O        0.25480663       2.26878389       0.41543035
H       -2.25388013       0.26487659      -0.10258659
H       -1.19619400      -0.19310662      -1.43361398
H       -1.82037250      -1.43876432      -0.32099140
H       -0.50694727      -0.39994899       1.56062936
H        1.43248904      -0.68853485      -1.05595682
H        2.66327284       0.32131461       0.41518866
