10
Frame=0 idx=007195 GeodesicLength=0.0 rxn_smarts="[N:1](=[C:2](\[O:3][C:4](=[O:5])[H:9])[C:6](=[O:7])[H:10])\[H:8]>>[C-:6]#[O+:7].[C:4](=[O:5])([H:9])[H:10].[N:1](=[C:2]=[O:3])[H:8]"
N       -1.35444668       1.02027909      -1.48138281
C       -0.44209267       0.56217311      -0.72983552
O        0.78321274       0.66996332      -0.51882798
C        1.34072498      -0.49844339       0.94887617
O        1.53366262       0.06408370       1.96623605
C       -1.09668399      -0.52067830       0.23133011
O       -2.04301242      -0.99261266       0.64665338
H       -0.97979289       1.70563681      -2.13344010
H        2.05534490      -1.03686817       0.31382739
H        0.20308341      -0.97353351       0.75656330
10
Frame=1 idx=007195 GeodesicLength=0.13124861330216578 rxn_smarts="[N:1](=[C:2](\[O:3][C:4](=[O:5])[H:9])[C:6](=[O:7])[H:10])\[H:8]>>[C-:6]#[O+:7].[C:4](=[O:5])([H:9])[H:10].[N:1](=[C:2]=[O:3])[H:8]"
N       -1.35645454       1.07387027      -1.43617158
C       -0.42950736       0.50092724      -0.79312166
O        0.81052263       0.55118087      -0.64827188
C        1.34765713      -0.47559471       0.95698659
O        1.54036561       0.19493503       1.90827041
C       -1.11386685      -0.54943654       0.22879597
O       -2.06257083      -1.05924420       0.59405030
H       -0.98647726       1.81715712      -2.02493663
H        2.06914307      -1.08982855       0.40251053
H        0.18118841      -0.96396651       0.81188794
10
Frame=2 idx=007195 GeodesicLength=0.26548339455462167 rxn_smarts="[N:1](=[C:2](\[O:3][C:4](=[O:5])[H:9])[C:6](=[O:7])[H:10])\[H:8]>>[C-:6]#[O+:7].[C:4](=[O:5])([H:9])[H:10].[N:1](=[C:2]=[O:3])[H:8]"
N       -1.34543370       1.12189258      -1.38830865
C       -0.42622668       0.44030914      -0.85303027
O        0.82211426       0.43105331      -0.76560404
C        1.35186331      -0.44729821       0.95601517
O        1.55069743       0.31969488       1.83183793
C       -1.13848141      -0.57488282       0.23289427
O       -2.08118605      -1.13511380       0.53820242
H       -0.96333204       1.91325343      -1.90297036
H        2.07577972      -1.12540918       0.48370262
H        0.15420517      -0.94349934       0.86726092
10
Frame=3 idx=007195 GeodesicLength=0.396513950817952 rxn_smarts="[N:1](=[C:2](\[O:3][C:4](=[O:5])[H:9])[C:6](=[O:7])[H:10])\[H:8]>>[C-:6]#[O+:7].[C:4](=[O:5])([H:9])[H:10].[N:1](=[C:2]=[O:3])[H:8]"
N       -1.32396600       1.16131016      -1.34157183
C       -0.43018324       0.38670762      -0.90506131
O        0.82025784       0.32018081      -0.86575141
C        1.35262001      -0.41737657       0.94796114
O        1.56060613       0.42967384       1.74570978
C       -1.16667537      -0.59857276       0.23960614
O       -2.09526647      -1.21144778       0.48431017
H       -0.91778939       1.98748506      -1.77691317
H        2.07661862      -1.14321229       0.55284072
H        0.12377787      -0.91474810       0.91886976
10
Frame=4 idx=007195 GeodesicLength=0.5338977668304401 rxn_smarts="[N:1](=[C:2](\[O:3][C:4](=[O:5])[H:9])[C:6](=[O:7])[H:10])\[H:8]>>[C-:6]#[O+:7].[C:4](=[O:5])([H:9])[H:10].[N:1](=[C:2]=[O:3])[H:8]"
N       -1.29529006       1.19600639      -1.29426678
C       -0.43877877       0.33913583      -0.95335533
O        0.81027490       0.21841902      -0.95398501
C        1.35164471      -0.38638483       0.93451317
O        1.56599421       0.52794445       1.65438384
C       -1.19772924      -0.62581945       0.24394082
O       -2.10909546      -1.28376578       0.43795014
H       -0.85693490       2.04449165      -1.64871181
H        2.07828715      -1.14705065       0.61568332
H        0.09162745      -0.88297663       0.96384765
10
Frame=5 idx=007195 GeodesicLength=0.6732487660422701 rxn_smarts="[N:1](=[C:2](\[O:3][C:4](=[O:5])[H:9])[C:6](=[O:7])[H:10])\[H:8]>>[C-:6]#[O+:7].[C:4](=[O:5])([H:9])[H:10].[N:1](=[C:2]=[O:3])[H:8]"
N       -1.26249372       1.22455947      -1.24975188
C       -0.44986943       0.30023765      -0.99643611
O        0.79516660       0.13049768      -1.03003599
C        1.34956065      -0.35671745       0.91800448
O        1.56993482       0.61166493       1.56362833
C       -1.23015105      -0.65209330       0.24873162
O       -2.12020104      -1.35265924       0.39592465
H       -0.78881947       2.08385785      -1.52485485
H        2.07913811      -1.14151621       0.67065935
H        0.05773453      -0.84783137       1.00413040
10
Frame=6 idx=007195 GeodesicLength=0.8128098253437445 rxn_smarts="[N:1](=[C:2](\[O:3][C:4](=[O:5])[H:9])[C:6](=[O:7])[H:10])\[H:8]>>[C-:6]#[O+:7].[C:4](=[O:5])([H:9])[H:10].[N:1](=[C:2]=[O:3])[H:8]"
N       -1.22770940       1.24855772      -1.20705469
C       -0.46218937       0.27006727      -1.03463326
O        0.77689815       0.05612332      -1.09660641
C        1.34678151      -0.32942144       0.90004085
O        1.57372584       0.68165701       1.47618798
C       -1.26295872      -0.67639839       0.25464132
O       -2.12670520      -1.41873050       0.35640821
H       -0.71859621       2.10792409      -1.40942617
H        2.07865006      -1.13043524       0.71906394
H        0.02210333      -0.80934384       1.04137821
10
Frame=7 idx=007195 GeodesicLength=0.9538858711431292 rxn_smarts="[N:1](=[C:2](\[O:3][C:4](=[O:5])[H:9])[C:6](=[O:7])[H:10])\[H:8]>>[C-:6]#[O+:7].[C:4](=[O:5])([H:9])[H:10].[N:1](=[C:2]=[O:3])[H:8]"
N       -1.19229090       1.26866465      -1.16686075
C       -0.47472338       0.24717981      -1.06966414
O        0.75738236      -0.00660772      -1.15663386
C        1.34401781      -0.30465119       0.88129417
O        1.57798407       0.74040606       1.39274619
C       -1.29609637      -0.69945009       0.26110264
O       -2.12957764      -1.48202334       0.31989160
H       -0.64914708       2.12072581      -1.30122831
H        2.07760271      -1.11630733       0.76349784
H       -0.01515157      -0.76793665       1.07585463
10
Frame=8 idx=007195 GeodesicLength=1.0957901320999932 rxn_smarts="[N:1](=[C:2](\[O:3][C:4](=[O:5])[H:9])[C:6](=[O:7])[H:10])\[H:8]>>[C-:6]#[O+:7].[C:4](=[O:5])([H:9])[H:10].[N:1](=[C:2]=[O:3])[H:8]"
N       -1.15707198       1.28566990      -1.12855096
C       -0.48710186       0.23075433      -1.10221385
O        0.73728219      -0.05903642      -1.21213471
C        1.34145104      -0.28268046       0.86231412
O        1.58331110       0.78918695       1.31383962
C       -1.32920574      -0.72131399       0.26827901
O       -2.12811266      -1.54295349       0.28584922
H       -0.58217049       2.12456171      -1.20081837
H        2.07570352      -1.10077111       0.80520225
H       -0.05408512      -0.72341742       1.10823368
10
Frame=9 idx=007195 GeodesicLength=1.238092056598938 rxn_smarts="[N:1](=[C:2](\[O:3][C:4](=[O:5])[H:9])[C:6](=[O:7])[H:10])\[H:8]>>[C-:6]#[O+:7].[C:4](=[O:5])([H:9])[H:10].[N:1](=[C:2]=[O:3])[H:8]"
N       -1.12250296       1.30009459      -1.09153940
C       -0.49922020       0.21998881      -1.13285417
O        0.71682934      -0.10245229      -1.26475089
C        1.33912934      -0.26363785       0.84338500
O        1.58986905       0.82918219       1.23953585
C       -1.36200376      -0.74218245       0.27635795
O       -2.12168487      -1.60171335       0.25399808
H       -0.51840297       2.12136607      -1.10820810
H        2.07273175      -1.08482254       0.84519895
H       -0.09474471      -0.67582318       1.13887672
10
Frame=10 idx=007195 GeodesicLength=1.3808578870458437 rxn_smarts="[N:1](=[C:2](\[O:3][C:4](=[O:5])[H:9])[C:6](=[O:7])[H:10])\[H:8]>>[C-:6]#[O+:7].[C:4](=[O:5])([H:9])[H:10].[N:1](=[C:2]=[O:3])[H:8]"
N       -1.08906378       1.31216302      -1.05627052
C       -0.51089194       0.21408152      -1.16224239
O        0.69647013      -0.13783611      -1.31569355
C        1.33736136      -0.24759036       0.82458752
O        1.59771824       0.86144054       1.16985770
C       -1.39443209      -0.76234040       0.28537463
O       -2.11081744      -1.65812034       0.22471959
H       -0.45840994       2.11284335      -1.02244469
H        2.06895235      -1.06896820       0.88454808
H       -0.13688690      -0.62567302       1.16756362
10
Frame=11 idx=007195 GeodesicLength=1.523877881652063 rxn_smarts="[N:1](=[C:2](\[O:3][C:4](=[O:5])[H:9])[C:6](=[O:7])[H:10])\[H:8]>>[C-:6]#[O+:7].[C:4](=[O:5])([H:9])[H:10].[N:1](=[C:2]=[O:3])[H:8]"
N       -1.05689783       1.32216058      -1.02260527
C       -0.52211958       0.21241670      -1.19073947
O        0.67624537      -0.16611106      -1.36593301
C        1.33628103      -0.23455151       0.80592227
O        1.60655460       0.88687211       1.10467362
C       -1.42637031      -0.78199152       0.29553227
O       -2.09569409      -1.71194425       0.19804802
H       -0.40217586       2.10011740      -0.94304107
H        2.06448200      -1.05329373       0.92388716
H       -0.18030532      -0.57367473       1.19425548
10
Frame=12 idx=007195 GeodesicLength=1.6670027828049145 rxn_smarts="[N:1](=[C:2](\[O:3][C:4](=[O:5])[H:9])[C:6](=[O:7])[H:10])\[H:8]>>[C-:6]#[O+:7].[C:4](=[O:5])([H:9])[H:10].[N:1](=[C:2]=[O:3])[H:8]"
N       -1.02606595       1.33029982      -0.99052663
C       -0.53289965       0.21447355      -1.21861217
O        0.65618259      -0.18801284      -1.41617777
C        1.33609388      -0.22451387       0.78731796
O        1.61599452       0.90629347       1.04386610
C       -1.45776674      -0.80133508       0.30703009
O       -2.07680109      -1.76289433       0.17401892
H       -0.34953317       2.08404177      -0.86952303
H        2.05953449      -1.03765698       0.96366139
H       -0.22473890      -0.52069551       1.21894515
10
Frame=13 idx=007195 GeodesicLength=1.810139096020536 rxn_smarts="[N:1](=[C:2](\[O:3][C:4](=[O:5])[H:9])[C:6](=[O:7])[H:10])\[H:8]>>[C-:6]#[O+:7].[C:4](=[O:5])([H:9])[H:10].[N:1](=[C:2]=[O:3])[H:8]"
N       -0.99649433       1.33674751      -0.95989250
C       -0.54325464       0.21982623      -1.24604927
O        0.63621943      -0.20418754      -1.46698286
C        1.33698210      -0.21743839       0.76864581
O        1.62567619       0.92046702       0.98716699
C       -1.48857636      -0.82060974       0.32005778
O       -2.05456245      -1.81078757       0.15251265
H       -0.30012724       2.06522721      -0.80142948
H        2.05417497      -1.02182729       1.00418376
H       -0.27003768      -0.46741744       1.24178712
10
Frame=14 idx=007195 GeodesicLength=1.9532163684136428 rxn_smarts="[N:1](=[C:2](\[O:3][C:4](=[O:5])[H:9])[C:6](=[O:7])[H:10])\[H:8]>>[C-:6]#[O+:7].[C:4](=[O:5])([H:9])[H:10].[N:1](=[C:2]=[O:3])[H:8]"
N       -0.96804848       1.34159508      -0.93055863
C       -0.55318360       0.22811981      -1.27319087
O        0.61630014      -0.21514192      -1.51875537
C        1.33914760      -0.21328387       0.74975687
O        1.63526398       0.93007041       0.93431053
C       -1.51874033      -0.84008266       0.33478607
O       -2.02946403      -1.85547111       0.13336904
H       -0.25355354       2.04410481      -0.73835297
H        2.04840372      -1.00551037       1.04561318
H       -0.31612546      -0.41440020       1.26302215
10
Frame=15 idx=007195 GeodesicLength=2.09617779893454 rxn_smarts="[N:1](=[C:2](\[O:3][C:4](=[O:5])[H:9])[C:6](=[O:7])[H:10])\[H:8]>>[C-:6]#[O+:7].[C:4](=[O:5])([H:9])[H:10].[N:1](=[C:2]=[O:3])[H:8]"
N       -0.94056840       1.34486017      -0.90240951
C       -0.56264926       0.23905055      -1.30014335
O        0.59640263      -0.22126430      -1.57177690
C        1.34280599      -0.21200460       0.73051199
O        1.64450934       0.93569848       0.88504094
C       -1.54817127      -0.86003864       0.35138383
O       -2.00198407      -1.89685241       0.11639293
H       -0.20942391       2.02096321      -0.67990191
H        2.04210565      -0.98842689       1.08794877
H       -0.36302669      -0.36198556       1.28295321
10
Frame=16 idx=007195 GeodesicLength=2.238971730726274 rxn_smarts="[N:1](=[C:2](\[O:3][C:4](=[O:5])[H:9])[C:6](=[O:7])[H:10])\[H:8]>>[C-:6]#[O+:7].[C:4](=[O:5])([H:9])[H:10].[N:1](=[C:2]=[O:3])[H:8]"
N       -0.91388881       1.34650981      -0.87536959
C       -0.57158222       0.25235735      -1.32698348
O        0.57654741      -0.22283506      -1.62621260
C        1.34816384      -0.21355564       0.71081267
O        1.65324540       0.93785447       0.83915728
C       -1.57676753      -0.88075472       0.37004206
O       -1.97248420      -1.93492185       0.10139313
H       -0.16738323       1.99598802      -0.62573221
H        2.03504881      -0.97038011       1.13098529
H       -0.41089948      -0.31026225       1.30190745
