14
Frame=0 idx=005958 GeodesicLength=0.0 rxn_smarts="[O:1]([C:2]([C:3]([O:4][H:11])([C:5]([O:6][H:14])([H:12])[H:13])[H:10])([H:8])[H:9])[H:7]>>[C:3](=[O:4])([C:5]([O:6][H:14])([H:12])[H:13])[H:10].[H:7][H:11].[O:1]=[C:2]([H:8])[H:9]"
O        1.91041956       1.18635328       0.20281895
C        1.49236390       0.13288732      -0.34276033
C       -0.60594675       0.24128345      -0.54975232
O       -0.97087137       1.19572312       0.18985407
C       -0.95268614      -1.16981424      -0.10223286
O       -0.81880524      -1.33742728       1.27895040
H        0.93118296       1.93604880       0.74756352
H        1.58884052       0.04348213      -1.42829475
H        1.44748868      -0.78057846       0.25694141
H       -0.57956725       0.42276124      -1.63094290
H        0.04612612       1.94427568       0.71106471
H       -1.98607412      -1.35741249      -0.43265908
H       -0.31719724      -1.90568707      -0.59871613
H       -1.18527363      -0.55189544       1.69816530
14
Frame=1 idx=005958 GeodesicLength=0.09922356739110315 rxn_smarts="[O:1]([C:2]([C:3]([O:4][H:11])([C:5]([O:6][H:14])([H:12])[H:13])[H:10])([H:8])[H:9])[H:7]>>[C:3](=[O:4])([C:5]([O:6][H:14])([H:12])[H:13])[H:10].[H:7][H:11].[O:1]=[C:2]([H:8])[H:9]"
O        1.90135810       1.22916144       0.12930463
C        1.49134232       0.13293772      -0.33852062
C       -0.60785999       0.24256221      -0.54880914
O       -0.97942854       1.19407126       0.19618873
C       -0.95967215      -1.16844800      -0.10806597
O       -0.82126301      -1.34280216       1.27202327
H        0.93315027       1.92702392       0.79594445
H        1.64358003      -0.01474308      -1.41238446
H        1.45574997      -0.77366773       0.27197425
H       -0.59673335       0.42646567      -1.63027763
H        0.03323748       1.95402979       0.72381243
H       -1.99473044      -1.35190375      -0.43529046
H       -0.32793063      -1.90255777      -0.61207993
H       -1.17080006      -0.55212951       1.69618044
14
Frame=2 idx=005958 GeodesicLength=0.1983690008503382 rxn_smarts="[O:1]([C:2]([C:3]([O:4][H:11])([C:5]([O:6][H:14])([H:12])[H:13])[H:10])([H:8])[H:9])[H:7]>>[C:3](=[O:4])([C:5]([O:6][H:14])([H:12])[H:13])[H:10].[H:7][H:11].[O:1]=[C:2]([H:8])[H:9]"
O        1.88658886       1.26735521       0.05740684
C        1.49053619       0.13291280      -0.33278823
C       -0.61044307       0.24415379      -0.54654976
O       -0.98738838       1.19166923       0.20583908
C       -0.96715294      -1.16733887      -0.11452282
O       -0.82410840      -1.35049730       1.26413984
H        0.93898420       1.92728873       0.82610083
H        1.70259767      -0.07031982      -1.38850695
H        1.46315293      -0.76782495       0.28685667
H       -0.61517775       0.43218291      -1.62777805
H        0.02201958       1.96087723       0.74140102
H       -2.00391997      -1.34617483      -0.43858830
H       -0.33909512      -1.89864091      -0.62733300
H       -1.15659377      -0.55564323       1.69432282
14
Frame=3 idx=005958 GeodesicLength=0.29748561318220473 rxn_smarts="[O:1]([C:2]([C:3]([O:4][H:11])([C:5]([O:6][H:14])([H:12])[H:13])[H:10])([H:8])[H:9])[H:7]>>[C:3](=[O:4])([C:5]([O:6][H:14])([H:12])[H:13])[H:10].[H:7][H:11].[O:1]=[C:2]([H:8])[H:9]"
O        1.86785300       1.30061391      -0.01434559
C        1.48967149       0.13273259      -0.32616137
C       -0.61381707       0.24591181      -0.54307840
O       -0.99476744       1.18833556       0.21871114
C       -0.97512201      -1.16661700      -0.12162070
O       -0.82752248      -1.36054448       1.25527526
H        0.94880803       1.93608499       0.84279838
H        1.76545803      -0.12298416      -1.35679909
H        1.46954034      -0.76254992       0.30198632
H       -0.63555849       0.43970210      -1.62351448
H        0.01227174       1.96628367       0.76129283
H       -2.01355619      -1.34056685      -0.44271089
H       -0.35051796      -1.89400349      -0.64432254
H       -1.14274099      -0.56239873       1.69248911
14
Frame=4 idx=005958 GeodesicLength=0.39646063078244226 rxn_smarts="[O:1]([C:2]([C:3]([O:4][H:11])([C:5]([O:6][H:14])([H:12])[H:13])[H:10])([H:8])[H:9])[H:7]>>[C:3](=[O:4])([C:5]([O:6][H:14])([H:12])[H:13])[H:10].[H:7][H:11].[O:1]=[C:2]([H:8])[H:9]"
O        1.84594888       1.32795414      -0.08415440
C        1.48850352       0.13221423      -0.31955490
C       -0.61808769       0.24756091      -0.53921039
O       -1.00187201       1.18437036       0.23311287
C       -0.98369766      -1.16615736      -0.12889381
O       -0.83080818      -1.37171174       1.24592415
H        0.96110579       1.94950297       0.85174206
H        1.83261537      -0.16991449      -1.31808115
H        1.47518514      -0.75886643       0.31536065
H       -0.65806655       0.44786267      -1.61838276
H        0.00353747       1.97188192       0.78019891
H       -2.02394743      -1.33513672      -0.44644294
H       -0.36260131      -1.88887046      -0.66237074
H       -1.12781534      -0.57069002       1.69075245
14
Frame=5 idx=005958 GeodesicLength=0.4954315808969864 rxn_smarts="[O:1]([C:2]([C:3]([O:4][H:11])([C:5]([O:6][H:14])([H:12])[H:13])[H:10])([H:8])[H:9])[H:7]>>[C:3](=[O:4])([C:5]([O:6][H:14])([H:12])[H:13])[H:10].[H:7][H:11].[O:1]=[C:2]([H:8])[H:9]"
O        1.82119858       1.35068384      -0.15662742
C        1.48725162       0.13151091      -0.31263698
C       -0.62332043       0.24940769      -0.53417092
O       -1.00793781       1.17935997       0.25098701
C       -0.99258946      -1.16608780      -0.13698149
O       -0.83497044      -1.38535422       1.23535310
H        0.97706537       1.96870403       0.85141574
H        1.90225461      -0.21390549      -1.27095202
H        1.47956660      -0.75423489       0.33063273
H       -0.68336465       0.45803097      -1.61129229
H       -0.00283827       1.97714296       0.79915109
H       -2.03445469      -1.33009620      -0.45153316
H       -0.37445914      -1.88278759      -0.68211192
H       -1.11340188      -0.58237416       1.68876655
14
Frame=6 idx=005958 GeodesicLength=0.5945418998918846 rxn_smarts="[O:1]([C:2]([C:3]([O:4][H:11])([C:5]([O:6][H:14])([H:12])[H:13])[H:10])([H:8])[H:9])[H:7]>>[C:3](=[O:4])([C:5]([O:6][H:14])([H:12])[H:13])[H:10].[H:7][H:11].[O:1]=[C:2]([H:8])[H:9]"
O        1.79388679       1.36759295      -0.22877037
C        1.48577786       0.13019897      -0.30650840
C       -0.62951801       0.25110052      -0.52892583
O       -1.01330865       1.17371359       0.27022454
C       -1.00209464      -1.16623055      -0.14523273
O       -0.83917588      -1.39981817       1.22429195
H        0.99518155       1.99025343       0.84554107
H        1.97598313      -0.25093049      -1.21632131
H        1.48310548      -0.75049657       0.34477630
H       -0.71129082       0.46876232      -1.60330108
H       -0.00756087       1.98264401       0.81652138
H       -2.04569317      -1.32525164      -0.45627401
H       -0.38688879      -1.87614086      -0.70265975
H       -1.09840394      -0.59539750       1.68663825
14
Frame=7 idx=005958 GeodesicLength=0.6936617827525003 rxn_smarts="[O:1]([C:2]([C:3]([O:4][H:11])([C:5]([O:6][H:14])([H:12])[H:13])[H:10])([H:8])[H:9])[H:7]>>[C:3](=[O:4])([C:5]([O:6][H:14])([H:12])[H:13])[H:10].[H:7][H:11].[O:1]=[C:2]([H:8])[H:9]"
O        1.76467195       1.37861571      -0.30113253
C        1.48407266       0.12810021      -0.30129833
C       -0.63672149       0.25266135      -0.52330299
O       -1.01762032       1.16727533       0.29129263
C       -1.01220248      -1.16664472      -0.15379271
O       -0.84365515      -1.41546241       1.21254012
H        1.01562093       2.01422002       0.83363836
H        2.05293088      -0.28057289      -1.15354463
H        1.48567831      -0.74726844       0.35843920
H       -0.74206735       0.48036222      -1.59403454
H       -0.01020935       1.98852171       0.83211394
H       -2.05758156      -1.32068532      -0.46102949
H       -0.39980859      -1.86888504      -0.72414743
H       -1.08310844      -0.61023771       1.68425841
14
Frame=8 idx=005958 GeodesicLength=0.7924995497366871 rxn_smarts="[O:1]([C:2]([C:3]([O:4][H:11])([C:5]([O:6][H:14])([H:12])[H:13])[H:10])([H:8])[H:9])[H:7]>>[C:3](=[O:4])([C:5]([O:6][H:14])([H:12])[H:13])[H:10].[H:7][H:11].[O:1]=[C:2]([H:8])[H:9]"
O        1.73404184       1.38342634      -0.37158451
C        1.48212538       0.12467519      -0.29806211
C       -0.64483952       0.25382338      -0.51810477
O       -1.02110507       1.16046996       0.31237017
C       -1.02314052      -1.16718454      -0.16213686
O       -0.84794672      -1.43089818       1.20074828
H        1.03761556       2.03750212       0.81872685
H        2.13355921      -0.29949227      -1.08318658
H        1.48777013      -0.74606307       0.36918440
H       -0.77527873       0.49166178      -1.58437733
H       -0.01149123       1.99496108       0.84509368
H       -2.07053101      -1.31624091      -0.46461651
H       -0.41387047      -1.86149960      -0.74568913
H       -1.06690885      -0.62514128       1.68163442
14
Frame=9 idx=005958 GeodesicLength=0.8911094396393059 rxn_smarts="[O:1]([C:2]([C:3]([O:4][H:11])([C:5]([O:6][H:14])([H:12])[H:13])[H:10])([H:8])[H:9])[H:7]>>[C:3](=[O:4])([C:5]([O:6][H:14])([H:12])[H:13])[H:10].[H:7][H:11].[O:1]=[C:2]([H:8])[H:9]"
O        1.70235815       1.38226999      -0.44437145
C        1.48002026       0.12024134      -0.29532637
C       -0.65395897       0.25498344      -0.51201769
O       -1.02254706       1.15237168       0.33662411
C       -1.03458982      -1.16808591      -0.17134453
O       -0.85281612      -1.44870085       1.18746304
H        1.06257235       2.06410642       0.79537128
H        2.21433449      -0.31068278      -1.00216436
H        1.48860483      -0.74433422       0.38144939
H       -0.81162617       0.50480012      -1.57238119
H       -0.00963830       2.00166384       0.85641151
H       -2.08393912      -1.31204244      -0.46914435
H       -0.42830385      -1.85319094      -0.76900527
H       -1.05047067      -0.64339970       1.67843589
14
Frame=10 idx=005958 GeodesicLength=0.989460412376661 rxn_smarts="[O:1]([C:2]([C:3]([O:4][H:11])([C:5]([O:6][H:14])([H:12])[H:13])[H:10])([H:8])[H:9])[H:7]>>[C:3](=[O:4])([C:5]([O:6][H:14])([H:12])[H:13])[H:10].[H:7][H:11].[O:1]=[C:2]([H:8])[H:9]"
O        1.66963205       1.37488457      -0.51545660
C        1.47794505       0.11371808      -0.29519936
C       -0.66376062       0.25556228      -0.50671024
O       -1.02267596       1.14398435       0.36012133
C       -1.04705803      -1.16905854      -0.18021591
O       -0.85745977      -1.46580383       1.17427929
H        1.08941427       2.08822486       0.76977438
H        2.29707824      -0.30746051      -0.91181835
H        1.48939763      -0.74581475       0.38959811
H       -0.84992922       0.51721231      -1.56013471
H       -0.00621144       2.00845193       0.86519673
H       -2.09868666      -1.30764144      -0.47211748
H       -0.44448138      -1.84508720      -0.79210683
H       -1.03320415      -0.66117210       1.67478965
14
Frame=11 idx=005958 GeodesicLength=1.0872435528675652 rxn_smarts="[O:1]([C:2]([C:3]([O:4][H:11])([C:5]([O:6][H:14])([H:12])[H:13])[H:10])([H:8])[H:9])[H:7]>>[C:3](=[O:4])([C:5]([O:6][H:14])([H:12])[H:13])[H:10].[H:7][H:11].[O:1]=[C:2]([H:8])[H:9]"
O        1.63682403       1.36094347      -0.58765824
C        1.47585314       0.10539165      -0.29618620
C       -0.67426806       0.25593147      -0.50106939
O       -1.02030968       1.13444414       0.38556814
C       -1.06022614      -1.17028921      -0.18974740
O       -0.86213396      -1.48461212       1.15973023
H        1.11902227       2.11338445       0.73696515
H        2.37683092      -0.29199859      -0.80904518
H        1.48950523      -0.74856783       0.39726419
H       -0.89055416       0.53081128      -1.54589310
H        0.00018877       2.01556413       0.87159072
H       -2.11429773      -1.30313591      -0.47507653
H       -0.46190247      -1.83642772      -0.81678405
H       -1.01453214      -0.68143920       1.67034165
14
Frame=12 idx=005958 GeodesicLength=1.184436432959593 rxn_smarts="[O:1]([C:2]([C:3]([O:4][H:11])([C:5]([O:6][H:14])([H:12])[H:13])[H:10])([H:8])[H:9])[H:7]>>[C:3](=[O:4])([C:5]([O:6][H:14])([H:12])[H:13])[H:10].[H:7][H:11].[O:1]=[C:2]([H:8])[H:9]"
O        1.60393238       1.34070809      -0.65795389
C        1.47437203       0.09426125      -0.29929553
C       -0.68479468       0.25559615      -0.49636677
O       -1.01597742       1.12461703       0.40970702
C       -1.07426225      -1.17154803      -0.19894847
O       -0.86620236      -1.50256449       1.14523572
H        1.15114713       2.13523825       0.70215380
H        2.45211781      -0.25838940      -0.69520754
H        1.49067779      -0.75688429       0.39933909
H       -0.93185610       0.54350813      -1.53140957
H        0.00825868       2.02286578       0.87513617
H       -2.13114756      -1.29804960      -0.47627388
H       -0.48146163      -1.82827298      -0.84129388
H       -0.99480381      -0.70108590       1.66517771
14
Frame=13 idx=005958 GeodesicLength=1.2806183088942926 rxn_smarts="[O:1]([C:2]([C:3]([O:4][H:11])([C:5]([O:6][H:14])([H:12])[H:13])[H:10])([H:8])[H:9])[H:7]>>[C:3](=[O:4])([C:5]([O:6][H:14])([H:12])[H:13])[H:10].[H:7][H:11].[O:1]=[C:2]([H:8])[H:9]"
O        1.57272362       1.31374183      -0.72744389
C        1.47336267       0.08081887      -0.30246523
C       -0.69517562       0.25499730      -0.49175306
O       -1.00884538       1.11387976       0.43452020
C       -1.08868816      -1.17288156      -0.20862712
O       -0.86940356      -1.52165567       1.12947163
H        1.18578273       2.15708535       0.66141701
H        2.51565388      -0.20955587      -0.56865467
H        1.49270607      -0.76986669       0.39840344
H       -0.97344128       0.55696017      -1.51540830
H        0.01842521       2.03117014       0.87555520
H       -2.14868666      -1.29241687      -0.47664918
H       -0.50266384      -1.81982682      -0.86725447
H       -0.97174967      -0.72244993       1.65888845
14
Frame=14 idx=005958 GeodesicLength=1.376343547319398 rxn_smarts="[O:1]([C:2]([C:3]([O:4][H:11])([C:5]([O:6][H:14])([H:12])[H:13])[H:10])([H:8])[H:9])[H:7]>>[C:3](=[O:4])([C:5]([O:6][H:14])([H:12])[H:13])[H:10].[H:7][H:11].[O:1]=[C:2]([H:8])[H:9]"
O        1.54317893       1.28070041      -0.79290615
C        1.47354659       0.06457792      -0.30473027
C       -0.70442547       0.25385341      -0.48819812
O       -0.99978707       1.10324364       0.45710209
C       -1.10320401      -1.17394379      -0.21783310
O       -0.87030359      -1.53925011       1.11377763
H        1.22267092       2.17590538       0.62009687
H        2.56318793      -0.14191818      -0.43211339
H        1.49886344      -0.79369014       0.38830238
H       -1.01325713       0.56933331      -1.49956375
H        0.02870980       2.04129102       0.87219201
H       -2.16673850      -1.28574482      -0.47455299
H       -0.52590095      -1.81177338      -0.89314827
H       -0.94654089      -0.74258466       1.65157505
14
Frame=15 idx=005958 GeodesicLength=1.4714937392499499 rxn_smarts="[O:1]([C:2]([C:3]([O:4][H:11])([C:5]([O:6][H:14])([H:12])[H:13])[H:10])([H:8])[H:9])[H:7]>>[C:3](=[O:4])([C:5]([O:6][H:14])([H:12])[H:13])[H:10].[H:7][H:11].[O:1]=[C:2]([H:8])[H:9]"
O        1.51855656       1.24201495      -0.85297935
C        1.47372213       0.04697337      -0.30288211
C       -0.71272121       0.25297290      -0.48535820
O       -0.98944139       1.09266369       0.47843730
C       -1.11716017      -1.17445911      -0.22714785
O       -0.86779816      -1.55670104       1.09696858
H        1.26003368       2.19551844       0.57629231
H        2.58630427      -0.06451414      -0.28664394
H        1.50941822      -0.82755052       0.37046529
H       -1.05027696       0.58206895      -1.48376349
H        0.03710945       2.05499897       0.86450847
H       -2.18466159      -1.27818141      -0.47005863
H       -0.55062797      -1.80303379      -0.92035290
H       -0.91245686      -0.76277126       1.64251452
14
Frame=16 idx=005958 GeodesicLength=1.5679298736810439 rxn_smarts="[O:1]([C:2]([C:3]([O:4][H:11])([C:5]([O:6][H:14])([H:12])[H:13])[H:10])([H:8])[H:9])[H:7]>>[C:3](=[O:4])([C:5]([O:6][H:14])([H:12])[H:13])[H:10].[H:7][H:11].[O:1]=[C:2]([H:8])[H:9]"
O        1.49812584       1.19832228      -0.90389092
C        1.47288116       0.02777372      -0.29438695
C       -0.71984884       0.25265098      -0.48405330
O       -0.97980236       1.08374421       0.49605520
C       -1.12955265      -1.17391395      -0.23590530
O       -0.85859307      -1.57081596       1.07975375
H        1.29741478       2.21299429       0.53690401
H        2.58206069       0.01820502      -0.14119248
H        1.52992616      -0.87297170       0.34262284
H       -1.08313145       0.59367361      -1.46980976
H        0.04066063       2.07351656       0.85211874
H       -2.20128614      -1.26995931      -0.46158473
H       -0.57632382      -1.79346462      -0.94793341
H       -0.87253092      -0.77975514       1.63130231
