12
Frame=0 idx=002007 GeodesicLength=0.0 rxn_smarts="[C:1]([C:2]#[C:3][C:4]([C:5](=[O:6])[H:12])([H:10])[H:11])([H:7])([H:8])[H:9]>>[C:1]([C:2]1=[C:5]([H:12])[C:4]([H:10])([H:11])[C:3]1=[O:6])([H:7])([H:8])[H:9]"
C        1.77330125      -0.43683769       0.10325855
C        0.64053704       0.54647289       0.16577525
C       -0.55709633       0.11141343       0.78568420
C       -1.68821119       0.88643804       0.09120244
C       -0.76722505       0.01493817      -0.66264960
O       -0.98299179      -1.15243005       0.54024137
H        2.43584213      -0.20528269       0.94116888
H        2.36554513      -0.28326226      -0.79970821
H        1.49017695      -1.49220301       0.18259858
H       -1.54053113       1.95091512      -0.03081664
H       -2.68950253       0.51739132       0.26798046
H       -0.47984449      -0.45755330      -1.58473532
12
Frame=1 idx=002007 GeodesicLength=0.12857240944898693 rxn_smarts="[C:1]([C:2]#[C:3][C:4]([C:5](=[O:6])[H:12])([H:10])[H:11])([H:7])([H:8])[H:9]>>[C:1]([C:2]1=[C:5]([H:12])[C:4]([H:10])([H:11])[C:3]1=[O:6])([H:7])([H:8])[H:9]"
C        1.78676700      -0.43495580       0.10825816
C        0.63743443       0.52599670       0.16526149
C       -0.55750594       0.11120966       0.79450767
C       -1.68288238       0.88818899       0.09476318
C       -0.78737634      -0.00057620      -0.67452711
O       -1.01198186      -1.16857228       0.54064748
H        2.44339569      -0.19501698       0.94833834
H        2.37717413      -0.27341574      -0.79449089
H        1.51931945      -1.49414083       0.18726328
H       -1.53499693       1.95114674      -0.04209774
H       -2.68908381       0.53704677       0.28230644
H       -0.50026344      -0.44691102      -1.61023032
12
Frame=2 idx=002007 GeodesicLength=0.25714820735373234 rxn_smarts="[C:1]([C:2]#[C:3][C:4]([C:5](=[O:6])[H:12])([H:10])[H:11])([H:7])([H:8])[H:9]>>[C:1]([C:2]1=[C:5]([H:12])[C:4]([H:10])([H:11])[C:3]1=[O:6])([H:7])([H:8])[H:9]"
C        1.80055674      -0.43304183       0.11339117
C        0.63429550       0.50426867       0.16468325
C       -0.55776505       0.11095986       0.80362567
C       -1.67714295       0.88959802       0.09794893
C       -0.80820229      -0.01662336      -0.68642655
O       -1.04235935      -1.18477587       0.54143105
H        2.45102090      -0.18412597       0.95552654
H        2.38877958      -0.26330946      -0.78925151
H        1.54964613      -1.49599204       0.19222646
H       -1.52899688       1.95086723      -0.05352714
H       -2.68803005       0.55702922       0.29625890
H       -0.52180230      -0.43485449      -1.63588678
12
Frame=3 idx=002007 GeodesicLength=0.38572533908247275 rxn_smarts="[C:1]([C:2]#[C:3][C:4]([C:5](=[O:6])[H:12])([H:10])[H:11])([H:7])([H:8])[H:9]>>[C:1]([C:2]1=[C:5]([H:12])[C:4]([H:10])([H:11])[C:3]1=[O:6])([H:7])([H:8])[H:9]"
C        1.81468634      -0.43108503       0.11865898
C        0.63110455       0.48113813       0.16404655
C       -0.55786363       0.11063405       0.81302574
C       -1.67096416       0.89063212       0.10073490
C       -0.82974258      -0.03322136      -0.69837655
O       -1.07424466      -1.20102190       0.54258011
H        2.45869126      -0.17253998       0.96272560
H        2.40034672      -0.25290433      -0.78399408
H        1.58127229      -1.49772717       0.19751172
H       -1.52244952       1.95005074      -0.06509579
H       -2.68630105       0.57736081       0.30979123
H       -0.54453554      -0.42131607      -1.66160840
12
Frame=4 idx=002007 GeodesicLength=0.5143024731646952 rxn_smarts="[C:1]([C:2]#[C:3][C:4]([C:5](=[O:6])[H:12])([H:10])[H:11])([H:7])([H:8])[H:9]>>[C:1]([C:2]1=[C:5]([H:12])[C:4]([H:10])([H:11])[C:3]1=[O:6])([H:7])([H:8])[H:9]"
C        1.82917002      -0.42907004       0.12406234
C        0.62784158       0.45642852       0.16336262
C       -0.55779222       0.11019142       0.82269208
C       -1.66431067       0.89125878       0.10309803
C       -0.85204043      -0.05037665      -0.71041430
O       -1.10777697      -1.21728649       0.54406431
H        2.46637125      -0.16017799       0.96992516
H        2.41185206      -0.24214693      -0.77872393
H        1.61432824      -1.49930709       0.20314132
H       -1.51525516       1.94867356      -0.07678478
H       -2.68384906       0.59807161       0.32285175
H       -0.56853864      -0.40625872      -1.68727459
12
Frame=5 idx=002007 GeodesicLength=0.6428741831125436 rxn_smarts="[C:1]([C:2]#[C:3][C:4]([C:5](=[O:6])[H:12])([H:10])[H:11])([H:7])([H:8])[H:9]>>[C:1]([C:2]1=[C:5]([H:12])[C:4]([H:10])([H:11])[C:3]1=[O:6])([H:7])([H:8])[H:9]"
C        1.84401852      -0.42697530       0.12960167
C        0.62448052       0.42993023       0.16265171
C       -0.55754328       0.10957508       0.83260560
C       -1.65713826       0.89144768       0.10501913
C       -0.87514177      -0.06807682      -0.72258730
O       -1.14311914      -1.23353856       0.54582446
H        2.47401264      -0.14694193       0.97710876
H        2.42325735      -0.23096815      -0.77344819
H        1.64896423      -1.50067837       0.20913979
H       -1.50729037       1.94671518      -0.08855944
H       -2.68061563       0.61920359       0.33538717
H       -0.59388481      -0.38969263      -1.71274336
12
Frame=6 idx=002007 GeodesicLength=0.7714403375556025 rxn_smarts="[C:1]([C:2]#[C:3][C:4]([C:5](=[O:6])[H:12])([H:10])[H:11])([H:7])([H:8])[H:9]>>[C:1]([C:2]1=[C:5]([H:12])[C:4]([H:10])([H:11])[C:3]1=[O:6])([H:7])([H:8])[H:9]"
C        1.85923724      -0.42477020       0.13527499
C        0.62098686       0.40139368       0.16194156
C       -0.55711054       0.10871138       0.84274668
C       -1.64939135       0.89117220       0.10648534
C       -0.89910099      -0.08629089      -0.73495290
O       -1.18046443      -1.24973771       0.54777847
H        2.48154826      -0.13272232       0.98426102
H        2.43451000      -0.21926617      -0.76817422
H        1.68535053      -1.50177142       0.21551614
H       -1.49839892       1.94416110      -0.10036977
H       -2.67653010       0.64081487       0.34734159
H       -0.62063656      -0.37169451      -1.73784889
12
Frame=7 idx=002007 GeodesicLength=0.8999978333439412 rxn_smarts="[C:1]([C:2]#[C:3][C:4]([C:5](=[O:6])[H:12])([H:10])[H:11])([H:7])([H:8])[H:9]>>[C:1]([C:2]1=[C:5]([H:12])[C:4]([H:10])([H:11])[C:3]1=[O:6])([H:7])([H:8])[H:9]"
C        1.87482213      -0.42241353       0.14107930
C        0.61731434       0.37051449       0.16127592
C       -0.55649166       0.10749945       0.85309734
C       -1.64099848       0.89041064       0.10749342
C       -0.92397816      -0.10496094      -0.74757909
O       -1.22004459      -1.26583157       0.54980608
H        2.48888703      -0.11738293       0.99135718
H        2.44552642      -0.20691116      -0.76291329
H        1.72368835      -1.50249328       0.22227967
H       -1.48838234       1.94100245      -0.11214241
H       -2.67150290       0.66298559       0.35866360
H       -0.64884014      -0.35241921      -1.76241772
12
Frame=8 idx=002007 GeodesicLength=1.0285475646758833 rxn_smarts="[C:1]([C:2]#[C:3][C:4]([C:5](=[O:6])[H:12])([H:10])[H:11])([H:7])([H:8])[H:9]>>[C:1]([C:2]1=[C:5]([H:12])[C:4]([H:10])([H:11])[C:3]1=[O:6])([H:7])([H:8])[H:9]"
C        1.89075520      -0.41985045       0.14700878
C        0.61339986       0.33691544       0.16071699
C       -0.55568853       0.10580551       0.86364704
C       -1.63186646       0.88914472       0.10805164
C       -0.94984623      -0.12400815      -0.76053938
O       -1.26214243      -1.28175288       0.55176037
H        2.49590642      -0.10075958       0.99836490
H        2.45618295      -0.19372956      -0.75768133
H        1.76421454      -1.50272099       0.22942946
H       -1.47698264       1.93723247      -0.12378577
H       -2.66541933       0.68582437       0.36930761
H       -0.67851336      -0.33210091      -1.78628030
12
Frame=9 idx=002007 GeodesicLength=1.1570792532329486 rxn_smarts="[C:1]([C:2]#[C:3][C:4]([C:5](=[O:6])[H:12])([H:10])[H:11])([H:7])([H:8])[H:9]>>[C:1]([C:2]1=[C:5]([H:12])[C:4]([H:10])([H:11])[C:3]1=[O:6])([H:7])([H:8])[H:9]"
C        1.90699498      -0.41700624       0.15304896
C        0.60915679       0.30011798       0.16035347
C       -0.55470777       0.10346220       0.87440011
C       -1.62186960       0.88735784       0.10817844
C       -0.97679201      -0.14334636      -0.77390134
O       -1.30710562      -1.29740601       0.55348623
H        2.50242685      -0.08267518       1.00525785
H        2.46630432      -0.17945896      -0.75249299
H        1.80720700      -1.50229307       0.23690459
H       -1.46385918       1.93283575      -0.13520585
H       -2.65812633       0.70948497       0.37923153
H       -0.70962943      -0.31107292      -1.80926100
12
Frame=10 idx=002007 GeodesicLength=1.2855981380671888 rxn_smarts="[C:1]([C:2]#[C:3][C:4]([C:5](=[O:6])[H:12])([H:10])[H:11])([H:7])([H:8])[H:9]>>[C:1]([C:2]1=[C:5]([H:12])[C:4]([H:10])([H:11])[C:3]1=[O:6])([H:7])([H:8])[H:9]"
C        1.92346975      -0.41378830       0.15918886
C        0.60446868       0.25949267       0.16031978
C       -0.55356602       0.10021964       0.88537991
C       -1.61083683       0.88502247       0.10790720
C       -1.00491480      -0.16287410      -0.78773608
O       -1.35537884      -1.31267907       0.55478768
H        2.50822701      -0.06283981       1.01195145
H        2.47559611      -0.16383490      -0.74739895
H        1.85302820      -1.50098532       0.24472633
H       -1.44855422       1.92777919      -0.14627471
H       -2.64941591       0.73415769       0.38840618
H       -0.74212313      -0.28967015      -1.83125766
12
Frame=11 idx=002007 GeodesicLength=1.4141026579683864 rxn_smarts="[C:1]([C:2]#[C:3][C:4]([C:5](=[O:6])[H:12])([H:10])[H:11])([H:7])([H:8])[H:9]>>[C:1]([C:2]1=[C:5]([H:12])[C:4]([H:10])([H:11])[C:3]1=[O:6])([H:7])([H:8])[H:9]"
C        1.94005531      -0.41007088       0.16540531
C        0.59917464       0.21419681       0.16081141
C       -0.55228981       0.09574588       0.89664226
C       -1.59852514       0.88209325       0.10727829
C       -1.03432885      -0.18251174      -0.80209539
O       -1.40753477      -1.32741354       0.55548079
H        2.51298182      -0.04089852       1.01834307
H        2.48362785      -0.14647321      -0.74246589
H        1.90213087      -1.49848748       0.25286078
H       -1.43043547       1.92198468      -0.15687407
H       -2.63899380       0.76010577       0.39679665
H       -0.77586265      -0.26827100      -1.85218321
12
Frame=12 idx=002007 GeodesicLength=1.542596164317828 rxn_smarts="[C:1]([C:2]#[C:3][C:4]([C:5](=[O:6])[H:12])([H:10])[H:11])([H:7])([H:8])[H:9]>>[C:1]([C:2]1=[C:5]([H:12])[C:4]([H:10])([H:11])[C:3]1=[O:6])([H:7])([H:8])[H:9]"
C        1.95654220      -0.40568117       0.17166229
C        0.59305442       0.16307244       0.16212969
C       -0.55092220       0.08956972       0.90828922
C       -1.58457974       0.87849003       0.10633961
C       -1.06515086      -0.20220903      -0.81701138
O       -1.46433148      -1.34138953       0.55537816
H        2.51622389      -0.01635934       1.02427015
H        2.48973104      -0.12687010      -0.73780497
H        1.95510533      -1.49435052       0.26126090
H       -1.40860791       1.91529991      -0.16688052
H       -2.62643211       0.78768542       0.40434826
H       -0.81063257      -0.24725783      -1.87198141
12
Frame=13 idx=002007 GeodesicLength=1.6711001536928534 rxn_smarts="[C:1]([C:2]#[C:3][C:4]([C:5](=[O:6])[H:12])([H:10])[H:11])([H:7])([H:8])[H:9]>>[C:1]([C:2]1=[C:5]([H:12])[C:4]([H:10])([H:11])[C:3]1=[O:6])([H:7])([H:8])[H:9]"
C        1.97256419      -0.40037143       0.17790206
C        0.58580713       0.10449752       0.16474568
C       -0.54952280       0.08100603       0.92049063
C       -1.56846073       0.87407488       0.10514914
C       -1.09747180      -0.22196175      -0.83249475
O       -1.52678487      -1.35429223       0.55427760
H        2.51725085       0.01147894       1.02948560
H        2.49283574      -0.10434963      -0.73359986
H        2.01271197      -1.48789535       0.26984428
H       -1.38176733       1.90745397      -0.17615228
H       -2.61107819       0.81738331       0.41096507
H       -0.84608415      -0.22702425      -1.89061317
12
Frame=14 idx=002007 GeodesicLength=1.7996578641369168 rxn_smarts="[C:1]([C:2]#[C:3][C:4]([C:5](=[O:6])[H:12])([H:10])[H:11])([H:7])([H:8])[H:9]>>[C:1]([C:2]1=[C:5]([H:12])[C:4]([H:10])([H:11])[C:3]1=[O:6])([H:7])([H:8])[H:9]"
C        1.98747524      -0.39377163       0.18403160
C        0.57702045       0.03617692       0.16942077
C       -0.54817830       0.06901195       0.93351377
C       -1.54932193       0.86859518       0.10379010
C       -1.13129521      -0.24180585      -0.84853340
O       -1.59629137      -1.36564026       0.55189194
H        2.51498451       0.04367854       1.03351900
H        2.49119398      -0.07808761      -0.73016024
H        2.07592657      -1.47801784       0.27856493
H       -1.34795774       1.89795315      -0.18446956
H       -2.59190844       0.84984274       0.41647861
H       -0.88164777      -0.20793529      -1.90804752
12
Frame=15 idx=002007 GeodesicLength=1.9282891301615663 rxn_smarts="[C:1]([C:2]#[C:3][C:4]([C:5](=[O:6])[H:12])([H:10])[H:11])([H:7])([H:8])[H:9]>>[C:1]([C:2]1=[C:5]([H:12])[C:4]([H:10])([H:11])[C:3]1=[O:6])([H:7])([H:8])[H:9]"
C        2.00008345      -0.38535065       0.18987723
C        0.56620628      -0.04485028       0.17740142
C       -0.54695635       0.05213380       0.94776783
C       -1.52587375       0.86159501       0.10239157
C       -1.16631712      -0.26180031      -0.86506170
O       -1.67453875      -1.37462901       0.54780315
H        2.50772731       0.08165774       1.03555291
H        2.48198394      -0.04719938      -0.72798684
H        2.14571054      -1.46292843       0.28732123
H       -1.30442090       1.88591886      -0.19149412
H       -2.56733778       0.88577857       0.42059730
H       -0.91626686      -0.19032591      -1.92416999
12
Frame=16 idx=002007 GeodesicLength=2.056982887796858 rxn_smarts="[C:1]([C:2]#[C:3][C:4]([C:5](=[O:6])[H:12])([H:10])[H:11])([H:7])([H:8])[H:9]>>[C:1]([C:2]1=[C:5]([H:12])[C:4]([H:10])([H:11])[C:3]1=[O:6])([H:7])([H:8])[H:9]"
C        2.00826826      -0.37455496       0.19513593
C        0.55308461      -0.14101213       0.19058421
C       -0.54573131       0.02877605       0.96382201
C       -1.49649423       0.85229412       0.10122512
C       -1.20132680      -0.28181907      -0.88198354
O       -1.76252620      -1.38010372       0.54122184
H        2.49312681       0.12716596       1.03400636
H        2.46103686      -0.01193468      -0.72806402
H        2.22195869      -1.44010927       0.29640897
H       -1.24825726       1.87002469      -0.19655232
H       -2.53526595       0.92533126       0.42296173
H       -0.94787348      -0.17405825      -1.93876629
