15
Frame=0 idx=005002 GeodesicLength=0.0 rxn_smarts="[C:1]([C:2]12[C:3]([H:10])([H:11])[N:4]([C:5]1([H:12])[H:13])[C:6]2([H:14])[H:15])([H:7])([H:8])[H:9]>>[C:1]([C:2][C:5]([N:4]1[C:3]([H:10])([H:11])[C:6]1([H:14])[H:15])([H:12])[H:13])([H:7])([H:8])[H:9]"
C        1.82229507      -0.04688704      -0.41229395
C        0.64903604       0.40528083       0.36455960
C       -1.09074191      -0.24632693       1.27190687
N       -1.61902340       0.21743172       0.01432028
C       -0.51385960       1.15196176      -0.32600199
C       -0.78424906      -0.96525009      -0.25198129
H        1.63162281      -0.31355154      -1.47145252
H        2.33529391      -0.87838857       0.07322264
H        2.52742574       0.79320890      -0.39788263
H       -1.64089566      -1.07566298       1.71559635
H       -0.74131992       0.45468829       2.00942154
H       -0.67860973       2.14434652       0.10459004
H       -0.44455683       1.23513670      -1.42210661
H       -0.19984564      -0.94097233      -1.16702233
H       -1.25257177      -1.93501520      -0.10487594
15
Frame=1 idx=005002 GeodesicLength=0.06203798896748867 rxn_smarts="[C:1]([C:2]12[C:3]([H:10])([H:11])[N:4]([C:5]1([H:12])[H:13])[C:6]2([H:14])[H:15])([H:7])([H:8])[H:9]>>[C:1]([C:2][C:5]([N:4]1[C:3]([H:10])([H:11])[C:6]1([H:14])[H:15])([H:12])[H:13])([H:7])([H:8])[H:9]"
C        1.83435647      -0.03599105      -0.41572477
C        0.64461456       0.38412735       0.35367744
C       -1.09187690      -0.24727435       1.27450980
N       -1.61967360       0.21954523       0.01526396
C       -0.50874764       1.14513825      -0.32968097
C       -0.80000938      -0.97476611      -0.24911129
H        1.65716693      -0.28329968      -1.48106391
H        2.35257043      -0.87050458       0.05903037
H        2.52836542       0.81250041      -0.37454640
H       -1.65196834      -1.06440103       1.72810893
H       -0.74006622       0.45355604       2.01210269
H       -0.65912988       2.13883406       0.10315467
H       -0.44259144       1.22792021      -1.42579746
H       -0.22135204      -0.96730842      -1.16820861
H       -1.28165838      -1.93807635      -0.10171445
15
Frame=2 idx=005002 GeodesicLength=0.12395799926086207 rxn_smarts="[C:1]([C:2]12[C:3]([H:10])([H:11])[N:4]([C:5]1([H:12])[H:13])[C:6]2([H:14])[H:15])([H:7])([H:8])[H:9]>>[C:1]([C:2][C:5]([N:4]1[C:3]([H:10])([H:11])[C:6]1([H:14])[H:15])([H:12])[H:13])([H:7])([H:8])[H:9]"
C        1.84649649      -0.02465969      -0.41883571
C        0.64008792       0.36241771       0.34156158
C       -1.09238737      -0.24822121       1.27707108
N       -1.62036050       0.22152838       0.01637862
C       -0.50377410       1.13787053      -0.33396940
C       -0.81641840      -0.98447936      -0.24623406
H        1.68412398      -0.24992670      -1.49056874
H        2.36911080      -0.86311696       0.04406491
H        2.52923772       0.83106581      -0.34818370
H       -1.66212962      -1.05262683       1.74108933
H       -0.73756931       0.45250139       2.01437319
H       -0.63939196       2.13278336       0.10096260
H       -0.44115256       1.22004267      -1.43012781
H       -0.24438693      -0.99419859      -1.16956576
H       -1.31148617      -1.94098050      -0.09801615
15
Frame=3 idx=005002 GeodesicLength=0.18576249037685938 rxn_smarts="[C:1]([C:2]12[C:3]([H:10])([H:11])[N:4]([C:5]1([H:12])[H:13])[C:6]2([H:14])[H:15])([H:7])([H:8])[H:9]>>[C:1]([C:2][C:5]([N:4]1[C:3]([H:10])([H:11])[C:6]1([H:14])[H:15])([H:12])[H:13])([H:7])([H:8])[H:9]"
C        1.85871665      -0.01286297      -0.42156978
C        0.63544164       0.34007645       0.32809424
C       -1.09221290      -0.24916867       1.27956740
N       -1.62108231       0.22338624       0.01766509
C       -0.49894152       1.13011838      -0.33893731
C       -0.83353642      -0.99440106      -0.24334294
H        1.71258035      -0.21313386      -1.49974843
H        2.38498693      -0.85620261       0.02820077
H        2.52991379       0.84876503      -0.31859382
H       -1.67129945      -1.04029592       1.75455787
H       -0.73370062       0.45151501       2.01617588
H       -0.61936399       2.12615353       0.09791754
H       -0.44025907       1.21143688      -1.43516656
H       -0.26911065      -1.02167904      -1.17110577
H       -1.34213242      -1.94370738      -0.09371417
15
Frame=4 idx=005002 GeodesicLength=0.24745014314939717 rxn_smarts="[C:1]([C:2]12[C:3]([H:10])([H:11])[N:4]([C:5]1([H:12])[H:13])[C:6]2([H:14])[H:15])([H:7])([H:8])[H:9]>>[C:1]([C:2][C:5]([N:4]1[C:3]([H:10])([H:11])[C:6]1([H:14])[H:15])([H:12])[H:13])([H:7])([H:8])[H:9]"
C        1.87101317      -0.00056861      -0.42385803
C        0.63065971       0.31702157       0.31313437
C       -1.09127541      -0.25011922       1.28196832
N       -1.62183380       0.22512677       0.01912491
C       -0.49425398       1.12183896      -0.34466706
C       -0.85143057      -1.00454032      -0.24043472
H        1.74261512      -0.17260172      -1.50832260
H        2.40027748      -0.84971809       0.01130281
H        2.53023331       0.86542334      -0.28555618
H       -1.67937108      -1.02736080       1.76853477
H       -0.72830243       0.45058247       2.01744067
H       -0.59901141       2.11890014       0.09390804
H       -0.43993562       1.20202917      -1.44099517
H       -0.29570290      -1.04978409      -1.17284294
H       -1.37368159      -1.94622959      -0.08873718
15
Frame=5 idx=005002 GeodesicLength=0.30901614656098275 rxn_smarts="[C:1]([C:2]12[C:3]([H:10])([H:11])[N:4]([C:5]1([H:12])[H:13])[C:6]2([H:14])[H:15])([H:7])([H:8])[H:9]>>[C:1]([C:2][C:5]([N:4]1[C:3]([H:10])([H:11])[C:6]1([H:14])[H:15])([H:12])[H:13])([H:7])([H:8])[H:9]"
C        1.88337393       0.01225754      -0.42561724
C        0.62572373       0.29316345       0.29651176
C       -1.08947556      -0.25107732       1.28423345
N       -1.62260417       0.22676129       0.02076123
C       -0.48971670       1.11298680      -0.35125553
C       -0.87017604      -1.01490254      -0.23751085
H        1.77429667      -0.12799915      -1.51593301
H        2.41506856      -0.84358931      -0.00677203
H        2.52999327       0.88082613      -0.24883201
H       -1.68620222      -1.01377332       1.78303920
H       -0.72118216       0.44968297       2.01808047
H       -0.57829515       2.11097636       0.08880496
H       -0.44021186       1.19174012      -1.44770790
H       -0.32436677      -1.07854229      -1.17479389
H       -1.40622552      -1.94851074      -0.08300861
15
Frame=6 idx=005002 GeodesicLength=0.3704534610688531 rxn_smarts="[C:1]([C:2]12[C:3]([H:10])([H:11])[N:4]([C:5]1([H:12])[H:13])[C:6]2([H:14])[H:15])([H:7])([H:8])[H:9]>>[C:1]([C:2][C:5]([N:4]1[C:3]([H:10])([H:11])[C:6]1([H:14])[H:15])([H:12])[H:13])([H:7])([H:8])[H:9]"
C        1.89577651       0.02564990      -0.42674259
C        0.62061266       0.26840594       0.27802488
C       -1.08668855      -0.25204972       1.28631059
N       -1.62337693       0.22830564       0.02257861
C       -0.48533755       1.10351361      -0.35881526
C       -0.88985462      -1.02548752      -0.23457752
H        1.80767328      -0.07898019      -1.52212704
H        2.42946164      -0.83770717      -0.02616769
H        2.52894576       0.89470751      -0.20817863
H       -1.69161083      -0.99948259       1.79808732
H       -0.71210716       0.44878664       2.01798793
H       -0.55717600       2.10232990       0.08245935
H       -0.44112452       1.18048314      -1.45541426
H       -0.35533106      -1.10797455      -1.17697939
H       -1.43986264      -1.95050053      -0.07644630
15
Frame=7 idx=005002 GeodesicLength=0.43175480155773227 rxn_smarts="[C:1]([C:2]12[C:3]([H:10])([H:11])[N:4]([C:5]1([H:12])[H:13])[C:6]2([H:14])[H:15])([H:7])([H:8])[H:9]>>[C:1]([C:2][C:5]([N:4]1[C:3]([H:10])([H:11])[C:6]1([H:14])[H:15])([H:12])[H:13])([H:7])([H:8])[H:9]"
C        1.90818121       0.03964133      -0.42710598
C        0.61530231       0.24264873       0.25743226
C       -1.08275438      -0.25304598       1.28813313
N       -1.62412596       0.22978245       0.02458222
C       -0.48112841       1.09337240      -0.36748017
C       -0.91055258      -1.03628798      -0.23164757
H        1.84275955      -0.02519671      -1.52634496
H        2.44356826      -0.83192420      -0.04702094
H        2.52678217       0.90674268      -0.16333490
H       -1.69535828      -0.98443842       1.81369345
H       -0.70079226       0.44785382       2.01703102
H       -0.53561478       2.09290846       0.07469578
H       -0.44272183       1.16816967      -1.46424629
H       -0.38885440      -1.13809057      -1.17942715
H       -1.47469065      -1.95213568      -0.06895989
15
Frame=8 idx=005002 GeodesicLength=0.4929179258895171 rxn_smarts="[C:1]([C:2]12[C:3]([H:10])([H:11])[N:4]([C:5]1([H:12])[H:13])[C:6]2([H:14])[H:15])([H:7])([H:8])[H:9]>>[C:1]([C:2][C:5]([N:4]1[C:3]([H:10])([H:11])[C:6]1([H:14])[H:15])([H:12])[H:13])([H:7])([H:8])[H:9]"
C        1.92052553       0.05425762      -0.42654886
C        0.60976391       0.21578643       0.23444500
C       -1.07747094      -0.25408001       1.28961730
N       -1.62481241       0.23122499       0.02677984
C       -0.47710689       1.08252036      -0.37740712
C       -0.93235798      -1.04728530      -0.22874391
H        1.87952958       0.03367458      -1.52789732
H        2.45751763      -0.82604229      -0.06944067
H        2.52310707       0.91654276      -0.11404682
H       -1.69713622      -0.96859394       1.82986921
H       -0.68689178       0.44683083       2.01504993
H       -0.51357532       2.08266349       0.06531283
H       -0.44506452       1.15471520      -1.47436003
H       -0.42522609      -1.16888038      -1.18217641
H       -1.51080157      -1.95333435      -0.06045298
15
Frame=9 idx=005002 GeodesicLength=0.5539527407959423 rxn_smarts="[C:1]([C:2]12[C:3]([H:10])([H:11])[N:4]([C:5]1([H:12])[H:13])[C:6]2([H:14])[H:15])([H:7])([H:8])[H:9]>>[C:1]([C:2][C:5]([N:4]1[C:3]([H:10])([H:11])[C:6]1([H:14])[H:15])([H:12])[H:13])([H:7])([H:8])[H:9]"
C        1.93271923       0.06953398      -0.42487637
C        0.60396330       0.18772439       0.20869734
C       -1.07058611      -0.25516735       1.29063672
N       -1.62538219       0.23265730       0.02918874
C       -0.47329505       1.07090393      -0.38878175
C       -0.95537108      -1.05844235      -0.22588552
H        1.91791585       0.09795264      -1.52592408
H        2.47141616      -0.81977840      -0.09354157
H        2.51748527       0.92361650      -0.06003570
H       -1.69654747      -0.95190837       1.84659732
H       -0.66998526       0.44565286       2.01181145
H       -0.49102159       2.07152790       0.05406572
H       -0.44823566       1.14001837      -1.48591384
H       -0.46479136      -1.20030192      -1.18524131
H       -1.54828404      -1.95398947      -0.05079714
15
Frame=10 idx=005002 GeodesicLength=0.6148909924972611 rxn_smarts="[C:1]([C:2]12[C:3]([H:10])([H:11])[N:4]([C:5]1([H:12])[H:13])[C:6]2([H:14])[H:15])([H:7])([H:8])[H:9]>>[C:1]([C:2][C:5]([N:4]1[C:3]([H:10])([H:11])[C:6]1([H:14])[H:15])([H:12])[H:13])([H:7])([H:8])[H:9]"
C        1.94462177       0.08546098      -0.42184216
C        0.59785915       0.15836374       0.17977816
C       -1.06177763      -0.25632792       1.29105228
N       -1.62575700       0.23413861       0.03182372
C       -0.46973272       1.05849594      -0.40181941
C       -0.97966197      -1.06970150      -0.22311488
H        1.95774888       0.16787668      -1.51939326
H        2.48542820      -0.81281258      -0.11933713
H        2.50928568       0.92737736      -0.00108595
H       -1.69307986      -0.93434456       1.86386919
H       -0.64957122       0.44423748       2.00706180
H       -0.46794289       2.05946407       0.04067882
H       -0.45234251       1.12401399      -1.49912175
H       -0.50790191      -1.23227746      -1.18868263
H       -1.58717598      -1.95396484      -0.03986680
15
Frame=11 idx=005002 GeodesicLength=0.6758387424618438 rxn_smarts="[C:1]([C:2]12[C:3]([H:10])([H:11])[N:4]([C:5]1([H:12])[H:13])[C:6]2([H:14])[H:15])([H:7])([H:8])[H:9]>>[C:1]([C:2][C:5]([N:4]1[C:3]([H:10])([H:11])[C:6]1([H:14])[H:15])([H:12])[H:13])([H:7])([H:8])[H:9]"
C        1.95602526       0.10202433      -0.41714027
C        0.59140593       0.12764349       0.14718441
C       -1.05063160      -0.25758564       1.29067464
N       -1.62582234       0.23573005       0.03469779
C       -0.46646746       1.04528793      -0.41678455
C       -1.00528765      -1.08098819      -0.22047528
H        1.99873063       0.24362986      -1.50707747
H        2.49966525      -0.80476048      -0.14676917
H        2.49778975       0.92711270       0.06304985
H       -1.68607053      -0.91588965       1.88164741
H       -0.62503280       0.44249333       2.00046382
H       -0.44433759       2.04645435       0.02480923
H       -0.45753383       1.10665500      -1.51423559
H       -0.55496442      -1.26469073      -1.19254663
H       -1.62746859      -1.95311636      -0.02749818
15
Frame=12 idx=005002 GeodesicLength=0.7370329546500626 rxn_smarts="[C:1]([C:2]12[C:3]([H:10])([H:11])[N:4]([C:5]1([H:12])[H:13])[C:6]2([H:14])[H:15])([H:7])([H:8])[H:9]>>[C:1]([C:2][C:5]([N:4]1[C:3]([H:10])([H:11])[C:6]1([H:14])[H:15])([H:12])[H:13])([H:7])([H:8])[H:9]"
C        1.96663944       0.11915841      -0.41040614
C        0.58454772       0.09552498       0.11030115
C       -1.03662660      -0.25896934       1.28926230
N       -1.62541945       0.23751235       0.03783897
C       -0.46356738       1.03129368      -0.43399159
C       -1.03227084      -1.09219011      -0.21801560
H        2.04045962       0.32528460      -1.48751431
H        2.51424178      -0.79516385      -0.17565433
H        2.48202247       0.92195981       0.13258612
H       -1.67467113      -0.89654868       1.89987706
H       -0.59562715       0.44031024       1.99158424
H       -0.42022604       2.03250339       0.00604656
H       -0.46400791       1.08793358      -1.53155186
H       -0.60641147      -1.29735370      -1.19687901
H       -1.66908306      -1.95125535      -0.01348357
15
Frame=13 idx=005002 GeodesicLength=0.7989338961243547 rxn_smarts="[C:1]([C:2]12[C:3]([H:10])([H:11])[N:4]([C:5]1([H:12])[H:13])[C:6]2([H:14])[H:15])([H:7])([H:8])[H:9]>>[C:1]([C:2][C:5]([N:4]1[C:3]([H:10])([H:11])[C:6]1([H:14])[H:15])([H:12])[H:13])([H:7])([H:8])[H:9]"
C        1.97608225       0.13677596      -0.40114860
C        0.57721524       0.06209009       0.06839862
C       -1.01912567      -0.26048317       1.28648554
N       -1.62436920       0.23955088       0.04127198
C       -0.46115892       1.01655760      -0.45381304
C       -1.06058893      -1.10315438      -0.21577513
H        2.08235866       0.41277191      -1.45892819
H        2.52915088      -0.78346734      -0.20576445
H        2.46108006       0.91079571       0.20773088
H       -1.65782527      -0.87633986       1.91841409
H       -0.56048702       0.43760616       1.97985211
H       -0.39573579       2.01764488      -0.01609826
H       -0.47209528       1.06786020      -1.55139384
H       -0.66271119      -1.33001694      -1.20166959
H       -1.71178981      -1.94819173       0.00243788
15
Frame=14 idx=005002 GeodesicLength=0.8623472639020051 rxn_smarts="[C:1]([C:2]12[C:3]([H:10])([H:11])[N:4]([C:5]1([H:12])[H:13])[C:6]2([H:14])[H:15])([H:7])([H:8])[H:9]>>[C:1]([C:2][C:5]([N:4]1[C:3]([H:10])([H:11])[C:6]1([H:14])[H:15])([H:12])[H:13])([H:7])([H:8])[H:9]"
C        1.98376375       0.15460976      -0.38884938
C        0.56935457       0.02749127       0.02070521
C       -0.99732934      -0.26217402       1.28196366
N       -1.62236153       0.24199877       0.04503208
C       -0.45936069       1.00125776      -0.47662701
C       -1.09004760      -1.11366229      -0.21383391
H        2.12348050       0.50542521      -1.41940752
H        2.54445172      -0.76909830      -0.23623985
H        2.43334556       0.89250227       0.28824105
H       -1.63419380      -0.85540230       1.93708403
H       -0.51864167       0.43424105       1.96462989
H       -0.37099186       2.00205953      -0.04211357
H       -0.48212959       1.04669105      -1.57412855
H       -0.72420357      -1.36225350      -1.20696723
H       -1.75513644      -1.94368625       0.02051110
15
Frame=15 idx=005002 GeodesicLength=0.9287072019420956 rxn_smarts="[C:1]([C:2]12[C:3]([H:10])([H:11])[N:4]([C:5]1([H:12])[H:13])[C:6]2([H:14])[H:15])([H:7])([H:8])[H:9]>>[C:1]([C:2][C:5]([N:4]1[C:3]([H:10])([H:11])[C:6]1([H:14])[H:15])([H:12])[H:13])([H:7])([H:8])[H:9]"
C        1.98886789       0.17232059      -0.37287481
C        0.56091159      -0.00786159      -0.03358412
C       -0.97028045      -0.26408824       1.27514666
N       -1.61896935       0.24496662       0.04916306
C       -0.45830652       0.98565317      -0.50277346
C       -1.12029293      -1.12342100      -0.21226347
H        2.16246816       0.60191102      -1.36698470
H        2.55989918      -0.75144354      -0.26568242
H        2.39717652       0.86601207       0.37351460
H       -1.60217261      -0.83396695       1.95545833
H       -0.46902001       0.43008359       1.94506058
H       -0.34618499       1.98598270      -0.07245332
H       -0.49456442       1.02480809      -1.59999652
H       -0.79114844      -1.39346091      -1.21269507
H       -1.79838363      -1.93749562       0.04096467
15
Frame=16 idx=005002 GeodesicLength=1.000384397208974 rxn_smarts="[C:1]([C:2]12[C:3]([H:10])([H:11])[N:4]([C:5]1([H:12])[H:13])[C:6]2([H:14])[H:15])([H:7])([H:8])[H:9]>>[C:1]([C:2][C:5]([N:4]1[C:3]([H:10])([H:11])[C:6]1([H:14])[H:15])([H:12])[H:13])([H:7])([H:8])[H:9]"
C        1.99037589       0.18941008      -0.35258255
C        0.55185759      -0.04322302      -0.09517336
C       -0.93694553      -0.26632235       1.26537042
N       -1.61366732       0.24855790       0.05375652
C       -0.45817746       0.97018972      -0.53245405
C       -1.15070197      -1.13203125      -0.21115581
H        2.19762525       0.69969956      -1.30015956
H        2.57497104      -0.73004705      -0.29162154
H        2.35075615       0.83070320       0.46216911
H       -1.55995961      -0.81250423       1.97288431
H       -0.41063020       0.42494675       1.92018623
H       -0.32163566       1.96980499      -0.10738693
H       -0.50997041       1.00292264      -1.62904932
H       -0.86351065      -1.42272764      -1.21871527
H       -1.84038710      -1.92937929       0.06393180
