13
Frame=0 idx=003789 GeodesicLength=0.0 rxn_smarts="[C:1]([N:2]1[C:3]([H:10])([H:11])[C@:4]1([C:5]#[C:6][H:13])[H:12])([H:7])([H:8])[H:9]>>[C:1]([N:2]1[C@@:4]2([H:12])[C:3]([H:10])([H:11])[C:5]2=[C:6]1[H:13])([H:7])([H:8])[H:9]"
C       -1.30245415      -0.97966195       0.01091038
N        0.01023493      -0.39984738      -0.15998476
C        0.25486333       1.48831365       0.55443352
C        0.52764576       0.85582747      -0.71450180
C        1.95925924       0.26771707      -0.62510264
C        1.31196244      -0.84531794      -0.07569437
H       -1.43687446      -1.77434533      -0.72744139
H       -2.05553844      -0.21013108      -0.14888141
H       -1.42880840      -1.39821931       1.00974094
H       -0.38723789       2.35771899       0.68218111
H        0.84106799       1.14930957       1.39590894
H        0.08752908       1.24638337      -1.62711858
H        1.61835062      -1.75774714       0.42555009
13
Frame=1 idx=003789 GeodesicLength=0.11168783335428482 rxn_smarts="[C:1]([N:2]1[C:3]([H:10])([H:11])[C@:4]1([C:5]#[C:6][H:13])[H:12])([H:7])([H:8])[H:9]>>[C:1]([N:2]1[C@@:4]2([H:12])[C:3]([H:10])([H:11])[C:5]2=[C:6]1[H:13])([H:7])([H:8])[H:9]"
C       -1.31114091      -0.97461942       0.01135102
N        0.00568702      -0.39873355      -0.13768319
C        0.26337773       1.48419418       0.55226275
C        0.51643519       0.84540419      -0.72008160
C        1.95110900       0.28474511      -0.60207235
C        1.33709750      -0.84854481      -0.07054491
H       -1.44413538      -1.76053615      -0.73650141
H       -2.06308820      -0.20278634      -0.14572444
H       -1.44620798      -1.40409945       1.00440951
H       -0.36901425       2.36275137       0.66458954
H        0.82983103       1.15601635       1.41144993
H        0.07229816       1.22685812      -1.63364431
H        1.65775107      -1.77064959       0.40218948
13
Frame=2 idx=003789 GeodesicLength=0.2231974892177711 rxn_smarts="[C:1]([N:2]1[C:3]([H:10])([H:11])[C@:4]1([C:5]#[C:6][H:13])[H:12])([H:7])([H:8])[H:9]>>[C:1]([N:2]1[C@@:4]2([H:12])[C:3]([H:10])([H:11])[C:5]2=[C:6]1[H:13])([H:7])([H:8])[H:9]"
C       -1.32013024      -0.96939929       0.01146015
N        0.00060181      -0.39770107      -0.11619232
C        0.27214078       1.47923138       0.55050172
C        0.50539969       0.83457531      -0.72529623
C        1.94216799       0.30051992      -0.58087992
C        1.36261518      -0.85184487      -0.06656796
H       -1.45174914      -1.74664557      -0.74556169
H       -2.07091997      -0.19526793      -0.14294532
H       -1.46375828      -1.40946712       0.99869163
H       -0.35051557       2.36646347       0.64780985
H        0.81879822       1.16220628       1.42666135
H        0.05726705       1.20775373      -1.63940912
H        1.69808248      -1.78042424       0.38172786
13
Frame=3 idx=003789 GeodesicLength=0.33457413618024834 rxn_smarts="[C:1]([N:2]1[C:3]([H:10])([H:11])[C@:4]1([C:5]#[C:6][H:13])[H:12])([H:7])([H:8])[H:9]>>[C:1]([N:2]1[C@@:4]2([H:12])[C:3]([H:10])([H:11])[C:5]2=[C:6]1[H:13])([H:7])([H:8])[H:9]"
C       -1.32943175      -0.96399752       0.01130252
N       -0.00502961      -0.39672465      -0.09545087
C        0.28103937       1.47349758       0.54914167
C        0.49455250       0.82339007      -0.73011336
C        1.93255981       0.31508719      -0.56129300
C        1.38858597      -0.85514692      -0.06358261
H       -1.45966546      -1.73277308      -0.75448019
H       -2.07904056      -0.18759691      -0.14062392
H       -1.48150871      -1.41420007       0.99271241
H       -0.33185428       2.36895989       0.63175354
H        0.80794028       1.16802898       1.44153416
H        0.04249866       1.18906112      -1.64445008
H        1.73935378      -1.78758566       0.36354973
13
Frame=4 idx=003789 GeodesicLength=0.44587328074918414 rxn_smarts="[C:1]([N:2]1[C:3]([H:10])([H:11])[C@:4]1([C:5]#[C:6][H:13])[H:12])([H:7])([H:8])[H:9]>>[C:1]([N:2]1[C@@:4]2([H:12])[C:3]([H:10])([H:11])[C:5]2=[C:6]1[H:13])([H:7])([H:8])[H:9]"
C       -1.33906227      -0.95841392       0.01093795
N       -0.01122369      -0.39577794      -0.07537052
C        0.28997520       1.46706801       0.54817029
C        0.48390426       0.81188096      -0.73450519
C        1.92239192       0.32849079      -0.54307809
C        1.41508705      -0.85838046      -0.06141386
H       -1.46784523      -1.71899133      -0.76315698
H       -2.08745980      -0.17978497      -0.13881160
H       -1.49951647      -1.41822517       0.98657408
H       -0.31311783       2.37035467       0.61632364
H        0.79721798       1.17363053       1.45606801
H        0.02805165       1.17074340      -1.64880981
H        1.78159722      -1.79259458       0.34707208
13
Frame=5 idx=003789 GeodesicLength=0.5571192224150638 rxn_smarts="[C:1]([N:2]1[C:3]([H:10])([H:11])[C@:4]1([C:5]#[C:6][H:13])[H:12])([H:7])([H:8])[H:9]>>[C:1]([N:2]1[C@@:4]2([H:12])[C:3]([H:10])([H:11])[C:5]2=[C:6]1[H:13])([H:7])([H:8])[H:9]"
C       -1.34904082      -0.95264763       0.01041409
N       -0.01799998      -0.39483696      -0.05586072
C        0.29887511       1.46000598       0.54757717
C        0.47346787       0.80006195      -0.73845107
C        1.91174840       0.34075814      -0.52602482
C        1.44218608      -0.86149430      -0.05991436
H       -1.47625708      -1.70535655      -0.77151691
H       -2.09618712      -0.17183711      -0.13754988
H       -1.51783966      -1.42149098       0.98035712
H       -0.29437344       2.37073442       0.60143947
H        0.78660048       1.17912465       1.47026359
H        0.01397995       1.15275039      -1.65252703
H        1.82484020      -1.79577201       0.33179334
13
Frame=6 idx=003789 GeodesicLength=0.6683566616107905 rxn_smarts="[C:1]([N:2]1[C:3]([H:10])([H:11])[C@:4]1([C:5]#[C:6][H:13])[H:12])([H:7])([H:8])[H:9]>>[C:1]([N:2]1[C@@:4]2([H:12])[C:3]([H:10])([H:11])[C:5]2=[C:6]1[H:13])([H:7])([H:8])[H:9]"
C       -1.35939227      -0.94669799       0.00978052
N       -0.02538248      -0.39387601      -0.03681118
C        0.30766829       1.45238223       0.54734880
C        0.46325136       0.78793529      -0.74192816
C        1.90071956       0.35193362      -0.50991393
C        1.46997089      -0.86442184      -0.05893286
H       -1.48487915      -1.69190811      -0.77950820
H       -2.10523347      -0.16374886      -0.13686428
H       -1.53654751      -1.42397401       0.97413454
H       -0.27568145       2.37019919       0.58700232
H        0.77603781       1.18463488       1.48413323
H        0.00033552       1.13501013      -1.65564591
H        1.86913288      -1.79746852       0.31720512
13
Frame=7 idx=003789 GeodesicLength=0.7796232910966107 rxn_smarts="[C:1]([N:2]1[C:3]([H:10])([H:11])[C@:4]1([C:5]#[C:6][H:13])[H:12])([H:7])([H:8])[H:9]>>[C:1]([N:2]1[C@@:4]2([H:12])[C:3]([H:10])([H:11])[C:5]2=[C:6]1[H:13])([H:7])([H:8])[H:9]"
C       -1.37015467      -0.94056352       0.00906029
N       -0.03340954      -0.39287788      -0.01814506
C        0.31632261       1.44422860       0.54748067
C        0.45325385       0.77548963      -0.74493026
C        1.88935611       0.36201901      -0.49460825
C        1.49851186      -0.86713105      -0.05841844
H       -1.49372348      -1.67865925      -0.78711845
H       -2.11461928      -0.15550499      -0.13676487
H       -1.55570633      -1.42567553       0.96793706
H       -0.25705835       2.36879848       0.57296996
H        0.76552639       1.19021158       1.49767364
H       -0.01285886       1.11747018      -1.65819925
H        1.91455969      -1.79780525       0.30306298
13
Frame=8 idx=003789 GeodesicLength=0.8909362697753904 rxn_smarts="[C:1]([N:2]1[C:3]([H:10])([H:11])[C@:4]1([C:5]#[C:6][H:13])[H:12])([H:7])([H:8])[H:9]>>[C:1]([N:2]1[C@@:4]2([H:12])[C:3]([H:10])([H:11])[C:5]2=[C:6]1[H:13])([H:7])([H:8])[H:9]"
C       -1.38136248      -0.93423797       0.00828453
N       -0.04211460      -0.39182048       0.00023690
C        0.32479901       1.43558531       0.54796438
C        0.44347631       0.76270049      -0.74744206
C        1.87772251       0.37103572      -0.47993772
C        1.52789058      -0.86957403      -0.05828914
H       -1.50279424      -1.66562455      -0.79433140
H       -2.12435753      -0.14708294      -0.13726567
H       -1.57539219      -1.42659520       0.96180722
H       -0.23853137       2.36659151       0.55926894
H        0.75503226       1.19592328       1.51089857
H       -0.02556580       1.10004985      -1.66021911
H        1.96119752      -1.79695100       0.28902457
13
Frame=9 idx=003789 GeodesicLength=1.0025114724778412 rxn_smarts="[C:1]([N:2]1[C:3]([H:10])([H:11])[C@:4]1([C:5]#[C:6][H:13])[H:12])([H:7])([H:8])[H:9]>>[C:1]([N:2]1[C@@:4]2([H:12])[C:3]([H:10])([H:11])[C:5]2=[C:6]1[H:13])([H:7])([H:8])[H:9]"
C       -1.39315328      -0.92772328       0.00736048
N       -0.05161608      -0.39074857       0.01821575
C        0.33319844       1.42626341       0.54884082
C        0.43381980       0.74950723      -0.74953472
C        1.86575613       0.37890566      -0.46620372
C        1.55817317      -0.87184855      -0.05903891
H       -1.51232421      -1.65270882      -0.80128237
H       -2.13453763      -0.13844417      -0.13832234
H       -1.59569010      -1.42682403       0.95559161
H       -0.21986965       2.36348463       0.54610184
H        0.74485298       1.20146246       1.52373858
H       -0.03797713       1.08285958      -1.66166971
H        2.00936755      -1.79418555       0.27620270
13
Frame=10 idx=003789 GeodesicLength=1.1141242088767649 rxn_smarts="[C:1]([N:2]1[C:3]([H:10])([H:11])[C@:4]1([C:5]#[C:6][H:13])[H:12])([H:7])([H:8])[H:9]>>[C:1]([N:2]1[C@@:4]2([H:12])[C:3]([H:10])([H:11])[C:5]2=[C:6]1[H:13])([H:7])([H:8])[H:9]"
C       -1.40547352      -0.92099517       0.00641599
N       -0.06187190      -0.38960066       0.03607294
C        0.34138131       1.41648748       0.55006368
C        0.42437610       0.73590345      -0.75111214
C        1.85360512       0.38569435      -0.45283222
C        1.58945339      -0.87377993      -0.06012598
H       -1.52212054      -1.64002412      -0.80780290
H       -2.14509580      -0.12957294      -0.14003666
H       -1.61669535      -1.42622491       0.94949227
H       -0.20134190       2.35961303       0.53318704
H        0.73466851       1.20719895       1.53628118
H       -0.04985326       1.06564836      -1.66263659
H        2.05896784      -1.79034788       0.26303340
13
Frame=11 idx=003789 GeodesicLength=1.2257485962444945 rxn_smarts="[C:1]([N:2]1[C:3]([H:10])([H:11])[C@:4]1([C:5]#[C:6][H:13])[H:12])([H:7])([H:8])[H:9]>>[C:1]([N:2]1[C@@:4]2([H:12])[C:3]([H:10])([H:11])[C:5]2=[C:6]1[H:13])([H:7])([H:8])[H:9]"
C       -1.41835890      -0.91403856       0.00546675
N       -0.07292231      -0.38836214       0.05389118
C        0.34933095       1.40626858       0.55163894
C        0.41515007       0.72184592      -0.75215428
C        1.84129881       0.39139672      -0.43969135
C        1.62181228      -0.87533768      -0.06151182
H       -1.53218431      -1.62759719      -0.81385801
H       -2.15603940      -0.12044794      -0.14246811
H       -1.63850071      -1.42474577       0.94353868
H       -0.18297409       2.35497963       0.52049540
H        0.72446806       1.21316659       1.54853683
H       -0.06115188       1.04833724      -1.66314004
H        2.11007143      -1.78546537       0.24925584
13
Frame=12 idx=003789 GeodesicLength=1.3373702351426475 rxn_smarts="[C:1]([N:2]1[C:3]([H:10])([H:11])[C@:4]1([C:5]#[C:6][H:13])[H:12])([H:7])([H:8])[H:9]>>[C:1]([N:2]1[C@@:4]2([H:12])[C:3]([H:10])([H:11])[C:5]2=[C:6]1[H:13])([H:7])([H:8])[H:9]"
C       -1.43185730      -0.90683345       0.00452149
N       -0.08481723      -0.38702287       0.07173881
C        0.35704079       1.39560082       0.55357580
C        0.40613939       0.70727889      -0.75264318
C        1.82885992       0.39598564      -0.42667203
C        1.65533624      -0.87648660      -0.06319895
H       -1.54254665      -1.61544053      -0.81943032
H       -2.16737956      -0.11103037      -0.14566524
H       -1.66120857      -1.42234063       0.93774889
H       -0.16477990       2.34957908       0.50800448
H        0.71424711       1.21936996       1.56051810
H       -0.07184237       1.03084743      -1.66319390
H        2.16280813      -1.77950736       0.23469604
13
Frame=13 idx=003789 GeodesicLength=1.4489597657470759 rxn_smarts="[C:1]([N:2]1[C:3]([H:10])([H:11])[C@:4]1([C:5]#[C:6][H:13])[H:12])([H:7])([H:8])[H:9]>>[C:1]([N:2]1[C@@:4]2([H:12])[C:3]([H:10])([H:11])[C:5]2=[C:6]1[H:13])([H:7])([H:8])[H:9]"
C       -1.44600563      -0.89936187       0.00359070
N       -0.09760254      -0.38556744       0.08968814
C        0.36450625       1.38447770       0.55588493
C        0.39735037       0.69214178      -0.75255577
C        1.81630818       0.39943145      -0.41365837
C        1.69012499      -0.87718283      -0.06517707
H       -1.55321401      -1.60358279      -0.82448644
H       -2.17911799      -0.10129477      -0.14969552
H       -1.68491408      -1.41894529       0.93214638
H       -0.14677138       2.34338952       0.49569671
H        0.70399651       1.22581689       1.57223723
H       -0.08187929       1.01309319      -1.66280935
H        2.21721861      -1.77241557       0.21913843
13
Frame=14 idx=003789 GeodesicLength=1.5605047413175235 rxn_smarts="[C:1]([N:2]1[C:3]([H:10])([H:11])[C@:4]1([C:5]#[C:6][H:13])[H:12])([H:7])([H:8])[H:9]>>[C:1]([N:2]1[C@@:4]2([H:12])[C:3]([H:10])([H:11])[C:5]2=[C:6]1[H:13])([H:7])([H:8])[H:9]"
C       -1.46087770      -0.89159378       0.00266763
N       -0.11135332      -0.38399324       0.10778336
C        0.37173779       1.37285191       0.55858319
C        0.38876515       0.67635982      -0.75187712
C        1.80364666       0.40166064      -0.40058209
C        1.72625480      -0.87740346      -0.06754580
H       -1.56426544      -1.59201882      -0.82902197
H       -2.19127573      -0.09118312      -0.15460567
H       -1.70974239      -1.41450821       0.92672716
H       -0.12891488       2.33637835       0.48357650
H        0.69373553       1.23246023       1.58370062
H       -0.09125343       0.99500551      -1.66198647
H        2.27354297      -1.76401584       0.20258067
13
Frame=15 idx=003789 GeodesicLength=1.6719828180990006 rxn_smarts="[C:1]([N:2]1[C:3]([H:10])([H:11])[C@:4]1([C:5]#[C:6][H:13])[H:12])([H:7])([H:8])[H:9]>>[C:1]([N:2]1[C@@:4]2([H:12])[C:3]([H:10])([H:11])[C:5]2=[C:6]1[H:13])([H:7])([H:8])[H:9]"
C       -1.47653783      -0.88349895       0.00175184
N       -0.12614011      -0.38229399       0.12607840
C        0.37874529       1.36067860       0.56168906
C        0.38037857       0.65984671      -0.75058155
C        1.79087888       0.40258419      -0.38734811
C        1.76382164      -0.87710314      -0.07037541
H       -1.57575639      -1.58076110      -0.83301464
H       -2.20386202      -0.08064586      -0.16046164
H       -1.73581895      -1.40895290       0.92149829
H       -0.11118361       2.32849990       0.47164112
H        0.68346965       1.23926501       1.59491896
H       -0.09993014       0.97649610      -1.66072454
H        2.33193503      -1.75411456       0.18492822
13
Frame=16 idx=003789 GeodesicLength=1.7833815314320394 rxn_smarts="[C:1]([N:2]1[C:3]([H:10])([H:11])[C@:4]1([C:5]#[C:6][H:13])[H:12])([H:7])([H:8])[H:9]>>[C:1]([N:2]1[C@@:4]2([H:12])[C:3]([H:10])([H:11])[C:5]2=[C:6]1[H:13])([H:7])([H:8])[H:9]"
C       -1.49306077      -0.87503824       0.00084754
N       -0.14204699      -0.38046097       0.14465008
C        0.38552515       1.34791385       0.56522707
C        0.37219590       0.64249270      -0.74862293
C        1.77800847       0.40209229      -0.37380886
C        1.80293106      -0.87621302      -0.07369077
H       -1.58774031      -1.56983389      -0.83641947
H       -2.21688441      -0.06962485      -0.16735914
H       -1.76330385      -1.40216682       0.91647679
H       -0.09355149       2.31971031       0.45986306
H        0.67316689       1.24622196       1.60591324
H       -0.10784219       0.95744073      -1.65901775
H        2.39260253      -1.74253405       0.16594114
