16
Frame=0 idx=009855 GeodesicLength=0.0 rxn_smarts="[O:1]([C@@:2]1([H:9])[C:3]([H:10])([H:11])[C@:4]2([C:5]([H:12])([H:13])[N:6]2[H:14])[C:7]1([H:15])[H:16])[H:8]>>[O:1]([C@@:2]1([H:9])[C:3]([H:10])([H:11])[C:5]([H:12])([H:13])/[C:4](=[N:6]/[H:14])[C:7]1([H:15])[H:16])[H:8]"
O       -1.78105804      -0.38082012       1.37991100
C       -1.30765117      -0.61820493       0.08956933
C       -0.74357308       0.64564098      -0.58763882
C        0.72922814       0.13960250       0.03274198
C        1.59557258       0.71093951      -0.97177697
N        0.88433750       0.84077965       1.20769445
C        0.08992905      -1.26388069       0.04237576
H       -1.12033458       0.18458858       1.81248025
H       -2.10520574      -1.11572555      -0.46250422
H       -1.04832806       1.61870673      -0.21441677
H       -0.77419110       0.57646670      -1.67209551
H        1.28143057       0.84077506      -2.00116757
H        2.43981407       1.29902843      -0.63531246
H        1.23232867       0.21112145       1.93581653
H        0.26919186      -1.83052417      -0.87212188
H        0.35850931      -1.85849411       0.91644494
16
Frame=1 idx=009855 GeodesicLength=0.08663790377782091 rxn_smarts="[O:1]([C@@:2]1([H:9])[C:3]([H:10])([H:11])[C@:4]2([C:5]([H:12])([H:13])[N:6]2[H:14])[C:7]1([H:15])[H:16])[H:8]>>[O:1]([C@@:2]1([H:9])[C:3]([H:10])([H:11])[C:5]([H:12])([H:13])/[C:4](=[N:6]/[H:14])[C:7]1([H:15])[H:16])[H:8]"
O       -1.79120570      -0.37024185       1.37224023
C       -1.30915613      -0.61481984       0.08526990
C       -0.73742613       0.64380206      -0.59581933
C        0.73662833       0.12261831       0.04116687
C        1.57792685       0.73374052      -0.95838798
N        0.92334061       0.82672767       1.20709733
C        0.08412197      -1.27080610       0.05040738
H       -1.13245776       0.19253715       1.80983184
H       -2.10448007      -1.11422020      -0.46812631
H       -1.05335025       1.61619965      -0.22932333
H       -0.77872794       0.56761027      -1.67979622
H        1.28536203       0.84813294      -1.99563203
H        2.42174203       1.33185211      -0.63809152
H        1.26990784       0.19298080       1.93231154
H        0.26828725      -1.84035992      -0.86135745
H        0.33948707      -1.86575357       0.92820908
16
Frame=2 idx=009855 GeodesicLength=0.17329102595902615 rxn_smarts="[O:1]([C@@:2]1([H:9])[C:3]([H:10])([H:11])[C@:4]2([C:5]([H:12])([H:13])[N:6]2[H:14])[C:7]1([H:15])[H:16])[H:8]>>[O:1]([C@@:2]1([H:9])[C:3]([H:10])([H:11])[C:5]([H:12])([H:13])/[C:4](=[N:6]/[H:14])[C:7]1([H:15])[H:16])[H:8]"
O       -1.80144668      -0.35970234       1.36435196
C       -1.31057408      -0.61146914       0.08093374
C       -0.73180871       0.64203003      -0.60417932
C        0.74383171       0.10639834       0.04932433
C        1.55957843       0.75637054      -0.94448866
N        0.96288678       0.81204485       1.20611717
C        0.07848778      -1.27712747       0.05867211
H       -1.14512092       0.20094448       1.80691177
H       -2.10345295      -1.11318161      -0.47369761
H       -1.05966336       1.61354927      -0.24493968
H       -0.78347541       0.55882922      -1.68756714
H        1.28968328       0.85655986      -1.98906749
H        2.40371340       1.36287107      -0.64022767
H        1.30910608       0.17394623       1.92766041
H        0.26752090      -1.85005180      -0.85004467
H        0.32073374      -1.87201151       0.94024074
16
Frame=3 idx=009855 GeodesicLength=0.259958011801441 rxn_smarts="[O:1]([C@@:2]1([H:9])[C:3]([H:10])([H:11])[C@:4]2([C:5]([H:12])([H:13])[N:6]2[H:14])[C:7]1([H:15])[H:16])[H:8]>>[O:1]([C@@:2]1([H:9])[C:3]([H:10])([H:11])[C:5]([H:12])([H:13])/[C:4](=[N:6]/[H:14])[C:7]1([H:15])[H:16])[H:8]"
O       -1.81181344      -0.34918518       1.35624132
C       -1.31192931      -0.60814894       0.07656674
C       -0.72674008       0.64032758      -0.61273136
C        0.75082094       0.09094457       0.05724400
C        1.54056139       0.77884441      -0.93002796
N        1.00302602       0.79669374       1.20473444
C        0.07300948      -1.28284328       0.06718989
H       -1.15836185       0.20984715       1.80369730
H       -2.10214619      -1.11260739      -0.47920491
H       -1.06728603       1.61073582      -0.26133386
H       -0.78837812       0.55006794      -1.69542916
H        1.29435245       0.86603232      -1.98140221
H        2.38573361       1.39222070      -0.64168537
H        1.35002682       0.15391067       1.92173842
H        0.26688658      -1.85958140      -0.83816278
H        0.30223773      -1.87725872       0.95256551
16
Frame=4 idx=009855 GeodesicLength=0.34664165163740135 rxn_smarts="[O:1]([C@@:2]1([H:9])[C:3]([H:10])([H:11])[C@:4]2([C:5]([H:12])([H:13])[N:6]2[H:14])[C:7]1([H:15])[H:16])[H:8]>>[O:1]([C@@:2]1([H:9])[C:3]([H:10])([H:11])[C:5]([H:12])([H:13])/[C:4](=[N:6]/[H:14])[C:7]1([H:15])[H:16])[H:8]"
O       -1.82233586      -0.33866173       1.34790268
C       -1.31324611      -0.60485239       0.07217523
C       -0.72223133       0.63869274      -0.62149295
C        0.75758114       0.07625166       0.06495936
C        1.52090769       0.80118558      -0.91494377
N        1.04382803       0.78061869       1.20291663
C        0.06766580      -1.28795587       0.07598489
H       -1.17221211       0.21929190       1.80016200
H       -2.10058459      -1.11249055      -0.48463221
H       -1.07622576       1.60773734      -0.27858573
H       -0.79337173       0.54126204      -1.70340888
H        1.29932905       0.87650999      -1.97255477
H        2.36776462       1.42009003      -0.64240343
H        1.39277802       0.13274460       1.91438880
H        0.26637336      -1.86893848      -0.82568424
H        0.28397978      -1.88148555       0.96521641
16
Frame=5 idx=009855 GeodesicLength=0.4333346913259325 rxn_smarts="[O:1]([C@@:2]1([H:9])[C:3]([H:10])([H:11])[C@:4]2([C:5]([H:12])([H:13])[N:6]2[H:14])[C:7]1([H:15])[H:16])[H:8]>>[O:1]([C@@:2]1([H:9])[C:3]([H:10])([H:11])[C:5]([H:12])([H:13])/[C:4](=[N:6]/[H:14])[C:7]1([H:15])[H:16])[H:8]"
O       -1.83303911      -0.32808952       1.33933246
C       -1.31454974      -0.60157097       0.06776560
C       -0.71828787       0.63711511      -0.63048919
C        0.76409926       0.06230193       0.07249786
C        1.50064645       0.82342013      -0.89916455
N        1.08537163       0.76375732       1.20061670
C        0.06242848      -1.29247353       0.08508172
H       -1.18669165       0.22932997       1.79627767
H       -2.09879790      -1.11281781      -0.48995661
H       -1.08647404       1.60452347      -0.29678113
H       -0.79838463       0.53233196      -1.71154188
H        1.30457773       0.88795370      -1.96245002
H        2.34973676       1.44671262      -0.64229522
H        1.43747277       0.11031400       1.90546084
H        0.26596038      -1.87812107      -0.81258013
H        0.26593150      -1.88468731       0.97822589
16
Frame=6 idx=009855 GeodesicLength=0.5200594237041896 rxn_smarts="[O:1]([C@@:2]1([H:9])[C:3]([H:10])([H:11])[C@:4]2([C:5]([H:12])([H:13])[N:6]2[H:14])[C:7]1([H:15])[H:16])[H:8]>>[O:1]([C@@:2]1([H:9])[C:3]([H:10])([H:11])[C:5]([H:12])([H:13])/[C:4](=[N:6]/[H:14])[C:7]1([H:15])[H:16])[H:8]"
O       -1.84395244      -0.31741772       1.33051908
C       -1.31586273      -0.59829187       0.06334564
C       -0.71490426       0.63558455      -0.63974506
C        0.77036467       0.04908141       0.07990815
C        1.47979952       0.84557599      -0.88260262
N        1.12776119       0.74602047       1.19774883
C        0.05726950      -1.29640313       0.09451876
H       -1.20182496       0.24002810       1.79201052
H       -2.09681134      -1.11357640      -0.49515873
H       -1.09801686       1.60105693      -0.31602548
H       -0.80332749       0.52319212      -1.71986336
H        1.31006093       0.90033344      -1.95096972
H        2.33152503       1.47234735      -0.64125172
H        1.48423172       0.08645081       1.89471749
H        0.26563051      -1.88713257      -0.79879868
H        0.24805702      -1.88684948       0.99164691
16
Frame=7 idx=009855 GeodesicLength=0.6068291941767858 rxn_smarts="[O:1]([C@@:2]1([H:9])[C:3]([H:10])([H:11])[C@:4]2([C:5]([H:12])([H:13])[N:6]2[H:14])[C:7]1([H:15])[H:16])[H:8]>>[O:1]([C@@:2]1([H:9])[C:3]([H:10])([H:11])[C:5]([H:12])([H:13])/[C:4](=[N:6]/[H:14])[C:7]1([H:15])[H:16])[H:8]"
O       -1.85510495      -0.30658376       1.32145013
C       -1.31720965      -0.59500070       0.05892330
C       -0.71206530       0.63408064      -0.64928823
C        0.77636740       0.03656298       0.08724004
C        1.45839233       0.86766355      -0.86515927
N        1.17111122       0.72731473       1.19420347
C        0.05215187      -1.29975446       0.10433862
H       -1.21763451       0.25145093       1.78731917
H       -2.09465444      -1.11474506      -0.50021594
H       -1.11081633       1.59729203      -0.33642410
H       -0.80809778       0.51374696      -1.72841276
H        1.31575547       0.91361409      -1.93800286
H        2.31295455       1.49732394      -0.63913339
H        1.53318632       0.06097431       1.88189487
H        0.26535485      -1.89598271      -0.78428063
H        0.23030897      -1.88795744       1.00554758
16
Frame=8 idx=009855 GeodesicLength=0.6936592728724907 rxn_smarts="[O:1]([C@@:2]1([H:9])[C:3]([H:10])([H:11])[C@:4]2([C:5]([H:12])([H:13])[N:6]2[H:14])[C:7]1([H:15])[H:16])[H:8]>>[O:1]([C@@:2]1([H:9])[C:3]([H:10])([H:11])[C:5]([H:12])([H:13])/[C:4](=[N:6]/[H:14])[C:7]1([H:15])[H:16])[H:8]"
O       -1.86651808      -0.29549809       1.31210708
C       -1.31861098      -0.59167793       0.05450809
C       -0.70973713       0.63257080      -0.65915642
C        0.78210715       0.02470279       0.09454465
C        1.43645797       0.88968311      -0.84671768
N        1.21556924       0.70750741       1.18984316
C        0.04703176      -1.30254502       0.11459678
H       -1.23412565       0.26369190       1.78215156
H       -2.09235822      -1.11629387      -0.50509156
H       -1.12480165       1.59316050      -0.35810961
H       -0.81256236       0.50387829      -1.73723078
H        1.32163456       0.92779344      -1.92341598
H        2.29374357       1.52204110      -0.63575164
H        1.58445082       0.03367591       1.86666085
H        0.26508970      -1.90470210      -0.76894638
H        0.21262929      -1.88798826       1.02000788
16
Frame=9 idx=009855 GeodesicLength=0.7804851758053827 rxn_smarts="[O:1]([C@@:2]1([H:9])[C:3]([H:10])([H:11])[C@:4]2([C:5]([H:12])([H:13])[N:6]2[H:14])[C:7]1([H:15])[H:16])[H:8]>>[O:1]([C@@:2]1([H:9])[C:3]([H:10])([H:11])[C:5]([H:12])([H:13])/[C:4](=[N:6]/[H:14])[C:7]1([H:15])[H:16])[H:8]"
O       -1.87823872      -0.28410401       1.30245778
C       -1.32004891      -0.58829485       0.05011619
C       -0.70781927       0.63104289      -0.66933789
C        0.78760912       0.01350112       0.10200472
C        1.41400511       0.91161383      -0.82724520
N        1.26126285       0.68640754       1.18450226
C        0.04189667      -1.30476580       0.12538346
H       -1.25138105       0.27681524       1.77646741
H       -2.08988289      -1.11818674      -0.50980292
H       -1.13982497       1.58860508      -0.38115669
H       -0.81655482       0.49353190      -1.74627986
H        1.32757318       0.94278230      -1.90708155
H        2.27366007       1.54694671      -0.63100999
H        1.63792353       0.00429837       1.84848911
H        0.26486653      -1.91329357      -0.75267535
H        0.19495358      -1.88690001       1.03516852
16
Frame=10 idx=009855 GeodesicLength=0.8673855308355578 rxn_smarts="[O:1]([C@@:2]1([H:9])[C:3]([H:10])([H:11])[C@:4]2([C:5]([H:12])([H:13])[N:6]2[H:14])[C:7]1([H:15])[H:16])[H:8]>>[O:1]([C@@:2]1([H:9])[C:3]([H:10])([H:11])[C:5]([H:12])([H:13])/[C:4](=[N:6]/[H:14])[C:7]1([H:15])[H:16])[H:8]"
O       -1.89025313      -0.27220475       1.29248268
C       -1.32157356      -0.58483168       0.04575561
C       -0.70628710       0.62940016      -0.67994943
C        0.79286143       0.00282168       0.10955958
C        1.39109486       0.93341037      -0.80653645
N        1.30840551       0.66384522       1.17793027
C        0.03665248      -1.30648206       0.13676955
H       -1.26930445       0.29100173       1.77017183
H       -2.08733372      -1.12039176      -0.51425199
H       -1.15579241       1.58353327      -0.40580523
H       -0.81990592       0.48246183      -1.75569394
H        1.33365142       0.95877104      -1.88883374
H        2.25211026       1.57262163      -0.62441001
H        1.69394842      -0.02741455       1.82702034
H        0.26453326      -1.92188725      -0.73534324
H        0.17719267      -1.88465489       1.05113416
16
Frame=11 idx=009855 GeodesicLength=0.954326863683981 rxn_smarts="[O:1]([C@@:2]1([H:9])[C:3]([H:10])([H:11])[C@:4]2([C:5]([H:12])([H:13])[N:6]2[H:14])[C:7]1([H:15])[H:16])[H:8]>>[O:1]([C@@:2]1([H:9])[C:3]([H:10])([H:11])[C:5]([H:12])([H:13])/[C:4](=[N:6]/[H:14])[C:7]1([H:15])[H:16])[H:8]"
O       -1.90256909      -0.25965343       1.28213874
C       -1.32319572      -0.58126844       0.04143903
C       -0.70505368       0.62756078      -0.69105356
C        0.79788219      -0.00744031       0.11725486
C        1.36776058       0.95500681      -0.78445905
N        1.35718313       0.63962550       1.16984904
C        0.03123319      -1.30773597       0.14885766
H       -1.28787112       0.30639300       1.76317587
H       -2.08474625      -1.12287439      -0.51839089
H       -1.17254226       1.57784993      -0.43223500
H       -0.82241844       0.47048566      -1.76552757
H        1.33982482       0.97594181      -1.86851094
H        2.22862759       1.59961001      -0.61557266
H        1.75263241      -0.06172014       1.80175240
H        0.26399675      -1.93058784      -0.71677919
H        0.15925590      -1.88119297       1.06806125
16
Frame=12 idx=009855 GeodesicLength=1.041332688729783 rxn_smarts="[O:1]([C@@:2]1([H:9])[C:3]([H:10])([H:11])[C@:4]2([C:5]([H:12])([H:13])[N:6]2[H:14])[C:7]1([H:15])[H:16])[H:8]>>[O:1]([C@@:2]1([H:9])[C:3]([H:10])([H:11])[C:5]([H:12])([H:13])/[C:4](=[N:6]/[H:14])[C:7]1([H:15])[H:16])[H:8]"
O       -1.91519120      -0.24626717       1.27137008
C       -1.32492242      -0.57758587       0.03718154
C       -0.70402203       0.62542082      -0.70272829
C        0.80268444      -0.01737805       0.12516071
C        1.34399731       0.97637153      -0.76083257
N        1.40782716       0.61350889       1.15987753
C        0.02556972      -1.30855363       0.16178496
H       -1.30705725       0.32317947       1.75535475
H       -2.08215000      -1.12561522      -0.52215387
H       -1.18990720       1.57141205      -0.46068580
H       -0.82384453       0.45737082      -1.77583078
H        1.34605977       0.99459483      -1.84589377
H        2.20264557       1.62838051      -0.60396597
H        1.81409459      -0.09893388       1.77196614
H        0.26316192      -1.93950400      -0.69676052
H        0.14105414      -1.87640109       1.08615587
16
Frame=13 idx=009855 GeodesicLength=1.12841855512481 rxn_smarts="[O:1]([C@@:2]1([H:9])[C:3]([H:10])([H:11])[C@:4]2([C:5]([H:12])([H:13])[N:6]2[H:14])[C:7]1([H:15])[H:16])[H:8]>>[O:1]([C@@:2]1([H:9])[C:3]([H:10])([H:11])[C:5]([H:12])([H:13])/[C:4](=[N:6]/[H:14])[C:7]1([H:15])[H:16])[H:8]"
O       -1.92814312      -0.23184363       1.26008943
C       -1.32674034      -0.57376184       0.03300176
C       -0.70306046       0.62285842      -0.71505809
C        0.80728760      -0.02704262       0.13342085
C        1.31974711       0.99749239      -0.73549989
N        1.46059394       0.58516615       1.14750382
C        0.01961242      -1.30892800       0.17574337
H       -1.32688210       0.34159769       1.74656020
H       -2.07952985      -1.12861920      -0.52549335
H       -1.20768552       1.56405694      -0.49141496
H       -0.82389739       0.44284667      -1.78663174
H        1.35222474       1.01508033      -1.82074896
H        2.17362497       1.65942215      -0.58887631
H        1.87834780      -0.13951457       1.73665303
H        0.26198147      -1.94874879      -0.67497621
H        0.12251873      -1.87006211       1.10572703
16
Frame=14 idx=009855 GeodesicLength=1.215546445950175 rxn_smarts="[O:1]([C@@:2]1([H:9])[C:3]([H:10])([H:11])[C@:4]2([C:5]([H:12])([H:13])[N:6]2[H:14])[C:7]1([H:15])[H:16])[H:8]>>[O:1]([C@@:2]1([H:9])[C:3]([H:10])([H:11])[C:5]([H:12])([H:13])/[C:4](=[N:6]/[H:14])[C:7]1([H:15])[H:16])[H:8]"
O       -1.94141899      -0.21621387       1.24822544
C       -1.32867531      -0.56981069       0.02891286
C       -0.70211194       0.61971600      -0.72814304
C        0.81168625      -0.03656242       0.14201231
C        1.29492538       1.01841347      -0.70814601
N        1.51568805       0.55446169       1.13214744
C        0.01327000      -1.30888682       0.19088143
H       -1.34729326       0.36182668       1.73662116
H       -2.07694193      -1.13191180      -0.52830233
H       -1.22578740       1.55556636      -0.52470336
H       -0.82232640       0.42661225      -1.79800636
H        1.35826697       1.03805411      -1.79275996
H        2.14133142       1.69281577      -0.56966341
H        1.94550040      -0.18362477       1.69508736
H        0.26030475      -1.95844525      -0.65114957
H        0.10358202      -1.86201070       1.12698604
16
Frame=15 idx=009855 GeodesicLength=1.3028009547540584 rxn_smarts="[O:1]([C@@:2]1([H:9])[C:3]([H:10])([H:11])[C@:4]2([C:5]([H:12])([H:13])[N:6]2[H:14])[C:7]1([H:15])[H:16])[H:8]>>[O:1]([C@@:2]1([H:9])[C:3]([H:10])([H:11])[C:5]([H:12])([H:13])/[C:4](=[N:6]/[H:14])[C:7]1([H:15])[H:16])[H:8]"
O       -1.95502536      -0.19912416       1.23566353
C       -1.33071744      -0.56573943       0.02493118
C       -0.70106085       0.61581625      -0.74210876
C        0.81588869      -0.04600883       0.15102911
C        1.26930954       1.03924666      -0.67839897
N        1.57335036       0.52108874       1.11300285
C        0.00648344      -1.30842711       0.20745157
H       -1.36827797       0.38418305       1.72533020
H       -2.07437890      -1.13555437      -0.53049627
H       -1.24409494       1.54568464      -0.56096809
H       -0.81874848       0.40828084      -1.81002258
H        1.36401013       1.06429044      -1.76141323
H        2.10543565       1.72859251      -0.54534428
H        2.01557413      -0.23161340       1.64590273
H        0.25805082      -1.96876592      -0.62485965
H        0.08420117      -1.85194990       1.15030067
16
Frame=16 idx=009855 GeodesicLength=1.3901827533536737 rxn_smarts="[O:1]([C@@:2]1([H:9])[C:3]([H:10])([H:11])[C@:4]2([C:5]([H:12])([H:13])[N:6]2[H:14])[C:7]1([H:15])[H:16])[H:8]>>[O:1]([C@@:2]1([H:9])[C:3]([H:10])([H:11])[C:5]([H:12])([H:13])/[C:4](=[N:6]/[H:14])[C:7]1([H:15])[H:16])[H:8]"
O       -1.96901154      -0.18034973       1.22226712
C       -1.33284913      -0.56156334       0.02106495
C       -0.69978041       0.61097500      -0.75707082
C        0.81992621      -0.05545584       0.16057895
C        1.24270422       1.06008194      -0.64582311
N        1.63379625       0.48478097       1.08904637
C       -0.00078839      -1.30752376       0.22575098
H       -1.38989963       0.40896506       1.71246669
H       -2.07179617      -1.13962520      -0.53201654
H       -1.26248874       1.53414271      -0.60058159
H       -0.81276481       0.38747568      -1.82275608
H        1.36921441       1.09456567      -1.72618610
H        2.06576986       1.76671435      -0.51479622
H        2.08842443      -0.28380738       1.58754627
H        0.25516791      -1.97987526      -0.59562412
H        0.06437554      -1.83950086       1.17613324
