17
Frame=0 idx=009812 GeodesicLength=0.0 rxn_smarts="[C:1]1([H:8])([H:9])[C:2]([H:10])([H:11])[O:3][C:4]([H:12])([H:13])[C:5]([H:14])=[C:6]([H:15])[C:7]1([H:16])[H:17]>>[C:1]1([H:8])([H:9])[C:2]([H:10])([H:11])[O:3][C:4]([H:12])=[C:5]([H:14])[C:6]([H:15])=[C:7]1[H:17].[H:13][H:16]"
C       -1.49185501      -0.24479988      -0.18528189
C       -0.69566995      -1.33323871       0.50604157
O        0.51812250      -1.62674365      -0.16543752
C        1.47411031      -0.65621000      -0.16586581
C        1.44830868       0.52587311       0.58491230
C        0.36124161       1.38296169       0.52753750
C       -0.74615079       1.07714754      -0.26614730
H       -2.41362653      -0.08598913       0.38831075
H       -1.79963085      -0.58766860      -1.17471001
H       -0.47430326      -1.04907261       1.54008421
H       -1.25104829      -2.27081830       0.51679068
H        2.43475940      -1.10524084      -0.39909712
H        0.93312914       0.10651120      -1.47501914
H        2.40716647       0.92007564       0.89870501
H        0.51453576       2.41240930       0.83201414
H        0.17533663       0.62083223      -1.44584802
H       -1.39442576       1.91397103      -0.51698937
17
Frame=1 idx=009812 GeodesicLength=0.07972895052742772 rxn_smarts="[C:1]1([H:8])([H:9])[C:2]([H:10])([H:11])[O:3][C:4]([H:12])([H:13])[C:5]([H:14])=[C:6]([H:15])[C:7]1([H:16])[H:17]>>[C:1]1([H:8])([H:9])[C:2]([H:10])([H:11])[O:3][C:4]([H:12])=[C:5]([H:14])[C:6]([H:15])=[C:7]1[H:17].[H:13][H:16]"
C       -1.49316942      -0.24045469      -0.17328649
C       -0.69621245      -1.34118929       0.49759437
O        0.51944805      -1.62380861      -0.17300799
C        1.47666141      -0.65320640      -0.16523638
C        1.44681793       0.53047026       0.58690587
C        0.35781155       1.38655643       0.52700506
C       -0.74598495       1.07859423      -0.27434513
H       -2.40122640      -0.07650839       0.42023215
H       -1.82644826      -0.57880039      -1.15625466
H       -0.47951236      -1.07965846       1.53861584
H       -1.25068819      -2.27946559       0.48671346
H        2.44112572      -1.11802846      -0.34925440
H        0.95280717       0.10273640      -1.49539029
H        2.40621483       0.93353726       0.88818096
H        0.51323281       2.41894021       0.82051804
H        0.17602177       0.62472988      -1.46089526
H       -1.39689920       1.91555562      -0.51809514
17
Frame=2 idx=009812 GeodesicLength=0.15930811885623913 rxn_smarts="[C:1]1([H:8])([H:9])[C:2]([H:10])([H:11])[O:3][C:4]([H:12])([H:13])[C:5]([H:14])=[C:6]([H:15])[C:7]1([H:16])[H:17]>>[C:1]1([H:8])([H:9])[C:2]([H:10])([H:11])[O:3][C:4]([H:12])=[C:5]([H:14])[C:6]([H:15])=[C:7]1[H:17].[H:13][H:16]"
C       -1.49419227      -0.23614610      -0.16099201
C       -0.69668300      -1.34916508       0.48891514
O        0.52090453      -1.62074603      -0.18060477
C        1.47941984      -0.65016266      -0.16459021
C        1.44526916       0.53517003       0.58888999
C        0.35439322       1.39032553       0.52621901
C       -0.74583114       1.07989401      -0.28262424
H       -2.38771127      -0.06714491       0.45267581
H       -1.85343687      -0.56972057      -1.13669147
H       -0.48469760      -1.11103955       1.53654432
H       -1.25030387      -2.28759405       0.45588569
H        2.44541920      -1.13012441      -0.29867403
H        0.97326556       0.09859812      -1.51589167
H        2.40500721       0.94682513       0.87794015
H        0.51193910       2.42556537       0.80859767
H        0.17664209       0.62858342      -1.47616066
H       -1.39940390       1.91688174      -0.51943871
17
Frame=3 idx=009812 GeodesicLength=0.23875381626614806 rxn_smarts="[C:1]1([H:8])([H:9])[C:2]([H:10])([H:11])[O:3][C:4]([H:12])([H:13])[C:5]([H:14])=[C:6]([H:15])[C:7]1([H:16])[H:17]>>[C:1]1([H:8])([H:9])[C:2]([H:10])([H:11])[O:3][C:4]([H:12])=[C:5]([H:14])[C:6]([H:15])=[C:7]1[H:17].[H:13][H:16]"
C       -1.49491241      -0.23188309      -0.14840317
C       -0.69710318      -1.35716121       0.48001482
O        0.52248899      -1.61756708      -0.18816920
C        1.48237753      -0.64709482      -0.16385761
C        1.44365365       0.53997754       0.59089512
C        0.35098523       1.39427806       0.52517798
C       -0.74569605       1.08103167      -0.29097324
H       -2.37303560      -0.05790530       0.48561288
H       -1.88054683      -0.56043355      -1.11598149
H       -0.48991232      -1.14321124       1.53384472
H       -1.24991197      -2.29516690       0.42430604
H        2.44758666      -1.14143273      -0.24759868
H        0.99457472       0.09402760      -1.53647221
H        2.40354675       0.95993840       0.86801842
H        0.51065409       2.43229420       0.79622939
H        0.17720090       0.63237909      -1.49162726
H       -1.40195018       1.91792936      -0.52101652
17
Frame=4 idx=009812 GeodesicLength=0.3181142904501037 rxn_smarts="[C:1]1([H:8])([H:9])[C:2]([H:10])([H:11])[O:3][C:4]([H:12])([H:13])[C:5]([H:14])=[C:6]([H:15])[C:7]1([H:16])[H:17]>>[C:1]1([H:8])([H:9])[C:2]([H:10])([H:11])[O:3][C:4]([H:12])=[C:5]([H:14])[C:6]([H:15])=[C:7]1[H:17].[H:13][H:16]"
C       -1.49532137      -0.22767447      -0.13551764
C       -0.69749618      -1.36517212       0.47090555
O        0.52419623      -1.61428285      -0.19564081
C        1.48552012      -0.64401812      -0.16296589
C        1.44196072       0.54489917       0.59295056
C        0.34758575       1.39842459       0.52388034
C       -0.74559121       1.08199267      -0.29937395
H       -2.35715620      -0.04880855       0.51900691
H       -1.90772830      -0.55094257      -1.09408580
H       -0.49521639      -1.17616758       1.53049054
H       -1.24953570      -2.30213388       0.39196593
H        2.44761198      -1.15186926      -0.19627145
H        1.01681938       0.08895189      -1.55707865
H        2.40183815       0.97287762       0.85844745
H        0.50938202       2.43913715       0.78337876
H        0.17768751       0.63610732      -1.50727720
H       -1.40455651       1.91867899      -0.52281464
17
Frame=5 idx=009812 GeodesicLength=0.39739909627798314 rxn_smarts="[C:1]1([H:8])([H:9])[C:2]([H:10])([H:11])[O:3][C:4]([H:12])([H:13])[C:5]([H:14])=[C:6]([H:15])[C:7]1([H:16])[H:17]>>[C:1]1([H:8])([H:9])[C:2]([H:10])([H:11])[O:3][C:4]([H:12])=[C:5]([H:14])[C:6]([H:15])=[C:7]1[H:17].[H:13][H:16]"
C       -1.49541569      -0.22352482      -0.12233421
C       -0.69788485      -1.37319209       0.46159783
O        0.52602042      -1.61090814      -0.20296554
C        1.48883052      -0.64094179      -0.16185241
C        1.44018053       0.54994286       0.59508147
C        0.34419278       1.40277553       0.52232378
C       -0.74552798       1.08276441      -0.30781000
H       -2.34004794      -0.03986831       0.55281767
H       -1.93493581      -0.54124774      -1.07097002
H       -0.50066892      -1.20990197       1.52645596
H       -1.24919219      -2.30845190       0.35887405
H        2.44551214      -1.16136055      -0.14492825
H        1.04007526       0.08329322      -1.57765799
H        2.39988557       0.98564482       0.84925630
H        0.50812019       2.44610205       0.77003086
H        0.17809211       0.63975845      -1.52309595
H       -1.40723613       1.91911596      -0.52482354
17
Frame=6 idx=009812 GeodesicLength=0.47666989947110305 rxn_smarts="[C:1]1([H:8])([H:9])[C:2]([H:10])([H:11])[O:3][C:4]([H:12])([H:13])[C:5]([H:14])=[C:6]([H:15])[C:7]1([H:16])[H:17]>>[C:1]1([H:8])([H:9])[C:2]([H:10])([H:11])[O:3][C:4]([H:12])=[C:5]([H:14])[C:6]([H:15])=[C:7]1[H:17].[H:13][H:16]"
C       -1.49519204      -0.21944269      -0.10885401
C       -0.69829575      -1.38121213       0.45209746
O        0.52795296      -1.60745367      -0.21009108
C        1.49228693      -0.63787493      -0.16045034
C        1.43829908       0.55511909       0.59731106
C        0.34080160       1.40734398       0.52050312
C       -0.74552586       1.08333724      -0.31625887
H       -2.32166827      -0.03111203       0.58700997
H       -1.96212432      -0.53135033      -1.04657723
H       -0.50634284      -1.24440788       1.52169933
H       -1.24890498      -2.31406157       0.32502060
H        2.44133419      -1.16985642      -0.09378661
H        1.06444594       0.07696831      -1.59815302
H        2.39769492       0.99824831       0.84046858
H        0.50687142       2.45319670       0.75614881
H        0.17838548       0.64333240      -1.53906813
H       -1.41001847       1.91922563      -0.52701965
17
Frame=7 idx=009812 GeodesicLength=0.5559595862761758 rxn_smarts="[C:1]1([H:8])([H:9])[C:2]([H:10])([H:11])[O:3][C:4]([H:12])([H:13])[C:5]([H:14])=[C:6]([H:15])[C:7]1([H:16])[H:17]>>[C:1]1([H:8])([H:9])[C:2]([H:10])([H:11])[O:3][C:4]([H:12])=[C:5]([H:14])[C:6]([H:15])=[C:7]1[H:17].[H:13][H:16]"
C       -1.49465395      -0.21543131      -0.09507373
C       -0.69875200      -1.38922361       0.44241140
O        0.52998406      -1.60393029      -0.21697261
C        1.49586515      -0.63482325      -0.15870708
C        1.43630498       0.56043888       0.59965440
C        0.33740833       1.41214102       0.51841338
C       -0.74560492       1.08370423      -0.32469712
H       -2.30199105      -0.02256877       0.62154164
H       -1.98925108      -0.52124942      -1.02086709
H       -0.51230428      -1.27967847       1.51618061
H       -1.24869427      -2.31890795       0.29041501
H        2.43514643      -1.17731721      -0.04304365
H        1.09003535       0.06989325      -1.61850622
H        2.39527011       1.01069557       0.83210129
H        0.50563388       2.46042795       0.74171022
H        0.17853225       0.64683033      -1.55518236
H       -1.41292898       1.91899906      -0.52937811
17
Frame=8 idx=009812 GeodesicLength=0.6352943275394556 rxn_smarts="[C:1]1([H:8])([H:9])[C:2]([H:10])([H:11])[O:3][C:4]([H:12])([H:13])[C:5]([H:14])=[C:6]([H:15])[C:7]1([H:16])[H:17]>>[C:1]1([H:8])([H:9])[C:2]([H:10])([H:11])[O:3][C:4]([H:12])=[C:5]([H:14])[C:6]([H:15])=[C:7]1[H:17].[H:13][H:16]"
C       -1.49380395      -0.21149468      -0.08098417
C       -0.69927764      -1.39721885       0.43253926
O        0.53210248      -1.60034713      -0.22357307
C        1.49953826      -0.63178749      -0.15657137
C        1.43418550       0.56591590       0.60212356
C        0.33400956       1.41717949       0.51604602
C       -0.74578993       1.08385905      -0.33310005
H       -2.28098919      -0.01427462       0.65637426
H       -2.01627967      -0.51094005      -0.99377436
H       -0.51862809      -1.31571035       1.50984503
H       -1.24857634      -2.32292483       0.25504490
H        2.42703986      -1.18371772       0.00714098
H        1.11695513       0.06197646      -1.63865333
H        2.39261502       1.02300193       0.82416059
H        0.50441257       2.46779894       0.72667937
H        0.17848712       0.65025694      -1.57143059
H       -1.41600068       1.91842702      -0.53186703
17
Frame=9 idx=009812 GeodesicLength=0.7153218386463223 rxn_smarts="[C:1]1([H:8])([H:9])[C:2]([H:10])([H:11])[O:3][C:4]([H:12])([H:13])[C:5]([H:14])=[C:6]([H:15])[C:7]1([H:16])[H:17]>>[C:1]1([H:8])([H:9])[C:2]([H:10])([H:11])[O:3][C:4]([H:12])=[C:5]([H:14])[C:6]([H:15])=[C:7]1[H:17].[H:13][H:16]"
C       -1.49266634      -0.20762403      -0.06655369
C       -0.69987151      -1.40519290       0.42243524
O        0.53426244      -1.59669107      -0.23001501
C        1.50327791      -0.62877349      -0.15407292
C        1.43196589       0.57157866       0.60459312
C        0.33061638       1.42247595       0.51334093
C       -0.74614807       1.08383078      -0.34138593
H       -2.25871399      -0.00631899       0.69145626
H       -2.04320448      -0.50041088      -0.96522520
H       -0.52530761      -1.35249095       1.50257562
H       -1.24856448      -2.32604919       0.21893432
H        2.41719487      -1.18921568       0.05715977
H        1.14553715       0.05311389      -1.65863298
H        2.38979159       1.03517555       0.81651636
H        0.50319490       2.47531684       0.71105566
H        0.17796961       0.65373104      -1.58785583
H       -1.41933428       1.91754446      -0.53432571
17
Frame=10 idx=009812 GeodesicLength=0.7954247384515084 rxn_smarts="[C:1]1([H:8])([H:9])[C:2]([H:10])([H:11])[O:3][C:4]([H:12])([H:13])[C:5]([H:14])=[C:6]([H:15])[C:7]1([H:16])[H:17]>>[C:1]1([H:8])([H:9])[C:2]([H:10])([H:11])[O:3][C:4]([H:12])=[C:5]([H:14])[C:6]([H:15])=[C:7]1[H:17].[H:13][H:16]"
C       -1.49122427      -0.20383502      -0.05179081
C       -0.70057228      -1.41313396       0.41212288
O        0.53648902      -1.59297911      -0.23613963
C        1.50706058      -0.62576987      -0.15111966
C        1.42960196       0.57743570       0.60717565
C        0.32720868       1.42804205       0.51032836
C       -0.74667656       1.08358763      -0.34957958
H       -2.23504000       0.00131654       0.72680645
H       -2.06995616      -0.48966949      -0.93517042
H       -0.53246812      -1.39002834       1.49435052
H       -1.24866050      -2.32821216       0.18201175
H        2.40555912      -1.19366499       0.10647237
H        1.17573923       0.04320349      -1.67827551
H        2.38675210       1.04725035       0.80927005
H        0.50199153       2.48298510       0.69476744
H        0.17711332       0.65716563      -1.60441348
H       -1.42291765       1.91630646      -0.53681638
17
Frame=11 idx=009812 GeodesicLength=0.8755730123710896 rxn_smarts="[C:1]1([H:8])([H:9])[C:2]([H:10])([H:11])[O:3][C:4]([H:12])([H:13])[C:5]([H:14])=[C:6]([H:15])[C:7]1([H:16])[H:17]>>[C:1]1([H:8])([H:9])[C:2]([H:10])([H:11])[O:3][C:4]([H:12])=[C:5]([H:14])[C:6]([H:15])=[C:7]1[H:17].[H:13][H:16]"
C       -1.48948608      -0.20012823      -0.03668321
C       -0.70139973      -1.42103319       0.40158975
O        0.53876762      -1.58921591      -0.24192895
C        1.51085318      -0.62276969      -0.14769734
C        1.42708446       0.58350250       0.60985707
C        0.32377630       1.43388843       0.50699717
C       -0.74741013       1.08313128      -0.35764982
H       -2.20993396       0.00860446       0.76240424
H       -2.09648582      -0.47871565      -0.90356601
H       -0.54015634      -1.42830409       1.48510876
H       -1.24886249      -2.32935278       0.14425151
H        2.39223258      -1.19710012       0.15505719
H        1.20768408       0.03215521      -1.69754036
H        2.38350476       1.05924131       0.80239601
H        0.50079254       2.49080780       0.67778722
H        0.17583639       0.66057477      -1.62110163
H       -1.42679735       1.91471389      -0.53928160
17
Frame=12 idx=009812 GeodesicLength=0.9557665168536664 rxn_smarts="[C:1]1([H:8])([H:9])[C:2]([H:10])([H:11])[O:3][C:4]([H:12])([H:13])[C:5]([H:14])=[C:6]([H:15])[C:7]1([H:16])[H:17]>>[C:1]1([H:8])([H:9])[C:2]([H:10])([H:11])[O:3][C:4]([H:12])=[C:5]([H:14])[C:6]([H:15])=[C:7]1[H:17].[H:13][H:16]"
C       -1.48745400      -0.19650745      -0.02121048
C       -0.70237051      -1.42888211       0.39081123
O        0.54108756      -1.58539917      -0.24738028
C        1.51462720      -0.61976273      -0.14379215
C        1.42440394       0.58980211       0.61261655
C        0.32031159       1.44003020       0.50332893
C       -0.74839003       1.08246408      -0.36556411
H       -2.18334551       0.01550101       0.79824597
H       -2.12275390      -0.46754447      -0.87034005
H       -0.54842319      -1.46731730       1.47475855
H       -1.24916933      -2.32938850       0.10560915
H        2.37727691      -1.19955769       0.20293595
H        1.24153543       0.01985561      -1.71636100
H        2.38005687       1.07117693       0.79585561
H        0.49959770       2.49878720       0.66006393
H        0.17404038       0.66397912      -1.63792407
H       -1.43103111       1.91276315      -0.54165372
17
Frame=13 idx=009812 GeodesicLength=1.035954810678096 rxn_smarts="[C:1]1([H:8])([H:9])[C:2]([H:10])([H:11])[O:3][C:4]([H:12])([H:13])[C:5]([H:14])=[C:6]([H:15])[C:7]1([H:16])[H:17]>>[C:1]1([H:8])([H:9])[C:2]([H:10])([H:11])[O:3][C:4]([H:12])=[C:5]([H:14])[C:6]([H:15])=[C:7]1[H:17].[H:13][H:16]"
C       -1.48513595      -0.19297175      -0.00535192
C       -0.70350048      -1.43667122       0.37976692
O        0.54343337      -1.58153060      -0.25249116
C        1.51835469      -0.61673987      -0.13939909
C        1.42155271       0.59635278       0.61543174
C        0.31680751       1.44647773       0.49930739
C       -0.74965440       1.08159120      -0.37329047
H       -2.15523842       0.02196888       0.83431564
H       -2.14871116      -0.45615957      -0.83544048
H       -0.55731710      -1.50705715       1.46321485
H       -1.24957237      -2.32824421       0.06606503
H        2.36075552      -1.20105713       0.25011565
H        1.27745064       0.00618416      -1.73467012
H        2.37641631       1.08307927       0.78960645
H        0.49839699       2.50692450       0.64157513
H        0.17162802       0.66739608      -1.65488615
H       -1.43566586       1.91045689      -0.54386942
17
Frame=14 idx=009812 GeodesicLength=1.1161356678430698 rxn_smarts="[C:1]1([H:8])([H:9])[C:2]([H:10])([H:11])[O:3][C:4]([H:12])([H:13])[C:5]([H:14])=[C:6]([H:15])[C:7]1([H:16])[H:17]>>[C:1]1([H:8])([H:9])[C:2]([H:10])([H:11])[O:3][C:4]([H:12])=[C:5]([H:14])[C:6]([H:15])=[C:7]1[H:17].[H:13][H:16]"
C       -1.48253048      -0.18952682       0.01091870
C       -0.70480677      -1.44438858       0.36842479
O        0.54579016      -1.57760604      -0.25726801
C        1.52200793      -0.61369440      -0.13450247
C        1.41852698       0.60317977       0.61827057
C        0.31325654       1.45324352       0.49491214
C       -0.75124962       1.08051804      -0.38079018
H       -2.12555544       0.02794394       0.87059529
H       -2.17430555      -0.44456616      -0.79878393
H       -0.56689724      -1.54750888       1.45037032
H       -1.25007747      -2.32581510       0.02558065
H        2.34271073      -1.20161565       0.29661913
H        1.31564696      -0.00900842      -1.75237158
H        2.37259294       1.09498075       0.78359257
H        0.49718407       2.51521585       0.62227297
H        0.16847241       0.67085232      -1.67199540
H       -1.44076615       1.90779584      -0.54584555
17
Frame=15 idx=009812 GeodesicLength=1.1962631127319723 rxn_smarts="[C:1]1([H:8])([H:9])[C:2]([H:10])([H:11])[O:3][C:4]([H:12])([H:13])[C:5]([H:14])=[C:6]([H:15])[C:7]1([H:16])[H:17]>>[C:1]1([H:8])([H:9])[C:2]([H:10])([H:11])[O:3][C:4]([H:12])=[C:5]([H:14])[C:6]([H:15])=[C:7]1[H:17].[H:13][H:16]"
C       -1.47963875      -0.18617495       0.02762607
C       -0.70630503      -1.45202315       0.35675300
O        0.54814131      -1.57362172      -0.26172129
C        1.52556044      -0.61061916      -0.12909314
C        1.41532025       0.61030654       0.62109985
C        0.30964900       1.46033796       0.49012298
C       -0.75322157       1.07925193      -0.38802775
H       -2.09424314       0.03337347       0.90706530
H       -2.19948132      -0.43277871      -0.76028012
H       -0.57722076      -1.58865915       1.43610767
H       -1.25068573      -2.32199698      -0.01586862
H        2.32318067      -1.20124401       0.34246293
H        1.35634975      -0.02587601      -1.76935799
H        2.36859164       1.10691136       0.77775509
H        0.49594537       2.52365959       0.60212246
H        0.16444778       0.67437025      -1.68926242
H       -1.44638991       1.90478273      -0.54750403
17
Frame=16 idx=009812 GeodesicLength=1.2762885911472526 rxn_smarts="[C:1]1([H:8])([H:9])[C:2]([H:10])([H:11])[O:3][C:4]([H:12])([H:13])[C:5]([H:14])=[C:6]([H:15])[C:7]1([H:16])[H:17]>>[C:1]1([H:8])([H:9])[C:2]([H:10])([H:11])[O:3][C:4]([H:12])=[C:5]([H:14])[C:6]([H:15])=[C:7]1[H:17].[H:13][H:16]"
C       -1.47645717      -0.18291902       0.04480665
C       -0.70801099      -1.45955994       0.34471309
O        0.55047012      -1.56957131      -0.26586581
C        1.52898775      -0.60750727      -0.12315974
C        1.41192906       0.61776034       0.62388090
C        0.30597466       1.46777417       0.48491770
C       -0.75561938       1.07780123      -0.39496571
H       -2.06123837       0.03818528       0.94370384
H       -2.22417915      -0.42081407      -0.71982663
H       -0.58834643      -1.63049422       1.42029438
H       -1.25139966      -2.31666689      -0.05831849
H        2.30218132      -1.19994515       0.38767628
H        1.39980609      -0.04459506      -1.78550314
H        2.36442061       1.11890456       0.77202383
H        0.49466580       2.53225453       0.58108045
H        0.15941551       0.67797213      -1.70669785
H       -1.45259979       1.90142069      -0.54875975
