14
Frame=0 idx=001385 GeodesicLength=0.0 rxn_smarts="[C:1]([C:2](=[O:3])[C:4]1([H:10])[C:5]([H:11])([H:12])[C:6]1([H:13])[H:14])([H:7])([H:8])[H:9]>>[C:1]([O+:3]=[C-:2][C:4]1([H:10])[C:5]([H:11])([H:12])[C:6]1([H:13])[H:14])([H:7])([H:8])[H:9]"
C       -2.05872483       0.25905474       0.64070035
C       -0.90379855       0.08312422      -0.73978947
O       -0.91846923       1.25073722      -0.17003379
C        0.40366816      -0.62034339      -0.65005307
C        1.64073463       0.23046744      -0.83456819
C        1.35162707      -0.34357718       0.49859724
H       -3.01487748       0.40477808       0.16245330
H       -1.86833517      -0.78338614       0.91405176
H       -1.90573527       0.86355134       1.53967988
H        0.42250009      -1.61145037      -1.08389010
H        1.46655855       1.29158036      -0.96611795
H        2.44335599      -0.18791991      -1.42606770
H        1.94819031      -1.17319685       0.85333919
H        0.99330573       0.33658041       1.26169855
14
Frame=1 idx=001385 GeodesicLength=0.047376157760294996 rxn_smarts="[C:1]([C:2](=[O:3])[C:4]1([H:10])[C:5]([H:11])([H:12])[C:6]1([H:13])[H:14])([H:7])([H:8])[H:9]>>[C:1]([O+:3]=[C-:2][C:4]1([H:10])[C:5]([H:11])([H:12])[C:6]1([H:13])[H:14])([H:7])([H:8])[H:9]"
C       -2.07023600       0.26074181       0.64070092
C       -0.89676313       0.09418824      -0.72531486
O       -0.90576327       1.25315516      -0.14555084
C        0.40686794      -0.61592256      -0.64892927
C        1.64697390       0.22952951      -0.83943928
C        1.36619932      -0.35012887       0.49295124
H       -3.01837009       0.36869835       0.13543097
H       -1.87029212      -0.76941647       0.95054508
H       -1.97067485       0.89148890       1.52867931
H        0.41514936      -1.60586085      -1.08558026
H        1.47793210       1.29231849      -0.96341899
H        2.44167585      -0.19029761      -1.44057954
H        1.96192057      -1.18459103       0.83760554
H        1.01538041       0.32609693       1.26289998
14
Frame=2 idx=001385 GeodesicLength=0.09431084102101614 rxn_smarts="[C:1]([C:2](=[O:3])[C:4]1([H:10])[C:5]([H:11])([H:12])[C:6]1([H:13])[H:14])([H:7])([H:8])[H:9]>>[C:1]([O+:3]=[C-:2][C:4]1([H:10])[C:5]([H:11])([H:12])[C:6]1([H:13])[H:14])([H:7])([H:8])[H:9]"
C       -2.08188153       0.26251655       0.64073829
C       -0.88949859       0.10563664      -0.71012795
O       -0.89273038       1.25531009      -0.11933600
C        0.40998620      -0.61137188      -0.64743780
C        1.65303909       0.22868939      -0.84433877
C        1.38111078      -0.35700376       0.48713124
H       -3.02002935       0.33095518       0.10891474
H       -1.87328301      -0.75359840       0.98830136
H       -2.03718574       0.91932107       1.51377834
H        0.40744568      -1.59993685      -1.08710892
H        1.48924911       1.29314356      -0.96035137
H        2.43942841      -0.19236806      -1.45552780
H        1.97593847      -1.19641466       0.82116008
H        1.03841086       0.31512112       1.26420455
14
Frame=3 idx=001385 GeodesicLength=0.14058982455830318 rxn_smarts="[C:1]([C:2](=[O:3])[C:4]1([H:10])[C:5]([H:11])([H:12])[C:6]1([H:13])[H:14])([H:7])([H:8])[H:9]>>[C:1]([O+:3]=[C-:2][C:4]1([H:10])[C:5]([H:11])([H:12])[C:6]1([H:13])[H:14])([H:7])([H:8])[H:9]"
C       -2.09352160       0.26435769       0.64079879
C       -0.88208993       0.11742781      -0.69433908
O       -0.87943483       1.25712378      -0.09158136
C        0.41295682      -0.60666646      -0.64564003
C        1.65888183       0.22798925      -0.84917942
C        1.39619434      -0.36417254       0.48114270
H       -3.01977415       0.29157542       0.08335309
H       -1.87738246      -0.73583274       1.02720663
H       -2.10449333       0.94676461       1.49467474
H        0.39934300      -1.59363264      -1.08851287
H        1.50047148       1.29406598      -0.95685582
H        2.43662420      -0.19405132      -1.47069469
H        1.99002239      -1.20860860       0.80407630
H        1.06220224       0.30365976       1.26555102
14
Frame=4 idx=001385 GeodesicLength=0.1862495400315674 rxn_smarts="[C:1]([C:2](=[O:3])[C:4]1([H:10])[C:5]([H:11])([H:12])[C:6]1([H:13])[H:14])([H:7])([H:8])[H:9]>>[C:1]([O+:3]=[C-:2][C:4]1([H:10])[C:5]([H:11])([H:12])[C:6]1([H:13])[H:14])([H:7])([H:8])[H:9]"
C       -2.10515067       0.26627028       0.64092330
C       -0.87452033       0.12951378      -0.67796235
O       -0.86591996       1.25854654      -0.06229006
C        0.41579882      -0.60182887      -0.64353272
C        1.66447185       0.22746658      -0.85397934
C        1.41140145      -0.37161711       0.47500655
H       -3.01745651       0.25069000       0.05895815
H       -1.88296740      -0.71610829       1.06713089
H       -2.17215803       0.97363594       1.47125382
H        0.39091876      -1.58699100      -1.08978601
H        1.51153908       1.29513635      -0.95296619
H        2.43325344      -0.19529095      -1.48611437
H        2.00413443      -1.22114858       0.78638663
H        1.08665507       0.29172531       1.26697170
14
Frame=5 idx=001385 GeodesicLength=0.23125373393582171 rxn_smarts="[C:1]([C:2](=[O:3])[C:4]1([H:10])[C:5]([H:11])([H:12])[C:6]1([H:13])[H:14])([H:7])([H:8])[H:9]>>[C:1]([O+:3]=[C-:2][C:4]1([H:10])[C:5]([H:11])([H:12])[C:6]1([H:13])[H:14])([H:7])([H:8])[H:9]"
C       -2.11672541       0.26824998       0.64108334
C       -0.86683969       0.14186284      -0.66099959
O       -0.85224952       1.25946951      -0.03151521
C        0.41848646      -0.59684324      -0.64112305
C        1.66977474       0.22714334      -0.85867476
C        1.42666809      -0.37932768       0.46869513
H       -3.01303236       0.20834355       0.03603906
H       -1.89016170      -0.69426388       1.10797858
H       -2.23967363       0.99972442       1.44327083
H        0.38217014      -1.57996117      -1.09092691
H        1.52240098       1.29633841      -0.94860665
H        2.42930283      -0.19602327      -1.50167267
H        2.01821291      -1.23398824       0.76805521
H        1.11166615       0.27927543       1.26839668
14
Frame=6 idx=001385 GeodesicLength=0.2756208475102104 rxn_smarts="[C:1]([C:2](=[O:3])[C:4]1([H:10])[C:5]([H:11])([H:12])[C:6]1([H:13])[H:14])([H:7])([H:8])[H:9]>>[C:1]([O+:3]=[C-:2][C:4]1([H:10])[C:5]([H:11])([H:12])[C:6]1([H:13])[H:14])([H:7])([H:8])[H:9]"
C       -2.12820628       0.27028579       0.64128884
C       -0.85907904       0.15441498      -0.64348472
O       -0.83848347       1.25980766       0.00066011
C        0.42101022      -0.59171594      -0.63843855
C        1.67476486       0.22705325      -0.86323472
C        1.44192360      -0.38728696       0.46220687
H       -3.00643678       0.16462281       0.01488775
H       -1.89919120      -0.67021584       1.14962414
H       -2.30651757       1.02485395       1.41061210
H        0.37312685      -1.57254214      -1.09196715
H        1.53301430       1.29769176      -0.94374265
H        2.42477681      -0.19617964      -1.51731033
H        2.03218788      -1.24708492       0.74908963
H        1.13710985       0.26629523       1.26980869
14
Frame=7 idx=001385 GeodesicLength=0.3193878434626932 rxn_smarts="[C:1]([C:2](=[O:3])[C:4]1([H:10])[C:5]([H:11])([H:12])[C:6]1([H:13])[H:14])([H:7])([H:8])[H:9]>>[C:1]([O+:3]=[C-:2][C:4]1([H:10])[C:5]([H:11])([H:12])[C:6]1([H:13])[H:14])([H:7])([H:8])[H:9]"
C       -2.13949958       0.27234869       0.64158231
C       -0.85125768       0.16709611      -0.62552578
O       -0.82463629       1.25953780       0.03405420
C        0.42334711      -0.58646309      -0.63554620
C        1.67939777       0.22726727      -0.86764541
C        1.45703713      -0.39548273       0.45557848
H       -2.99756981       0.11957179      -0.00421132
H       -1.91030035      -0.64400125       1.19197571
H       -2.37203134       1.04891213       1.37324643
H        0.36380434      -1.56477602      -1.09297955
H        1.54334541       1.29929586      -0.93837819
H        2.41966726      -0.19565504      -1.53296734
H        2.04589459      -1.26043331       0.72957916
H        1.16280143       0.25278180       1.27123748
14
Frame=8 idx=001385 GeodesicLength=0.3625629908455972 rxn_smarts="[C:1]([C:2](=[O:3])[C:4]1([H:10])[C:5]([H:11])([H:12])[C:6]1([H:13])[H:14])([H:7])([H:8])[H:9]>>[C:1]([O+:3]=[C-:2][C:4]1([H:10])[C:5]([H:11])([H:12])[C:6]1([H:13])[H:14])([H:7])([H:8])[H:9]"
C       -2.15060483       0.27441992       0.64195024
C       -0.84342710       0.17982807      -0.60711386
O       -0.81081948       1.25852592       0.06858908
C        0.42550639      -0.58109541      -0.63244229
C        1.68366778       0.22778337      -0.87187215
C        1.47199438      -0.40386331       0.44878147
H       -2.98648929       0.07350890      -0.02096532
H       -1.92374509      -0.61555839       1.23473506
H       -2.43570853       1.07159359       1.33122466
H        0.35426463      -1.55665747      -1.09393265
H        1.55333162       1.30109974      -0.93249703
H        2.41401001      -0.19443066      -1.54856654
H        2.05935786      -1.27392034       0.70950479
H        1.18866164       0.23876607       1.27260456
14
Frame=9 idx=001385 GeodesicLength=0.40521857933536715 rxn_smarts="[C:1]([C:2](=[O:3])[C:4]1([H:10])[C:5]([H:11])([H:12])[C:6]1([H:13])[H:14])([H:7])([H:8])[H:9]>>[C:1]([O+:3]=[C-:2][C:4]1([H:10])[C:5]([H:11])([H:12])[C:6]1([H:13])[H:14])([H:7])([H:8])[H:9]"
C       -2.16148169       0.27647383       0.64242169
C       -0.83560608       0.19252977      -0.58829644
O       -0.79706842       1.25670803       0.10414090
C        0.42748708      -0.57563620      -0.62915651
C        1.68755322       0.22863986      -0.87591370
C        1.48673797      -0.41239342       0.44182838
H       -2.97319977       0.02664369      -0.03514750
H       -1.93979891      -0.58493235       1.27768435
H       -2.49701607       1.09271588       1.28465870
H        0.34454224      -1.54823179      -1.09483998
H        1.56293486       1.30314600      -0.92612432
H        2.40781051      -0.19244922      -1.56407603
H        2.07251954      -1.28749191       0.68891737
H        1.21458552       0.22427783       1.27390308
14
Frame=10 idx=001385 GeodesicLength=0.447391436218417 rxn_smarts="[C:1]([C:2](=[O:3])[C:4]1([H:10])[C:5]([H:11])([H:12])[C:6]1([H:13])[H:14])([H:7])([H:8])[H:9]>>[C:1]([O+:3]=[C-:2][C:4]1([H:10])[C:5]([H:11])([H:12])[C:6]1([H:13])[H:14])([H:7])([H:8])[H:9]"
C       -2.17214837       0.27850311       0.64299694
C       -0.82784012       0.20508994      -0.56903623
O       -0.78349765       1.25393090       0.14062335
C        0.42932422      -0.57010707      -0.62566462
C        1.69104121       0.22981435      -0.87974112
C        1.50130072      -0.42101326       0.43467619
H       -2.95782470      -0.02057466      -0.04655363
H       -1.95875690      -0.55212588       1.32043879
H       -2.55551370       1.11199331       1.23376825
H        0.33474450      -1.53949705      -1.09563068
H        1.57205350       1.30534877      -0.91925750
H        2.40108904      -0.18971298      -1.57942197
H        2.08548617      -1.30100803       0.66777944
H        1.24054209       0.20935854       1.27502280
14
Frame=11 idx=001385 GeodesicLength=0.4891582248191617 rxn_smarts="[C:1]([C:2](=[O:3])[C:4]1([H:10])[C:5]([H:11])([H:12])[C:6]1([H:13])[H:14])([H:7])([H:8])[H:9]>>[C:1]([O+:3]=[C-:2][C:4]1([H:10])[C:5]([H:11])([H:12])[C:6]1([H:13])[H:14])([H:7])([H:8])[H:9]"
C       -2.18252304       0.28047227       0.64374300
C       -0.82009771       0.21739126      -0.54944804
O       -0.77006392       1.25017955       0.17781200
C        0.43101564      -0.56455595      -0.62202961
C        1.69411469       0.23138173      -0.88340902
C        1.51553918      -0.42967079       0.42739076
H       -2.94038787      -0.06790316      -0.05502064
H       -1.98089160      -0.51735335       1.36276209
H       -2.61056335       1.12927054       1.17890321
H        0.32490343      -1.53057543      -1.09633920
H        1.58070260       1.30783283      -0.91202550
H        2.39387021      -0.18613841      -1.59463018
H        2.09805114      -1.31442213       0.64626035
H        1.26633059       0.19409103       1.27603077
14
Frame=12 idx=001385 GeodesicLength=0.5305078807112201 rxn_smarts="[C:1]([C:2](=[O:3])[C:4]1([H:10])[C:5]([H:11])([H:12])[C:6]1([H:13])[H:14])([H:7])([H:8])[H:9]>>[C:1]([O+:3]=[C-:2][C:4]1([H:10])[C:5]([H:11])([H:12])[C:6]1([H:13])[H:14])([H:7])([H:8])[H:9]"
C       -2.19263327       0.28238858       0.64464961
C       -0.81249476       0.22932755      -0.52955165
O       -0.75688340       1.24540427       0.21555625
C        0.43256075      -0.55903089      -0.61827943
C        1.69677785       0.23333125      -0.88686565
C        1.52954033      -0.43833708       0.41995584
H       -2.92119971      -0.11499616      -0.06042788
H       -2.00625285      -0.48058610       1.40431819
H       -2.66186297       1.14435355       1.12038362
H        0.31504521      -1.52153938      -1.09699248
H        1.58881464       1.31058505      -0.90437727
H        2.38618529      -0.18173940      -1.60959367
H        2.11039060      -1.32767827       0.62435613
H        1.29201229       0.17851703       1.27686839
14
Frame=13 idx=001385 GeodesicLength=0.5719186085567793 rxn_smarts="[C:1]([C:2](=[O:3])[C:4]1([H:10])[C:5]([H:11])([H:12])[C:6]1([H:13])[H:14])([H:7])([H:8])[H:9]>>[C:1]([O+:3]=[C-:2][C:4]1([H:10])[C:5]([H:11])([H:12])[C:6]1([H:13])[H:14])([H:7])([H:8])[H:9]"
C       -2.20295063       0.28424773       0.64549707
C       -0.80472198       0.24072172      -0.50862456
O       -0.74369047       1.23890117       0.25494599
C        0.43415959      -0.55366880      -0.61371027
C        1.69895738       0.23551770      -0.89043935
C        1.54390342      -0.44661429       0.41226650
H       -2.90085597      -0.15983666      -0.06391290
H       -2.03669437      -0.44312969       1.44353249
H       -2.70897817       1.15684379       1.05934254
H        0.30525915      -1.51266345      -1.09624628
H        1.59613679       1.31329084      -0.89701005
H        2.37763000      -0.17676766      -1.62483640
H        2.12331585      -1.34006698       0.60194737
H        1.31852942       0.16322459       1.27724786
14
Frame=14 idx=001385 GeodesicLength=0.6128234454775442 rxn_smarts="[C:1]([C:2](=[O:3])[C:4]1([H:10])[C:5]([H:11])([H:12])[C:6]1([H:13])[H:14])([H:7])([H:8])[H:9]>>[C:1]([O+:3]=[C-:2][C:4]1([H:10])[C:5]([H:11])([H:12])[C:6]1([H:13])[H:14])([H:7])([H:8])[H:9]"
C       -2.21263593       0.28611699       0.64678333
C       -0.79722255       0.25155782      -0.48781814
O       -0.73093321       1.23157538       0.29386248
C        0.43556502      -0.54828744      -0.60954415
C        1.70077738       0.23821669      -0.89358452
C        1.55747283      -0.45512606       0.40442009
H       -2.87861580      -0.20550497      -0.06328093
H       -2.06932617      -0.40264859       1.48254413
H       -2.75199288       1.16722180       0.99458056
H        0.29563822      -1.50343771      -1.09641812
H        1.60305700       1.31640629      -0.88875924
H        2.36896835      -0.17063897      -1.63944670
H        2.13529651      -1.35260057       0.57914367
H        1.34395124       0.14714934       1.27751754
14
Frame=15 idx=001385 GeodesicLength=0.6536809235246238 rxn_smarts="[C:1]([C:2](=[O:3])[C:4]1([H:10])[C:5]([H:11])([H:12])[C:6]1([H:13])[H:14])([H:7])([H:8])[H:9]>>[C:1]([O+:3]=[C-:2][C:4]1([H:10])[C:5]([H:11])([H:12])[C:6]1([H:13])[H:14])([H:7])([H:8])[H:9]"
C       -2.22223376       0.28806050       0.64828321
C       -0.78982332       0.26170058      -0.46653312
O       -0.71837512       1.22291611       0.33333571
C        0.43692253      -0.54307757      -0.60521032
C        1.70220137       0.24134160      -0.89659906
C        1.57097041      -0.46359203       0.39638685
H       -2.85521352      -0.25032938      -0.05947280
H       -2.10581362      -0.36007936       1.51995366
H       -2.79069191       1.17512292       0.92700623
H        0.28614777      -1.49428734      -1.09645459
H        1.60937970       1.31982486      -0.88019496
H        2.35981418      -0.16355945      -1.65396960
H        2.14730961      -1.36482970       0.55588465
H        1.36940566       0.13078827       1.27758414
14
Frame=16 idx=001385 GeodesicLength=0.694346323939647 rxn_smarts="[C:1]([C:2](=[O:3])[C:4]1([H:10])[C:5]([H:11])([H:12])[C:6]1([H:13])[H:14])([H:7])([H:8])[H:9]>>[C:1]([O+:3]=[C-:2][C:4]1([H:10])[C:5]([H:11])([H:12])[C:6]1([H:13])[H:14])([H:7])([H:8])[H:9]"
C       -2.23155501       0.29018478       0.65007113
C       -0.78256820       0.27115221      -0.44485920
O       -0.70623722       1.21283681       0.37301151
C        0.43824841      -0.53789886      -0.60092530
C        1.70319647       0.24484751      -0.89923788
C        1.58407630      -0.47217109       0.38796688
H       -2.83023022      -0.29498924      -0.05146297
H       -2.14542093      -0.31418546       1.55578258
H       -2.82521787       1.18021948       0.85623080
H        0.27700889      -1.48478742      -1.09678556
H        1.61503576       1.32332060      -0.87077933
H        2.35034609      -0.15541457      -1.66800020
H        2.15902821      -1.37683478       0.53178919
H        1.39428931       0.11372005       1.27719835
