21
Frame=0 idx=010823 GeodesicLength=0.0 rxn_smarts="[C:1]([C:2]([C@@:3]1([C:4]([H:13])([H:14])[H:15])[C:5]([H:16])([H:17])[C@:6]1([C:7]([H:19])([H:20])[H:21])[H:18])([H:11])[H:12])([H:8])([H:9])[H:10]>>[C:1](/[C:2](=[C:3]1/[C:5]([H:16])([H:17])[C@:6]1([C:7]([H:19])([H:20])[H:21])[H:18])[H:12])([H:8])([H:9])[H:10].[C:4]([H:11])([H:13])([H:14])[H:15]"
C        1.63510861      -1.27428907       0.97295320
C        1.17347364      -0.76275613      -0.36278859
C        0.08005380       0.12020027      -0.47963870
C        0.74732553       2.15974335      -0.50412129
C       -1.09862364       0.18723071      -1.36449140
C       -1.26206383       0.20348270       0.14770174
C       -1.79554789      -1.00298312       0.87608233
H        2.71062779      -1.46418811       0.98277828
H        1.42833491      -0.54631375       1.76341543
H        1.14096288      -2.20761896       1.26950992
H        1.21258840       0.69442254      -0.42637222
H        1.58020532      -1.17857097      -1.27650241
H        1.01707705       2.39365472      -1.53467514
H        1.57863488       2.37551365       0.17536438
H       -0.13630335       2.70931504      -0.18988938
H       -1.31136627       1.10167178      -1.89827480
H       -1.33448202      -0.72653696      -1.89819025
H       -1.55930522       1.15833769       0.55766705
H       -1.51186696      -0.98459814       1.93012853
H       -1.40900986      -1.92503816       0.43990160
H       -2.88582373      -1.03067917       0.81944162
21
Frame=1 idx=010823 GeodesicLength=0.09847335906689418 rxn_smarts="[C:1]([C:2]([C@@:3]1([C:4]([H:13])([H:14])[H:15])[C:5]([H:16])([H:17])[C@:6]1([C:7]([H:19])([H:20])[H:21])[H:18])([H:11])[H:12])([H:8])([H:9])[H:10]>>[C:1](/[C:2](=[C:3]1/[C:5]([H:16])([H:17])[C@:6]1([C:7]([H:19])([H:20])[H:21])[H:18])[H:12])([H:8])([H:9])[H:10].[C:4]([H:11])([H:13])([H:14])[H:15]"
C        1.64156769      -1.26560921       0.97128008
C        1.17046530      -0.76297508      -0.36497324
C        0.07741338       0.12133371      -0.47944016
C        0.75370251       2.16203048      -0.49835420
C       -1.10270407       0.18174620      -1.36428930
C       -1.26485279       0.19850801       0.14781243
C       -1.80118070      -1.00753910       0.87494914
H        2.71686759      -1.45737137       0.97188480
H        1.44366107      -0.53285609       1.75932560
H        1.14894354      -2.19628826       1.27741475
H        1.24453377       0.70054185      -0.44845990
H        1.54410064      -1.21489638      -1.27584341
H        1.05418368       2.41186711      -1.51669233
H        1.55832846       2.38159867       0.21123338
H       -0.13629015       2.71786074      -0.21304002
H       -1.31876912       1.09437972      -1.90028094
H       -1.34094917      -0.73224048      -1.89658778
H       -1.56112723       1.15356805       0.55892508
H       -1.51572025      -0.99234342       1.92858822
H       -1.42041498      -1.93041670       0.43535608
H       -2.89175917      -1.03089845       0.82119172
21
Frame=2 idx=010823 GeodesicLength=0.19667329120672994 rxn_smarts="[C:1]([C:2]([C@@:3]1([C:4]([H:13])([H:14])[H:15])[C:5]([H:16])([H:17])[C@:6]1([C:7]([H:19])([H:20])[H:21])[H:18])([H:11])[H:12])([H:8])([H:9])[H:10]>>[C:1](/[C:2](=[C:3]1/[C:5]([H:16])([H:17])[C@:6]1([C:7]([H:19])([H:20])[H:21])[H:18])[H:12])([H:8])([H:9])[H:10].[C:4]([H:11])([H:13])([H:14])[H:15]"
C        1.64793207      -1.25657663       0.96930719
C        1.16774820      -0.76245951      -0.36740846
C        0.07433078       0.12230984      -0.47935076
C        0.76054606       2.16376532      -0.49286627
C       -1.10718250       0.17619143      -1.36411731
C       -1.26798344       0.19346754       0.14790759
C       -1.80689494      -1.01222627       0.87387137
H        2.72294821      -1.45014380       0.96097425
H        1.45863086      -0.51926329       1.75496112
H        1.15696249      -2.18471031       1.28465771
H        1.27704923       0.70674713      -0.47077389
H        1.50812208      -1.24962753      -1.27336811
H        1.09170924       2.43016961      -1.49751695
H        1.53742984       2.38616951       0.24604700
H       -0.13479550       2.72582861      -0.23637775
H       -1.32666703       1.08702920      -1.90222232
H       -1.34769794      -0.73804116      -1.89501223
H       -1.56300352       1.14878786       0.56024360
H       -1.51965530      -1.00014943       1.92709066
H       -1.43177479      -1.93584045       0.43089115
H       -2.89775411      -1.03142766       0.82306241
21
Frame=3 idx=010823 GeodesicLength=0.29466994008687736 rxn_smarts="[C:1]([C:2]([C@@:3]1([C:4]([H:13])([H:14])[H:15])[C:5]([H:16])([H:17])[C@:6]1([C:7]([H:19])([H:20])[H:21])[H:18])([H:11])[H:12])([H:8])([H:9])[H:10]>>[C:1](/[C:2](=[C:3]1/[C:5]([H:16])([H:17])[C@:6]1([C:7]([H:19])([H:20])[H:21])[H:18])[H:12])([H:8])([H:9])[H:10].[C:4]([H:11])([H:13])([H:14])[H:15]"
C        1.65416506      -1.24723850       0.96702865
C        1.16532177      -0.76119125      -0.37010904
C        0.07078219       0.12312244      -0.47933518
C        0.76787350       2.16493888      -0.48771622
C       -1.11206902       0.17056174      -1.36395466
C       -1.27147776       0.18836369       0.14800795
C       -1.81270861      -1.01704655       0.87286771
H        2.72883988      -1.44255312       0.95006106
H        1.47319697      -0.50561397       1.75035488
H        1.16496897      -2.17294711       1.29118273
H        1.31026867       0.71308394      -0.49313626
H        1.47246551      -1.28259265      -1.26917409
H        1.12956498       2.44845553      -1.47718387
H        1.51599840       2.38938645       0.27965950
H       -0.13181858       2.73321358      -0.25991270
H       -1.33507067       1.07961010      -1.90408585
H       -1.35471993      -0.74394894      -1.89344374
H       -1.56495297       1.14399954       0.56163922
H       -1.52369347      -1.00801998       1.92565546
H       -1.44310764      -1.94131306       0.42652421
H       -2.90382726      -1.03227075       0.82507025
21
Frame=4 idx=010823 GeodesicLength=0.3925195050970581 rxn_smarts="[C:1]([C:2]([C@@:3]1([C:4]([H:13])([H:14])[H:15])[C:5]([H:16])([H:17])[C@:6]1([C:7]([H:19])([H:20])[H:21])[H:18])([H:11])[H:12])([H:8])([H:9])[H:10]>>[C:1](/[C:2](=[C:3]1/[C:5]([H:16])([H:17])[C@:6]1([C:7]([H:19])([H:20])[H:21])[H:18])[H:12])([H:8])([H:9])[H:10].[C:4]([H:11])([H:13])([H:14])[H:15]"
C        1.66023581      -1.23763637       0.96443572
C        1.16318352      -0.75915255      -0.37309134
C        0.06674241       0.12376480      -0.47935908
C        0.77570861       2.16554013      -0.48295591
C       -1.11737674       0.16485166      -1.36378066
C       -1.27535864       0.18320102       0.14813404
C       -1.81864059      -1.02199762       0.87196068
H        2.73451682      -1.43464373       0.93915349
H        1.48731782      -0.49198040       1.74553494
H        1.17291641      -2.16106012       1.29693535
H        1.34434476       0.71959464      -0.51537758
H        1.43732584      -1.31363762      -1.26339092
H        1.16767364       2.46660713      -1.45572940
H        1.49404783       2.39141273       0.31198302
H       -0.12735986       2.74000476      -0.28368084
H       -1.34398695       1.07211127      -1.90586071
H       -1.36201128      -0.74997514      -1.89186069
H       -1.56699200       1.13920910       0.56312807
H       -1.52785409      -1.01595217       1.92430465
H       -1.45443444      -1.94683491       0.42227833
H       -2.90999888      -1.03342662       0.82723883
21
Frame=5 idx=010823 GeodesicLength=0.4902012159420608 rxn_smarts="[C:1]([C:2]([C@@:3]1([C:4]([H:13])([H:14])[H:15])[C:5]([H:16])([H:17])[C@:6]1([C:7]([H:19])([H:20])[H:21])[H:18])([H:11])[H:12])([H:8])([H:9])[H:10]>>[C:1](/[C:2](=[C:3]1/[C:5]([H:16])([H:17])[C@:6]1([C:7]([H:19])([H:20])[H:21])[H:18])[H:12])([H:8])([H:9])[H:10].[C:4]([H:11])([H:13])([H:14])[H:15]"
C        1.66610416      -1.22782279       0.96152270
C        1.16132258      -0.75631830      -0.37636530
C        0.06218676       0.12422993      -0.47938071
C        0.78406519       2.16555424      -0.47863125
C       -1.12312006       0.15904941      -1.36356844
C       -1.27965170       0.17797983       0.14831239
C       -1.82471075      -1.02708122       0.87117688
H        2.73994768      -1.42646496       0.92826495
H        1.50094329      -0.47845700       1.74054129
H        1.18074997      -2.14911818       1.30185039
H        1.37941721       0.72631870      -0.53733814
H        1.40291163      -1.34256017      -1.25616146
H        1.20597698       2.48450938      -1.43316560
H        1.47164682       2.39245098       0.34288054
H       -0.12143504       2.74619388      -0.30773721
H       -1.35342186       1.06451609      -1.90753297
H       -1.36956498      -0.75613910      -1.89023506
H       -1.56914571       1.13441770       0.56472744
H       -1.53216024      -1.02394690       1.92306720
H       -1.46577389      -1.95241103       0.41818103
H       -2.91628803      -1.03490049       0.82959133
21
Frame=6 idx=010823 GeodesicLength=0.5878440957099881 rxn_smarts="[C:1]([C:2]([C@@:3]1([C:4]([H:13])([H:14])[H:15])[C:5]([H:16])([H:17])[C@:6]1([C:7]([H:19])([H:20])[H:21])[H:18])([H:11])[H:12])([H:8])([H:9])[H:10]>>[C:1](/[C:2](=[C:3]1/[C:5]([H:16])([H:17])[C@:6]1([C:7]([H:19])([H:20])[H:21])[H:18])[H:12])([H:8])([H:9])[H:10].[C:4]([H:11])([H:13])([H:14])[H:15]"
C        1.67173942      -1.21783977       0.95827411
C        1.15973830      -0.75264714      -0.37994264
C        0.05708373       0.12451257      -0.47935829
C        0.79298068       2.16496336      -0.47477613
C       -1.12931702       0.15315082      -1.36329208
C       -1.28438692       0.17270757       0.14856876
C       -1.83093980      -1.03229259       0.87054738
H        2.74511008      -1.41805901       0.91739314
H        1.51403279      -0.46512452       1.73540601
H        1.18842333      -2.13718815       1.30585189
H        1.41572214       0.73330375      -0.55881588
H        1.36940469      -1.36922369      -1.24765916
H        1.24441837       2.50204372      -1.40953444
H        1.44873075       2.39266868       0.37228127
H       -0.11405378       2.75175421      -0.33217415
H       -1.36337575       1.05681475      -1.90909024
H       -1.37738031      -0.76245209      -1.88853890
H       -1.57143531       1.12963483       0.56645848
H       -1.53663150      -1.03199580       1.92197380
H       -1.47714648      -1.95803883       0.41426568
H       -2.92271739      -1.03669267       0.83216138
21
Frame=7 idx=010823 GeodesicLength=0.6855266518965983 rxn_smarts="[C:1]([C:2]([C@@:3]1([C:4]([H:13])([H:14])[H:15])[C:5]([H:16])([H:17])[C@:6]1([C:7]([H:19])([H:20])[H:21])[H:18])([H:11])[H:12])([H:8])([H:9])[H:10]>>[C:1](/[C:2](=[C:3]1/[C:5]([H:16])([H:17])[C@:6]1([C:7]([H:19])([H:20])[H:21])[H:18])[H:12])([H:8])([H:9])[H:10].[C:4]([H:11])([H:13])([H:14])[H:15]"
C        1.67710210      -1.20773633       0.95467799
C        1.15843341      -0.74808074      -0.38383433
C        0.05140021       0.12461205      -0.47924238
C        0.80248098       2.16375673      -0.47142452
C       -1.13598673       0.14714907      -1.36292023
C       -1.28959775       0.16739075       0.14893347
C       -1.83734753      -1.03762838       0.87010819
H        2.74997328      -1.40946907       0.90654892
H        1.52652494      -0.45208658       1.73017740
H        1.19588163      -2.12535555       1.30884956
H        1.45350596       0.74060121      -0.57957933
H        1.33700500      -1.39346650      -1.23808991
H        1.28293360       2.51910652      -1.38487960
H        1.42526785       2.39224887       0.40004903
H       -0.10521651       2.75664503      -0.35708081
H       -1.37385321       1.04899141      -1.91051660
H       -1.38545130      -0.76893045      -1.88673748
H       -1.57388891       1.12486878       0.56834453
H       -1.54129116      -1.04008899       1.92106076
H       -1.48856669      -1.96371749       0.41057208
H       -2.92930918      -1.03881033       0.83498324
21
Frame=8 idx=010823 GeodesicLength=0.7832379041262464 rxn_smarts="[C:1]([C:2]([C@@:3]1([C:4]([H:13])([H:14])[H:15])[C:5]([H:16])([H:17])[C@:6]1([C:7]([H:19])([H:20])[H:21])[H:18])([H:11])[H:12])([H:8])([H:9])[H:10]>>[C:1](/[C:2](=[C:3]1/[C:5]([H:16])([H:17])[C@:6]1([C:7]([H:19])([H:20])[H:21])[H:18])[H:12])([H:8])([H:9])[H:10].[C:4]([H:11])([H:13])([H:14])[H:15]"
C        1.68214653      -1.19757172       0.95072297
C        1.15741018      -0.74255017      -0.38805087
C        0.04510026       0.12453036      -0.47898053
C        0.81258567       2.16191404      -0.46861505
C       -1.14315412       0.14103035      -1.36241707
C       -1.29532106       0.16203635       0.14944072
C       -1.84395376      -1.04308345       0.86990333
H        2.75450453      -1.40073595       0.89574684
H        1.53834225      -0.43946869       1.72492046
H        1.20306741      -2.11372776       1.31073370
H        1.49298992       0.74827242      -0.59937044
H        1.30594512      -1.41508754      -1.22770297
H        1.32147808       2.53559478      -1.35922305
H        1.40125665       2.39139814       0.42603098
H       -0.09492688       2.76081352      -0.38258602
H       -1.38486441       1.04102267      -1.91179602
H       -1.39377314      -0.77560118      -1.88478777
H       -1.57654168       1.12012885       0.57040568
H       -1.54616101      -1.04820978       1.92037281
H       -1.50004572      -1.96944458       0.40715133
H       -2.93608481      -1.04126064       0.83810099
21
Frame=9 idx=010823 GeodesicLength=0.8812252104816694 rxn_smarts="[C:1]([C:2]([C@@:3]1([C:4]([H:13])([H:14])[H:15])[C:5]([H:16])([H:17])[C@:6]1([C:7]([H:19])([H:20])[H:21])[H:18])([H:11])[H:12])([H:8])([H:9])[H:10]>>[C:1](/[C:2](=[C:3]1/[C:5]([H:16])([H:17])[C@:6]1([C:7]([H:19])([H:20])[H:21])[H:18])[H:12])([H:8])([H:9])[H:10].[C:4]([H:11])([H:13])([H:14])[H:15]"
C        1.68682263      -1.18742171       0.94630629
C        1.15668801      -0.73571684      -0.39251987
C        0.03811342       0.12426458      -0.47850083
C        0.82328224       2.15943695      -0.46644092
C       -1.15086370       0.13472289      -1.36174527
C       -1.30164051       0.15663932       0.15012786
C       -1.85077119      -1.04866912       0.87001305
H        2.75865491      -1.39194327       0.88489338
H        1.54938942      -0.42758309       1.71969587
H        1.20994022      -2.10243871       1.31111313
H        1.53455524       0.75654000      -0.61748915
H        1.27615316      -1.43379842      -1.21654506
H        1.36027252       2.55150468      -1.33262895
H        1.37685258       2.39033688       0.45010712
H       -0.08333548       2.76413513      -0.40913633
H       -1.39642843       1.03281512      -1.91295309
H       -1.40230874      -0.78257336      -1.88262349
H       -1.57950919       1.11542062       0.57262981
H       -1.55125952      -1.05632423       1.91999804
H       -1.51155318      -1.97523420       0.40411310
H       -2.94305440      -1.04411323       0.84158531
21
Frame=10 idx=010823 GeodesicLength=0.97909923052036 rxn_smarts="[C:1]([C:2]([C@@:3]1([C:4]([H:13])([H:14])[H:15])[C:5]([H:16])([H:17])[C@:6]1([C:7]([H:19])([H:20])[H:21])[H:18])([H:11])[H:12])([H:8])([H:9])[H:10]>>[C:1](/[C:2](=[C:3]1/[C:5]([H:16])([H:17])[C@:6]1([C:7]([H:19])([H:20])[H:21])[H:18])[H:12])([H:8])([H:9])[H:10].[C:4]([H:11])([H:13])([H:14])[H:15]"
C        1.69109068      -1.17735721       0.94146715
C        1.15625748      -0.72770473      -0.39730804
C        0.03044777       0.12382978      -0.47777241
C        0.83462818       2.15630916      -0.46493238
C       -1.15911529       0.12824817      -1.36086714
C       -1.30853776       0.15122824       0.15103029
C       -1.85780786      -1.05434434       0.87047399
H        2.76240568      -1.38311765       0.87406442
H        1.55959387      -0.41647346       1.71458132
H        1.21643442      -2.09161430       1.31003502
H        1.57828668       0.76534985      -0.63389279
H        1.24811043      -1.44945340      -1.20508971
H        1.39905128       2.56663720      -1.30511782
H        1.35176142       2.38926868       0.47220584
H       -0.07029540       2.76661753      -0.43672183
H       -1.40855085       1.02437903      -1.91394946
H       -1.41106929      -0.78982647      -1.88020164
H       -1.58274910       1.11077612       0.57505031
H       -1.55659041      -1.06439425       1.91996741
H       -1.52312141      -1.98105619       0.40149336
H       -2.95023048      -1.04730175       0.84548410
21
Frame=11 idx=010823 GeodesicLength=1.0767997180104412 rxn_smarts="[C:1]([C:2]([C@@:3]1([C:4]([H:13])([H:14])[H:15])[C:5]([H:16])([H:17])[C@:6]1([C:7]([H:19])([H:20])[H:21])[H:18])([H:11])[H:12])([H:8])([H:9])[H:10]>>[C:1](/[C:2](=[C:3]1/[C:5]([H:16])([H:17])[C@:6]1([C:7]([H:19])([H:20])[H:21])[H:18])[H:12])([H:8])([H:9])[H:10].[C:4]([H:11])([H:13])([H:14])[H:15]"
C        1.69490233      -1.16747787       0.93617512
C        1.15612300      -0.71839608      -0.40238607
C        0.02208558       0.12323844      -0.47673766
C        0.84665111       2.15254324      -0.46415374
C       -1.16791836       0.12158508      -1.35973827
C       -1.31603366       0.14581984       0.15219157
C       -1.86507090      -1.06008799       0.87135253
H        2.76572646      -1.37432156       0.86325183
H        1.56885423      -0.40637169       1.70966619
H        1.22250214      -2.08142734       1.30729127
H        1.62443435       0.77479692      -0.64809973
H        1.22202953      -1.46185433      -1.19365307
H        1.43776824       2.58092794      -1.27681586
H        1.32583710       2.38844677       0.49219205
H       -0.05579470       2.76818205      -0.46557644
H       -1.42123708       1.01567326      -1.91477122
H       -1.42003151      -0.79740121      -1.87745969
H       -1.58629089       1.10621910       0.57768529
H       -1.56216094      -1.07238074       1.92034933
H       -1.53475423      -1.98689755       0.39937372
H       -2.95762180      -1.05081629       0.84986285
21
Frame=12 idx=010823 GeodesicLength=1.1742404465479825 rxn_smarts="[C:1]([C:2]([C@@:3]1([C:4]([H:13])([H:14])[H:15])[C:5]([H:16])([H:17])[C@:6]1([C:7]([H:19])([H:20])[H:21])[H:18])([H:11])[H:12])([H:8])([H:9])[H:10]>>[C:1](/[C:2](=[C:3]1/[C:5]([H:16])([H:17])[C@:6]1([C:7]([H:19])([H:20])[H:21])[H:18])[H:12])([H:8])([H:9])[H:10].[C:4]([H:11])([H:13])([H:14])[H:15]"
C        1.69820413      -1.15788307       0.93041370
C        1.15629325      -0.70767511      -0.40774535
C        0.01301663       0.12251490      -0.47534005
C        0.85936193       2.14816600      -0.46415785
C       -1.17728023       0.11471789      -1.35831015
C       -1.32414069       0.14043099       0.15365872
C       -1.87255274      -1.06588019       0.87271197
H        2.76858078      -1.36562210       0.85246899
H        1.57706988      -0.39750046       1.70505872
H        1.22807753      -2.07204854       1.30269801
H        1.67322170       0.78497271      -0.65966484
H        1.19810897      -1.47081724      -1.18259328
H        1.47635600       2.59429333      -1.24783271
H        1.29897670       2.38811239       0.50994584
H       -0.03983671       2.76875853      -0.49595841
H       -1.43450151       1.00666210      -1.91539696
H       -1.42916762      -0.80533097      -1.87433227
H       -1.59016358       1.10177110       0.58055439
H       -1.56796854      -1.08024385       1.92121027
H       -1.54643395      -1.99274525       0.39782944
H       -2.96522192      -1.05465314       0.85478182
21
Frame=13 idx=010823 GeodesicLength=1.2713725861670349 rxn_smarts="[C:1]([C:2]([C@@:3]1([C:4]([H:13])([H:14])[H:15])[C:5]([H:16])([H:17])[C@:6]1([C:7]([H:19])([H:20])[H:21])[H:18])([H:11])[H:12])([H:8])([H:9])[H:10]>>[C:1](/[C:2](=[C:3]1/[C:5]([H:16])([H:17])[C@:6]1([C:7]([H:19])([H:20])[H:21])[H:18])[H:12])([H:8])([H:9])[H:10].[C:4]([H:11])([H:13])([H:14])[H:15]"
C        1.70094630      -1.14868357       0.92415272
C        1.15677753      -0.69541544      -0.41335270
C        0.00323681       0.12167943      -0.47352444
C        0.87277574       2.14320276      -0.46500581
C       -1.18720195       0.10762652      -1.35653428
C       -1.33286533       0.13507916       0.15547934
C       -1.88024678      -1.07169815       0.87462158
H        2.77093420      -1.35709694       0.84170657
H        1.58413024      -0.39012308       1.70086788
H        1.23310620      -2.06366866       1.29603011
H        1.72487324       0.79598157      -0.66803194
H        1.17653411      -1.47616188      -1.17225228
H        1.51473618       2.60670645      -1.21832068
H        1.27104635       2.38853324       0.52531248
H       -0.02240877       2.76826027      -0.52813947
H       -1.44835150       0.99730497      -1.91580793
H       -1.43844716      -0.81365502      -1.87075147
H       -1.59439163       1.09745541       0.58367490
H       -1.57400889      -1.08793967       1.92262249
H       -1.55814912      -1.99858689       0.39694518
H       -2.97302577      -1.05880048       0.86030778
21
Frame=14 idx=010823 GeodesicLength=1.3681720622627103 rxn_smarts="[C:1]([C:2]([C@@:3]1([C:4]([H:13])([H:14])[H:15])[C:5]([H:16])([H:17])[C@:6]1([C:7]([H:19])([H:20])[H:21])[H:18])([H:11])[H:12])([H:8])([H:9])[H:10]>>[C:1](/[C:2](=[C:3]1/[C:5]([H:16])([H:17])[C@:6]1([C:7]([H:19])([H:20])[H:21])[H:18])[H:12])([H:8])([H:9])[H:10].[C:4]([H:11])([H:13])([H:14])[H:15]"
C        1.70307649      -1.14000338       0.91737453
C        1.15758211      -0.68149112      -0.41918246
C       -0.00724948       0.12075944      -0.47123730
C        0.88690117       2.13769017      -0.46675734
C       -1.19768055       0.10029353      -1.35435814
C       -1.34220500       0.12978353       0.15770317
C       -1.88813852      -1.07751340       0.87715285
H        2.77275662      -1.34881665       0.83096857
H        1.58992088      -0.38451496       1.69723151
H        1.23753182      -2.05651220       1.28706862
H        1.77958173       0.80793984      -0.67260917
H        1.15748905      -1.47772852      -1.16303994
H        1.55280803       2.61817193      -1.18839416
H        1.24191786       2.38998955       0.53807137
H       -0.00348565       2.76656468      -0.56241242
H       -1.46279823       0.98755968      -1.91597835
H       -1.44783714      -0.82240779      -1.86664300
H       -1.59899693       1.09329638       0.58706471
H       -1.58027033      -1.09541862       1.92465885
H       -1.56988274      -2.00440410       0.39680687
H       -2.98102119      -1.06323800       0.86651123
21
Frame=15 idx=010823 GeodesicLength=1.4646594058577043 rxn_smarts="[C:1]([C:2]([C@@:3]1([C:4]([H:13])([H:14])[H:15])[C:5]([H:16])([H:17])[C@:6]1([C:7]([H:19])([H:20])[H:21])[H:18])([H:11])[H:12])([H:8])([H:9])[H:10]>>[C:1](/[C:2](=[C:3]1/[C:5]([H:16])([H:17])[C@:6]1([C:7]([H:19])([H:20])[H:21])[H:18])[H:12])([H:8])([H:9])[H:10].[C:4]([H:11])([H:13])([H:14])[H:15]"
C        1.70454491      -1.13197191       0.91005553
C        1.15871496      -0.66577714      -0.42519373
C       -0.01842662       0.11978070      -0.46843181
C        0.90174021       2.13167415      -0.46947396
C       -1.20870441       0.09270217      -1.35173186
C       -1.35214479       0.12456232       0.16037880
C       -1.89620614      -1.08329879       0.88037560
H        2.77401948      -1.34085983       0.82024329
H        1.59432661      -0.38097038       1.69428264
H        1.24130266      -2.05079963       1.27558271
H        1.83749950       0.82095788      -0.67274743
H        1.14111535      -1.47539183      -1.15533539
H        1.59044948       2.62875208      -1.15818968
H        1.21147580       2.39276220       0.54799243
H        0.01696607       2.76355423      -0.59908111
H       -1.47784760       0.97738842      -1.91588363
H       -1.45730132      -0.83162226      -1.86193556
H       -1.60399234       1.08931699       0.59074038
H       -1.58673243      -1.10263262       1.92739258
H       -1.58161205      -2.01018261       0.39749990
H       -2.98918734      -1.06794415       0.87346028
21
Frame=16 idx=010823 GeodesicLength=1.560941582556627 rxn_smarts="[C:1]([C:2]([C@@:3]1([C:4]([H:13])([H:14])[H:15])[C:5]([H:16])([H:17])[C@:6]1([C:7]([H:19])([H:20])[H:21])[H:18])([H:11])[H:12])([H:8])([H:9])[H:10]>>[C:1](/[C:2](=[C:3]1/[C:5]([H:16])([H:17])[C@:6]1([C:7]([H:19])([H:20])[H:21])[H:18])[H:12])([H:8])([H:9])[H:10].[C:4]([H:11])([H:13])([H:14])[H:15]"
C        1.70531076      -1.12473309       0.90216281
C        1.16017904      -0.64815134      -0.43134670
C       -0.03027146       0.11876884      -0.46507218
C        0.91729460       2.12521304      -0.47321809
C       -1.22025989       0.08483178      -1.34860744
C       -1.36266018       0.11943566       0.16355211
C       -1.90442118      -1.08901786       0.88436739
H        2.77469979      -1.33331488       0.80950723
H        1.59723619      -0.37981193       1.69215353
H        1.24438962      -2.04677711       1.26132320
H        1.89872673       0.83516599      -0.66770723
H        1.12753095      -1.46905387      -1.14953278
H        1.62754526       2.63858233      -1.12779841
H        1.17955177       2.39714417       0.55480000
H        0.03902095       2.75906783      -0.63850069
H       -1.49350533       0.96674532      -1.91550142
H       -1.46680836      -0.84133520      -1.85655280
H       -1.60938361       1.08554460       0.59471202
H       -1.59336336      -1.10952062       1.93090181
H       -1.59331534      -2.01590123       0.39912052
H       -2.99749696      -1.07288243       0.88123714
