14
Frame=0 idx=003589 GeodesicLength=0.0 rxn_smarts="[C:1]1([H:7])([H:8])[C:2]([H:9])([H:10])[C@@:3]2([H:11])[O:4][C:5]([H:12])([H:13])[C@@:6]12[H:14]>>[C:1]1([H:7])([H:8])[C:2]([H:9])([H:10])[C:3]([O+:4]=[C-:5][H:12])([H:11])[C:6]1([H:13])[H:14]"
C        1.06367887       0.66562080       0.08033788
C        0.88031031      -0.87390368       0.17383502
C       -0.46092062      -0.76066611      -0.60345076
O       -1.64982869      -0.97420522       0.10660024
C       -1.71955619       0.21488486       0.85433004
C       -0.31740765       0.77443030      -0.56024708
H        1.20896425       1.19995886       1.01850605
H        1.85574678       0.96705824      -0.60803297
H        0.75851215      -1.26882248       1.18118381
H        1.64229143      -1.45914850      -0.33805013
H       -0.49483671      -1.28034372      -1.56250282
H       -0.91528182       0.20385265       1.61119166
H       -1.36286809       1.17151641       0.07039251
H       -0.48880405       1.41976754      -1.42409342
14
Frame=1 idx=003589 GeodesicLength=0.05477839127018377 rxn_smarts="[C:1]1([H:7])([H:8])[C:2]([H:9])([H:10])[C@@:3]2([H:11])[O:4][C:5]([H:12])([H:13])[C@@:6]12[H:14]>>[C:1]1([H:7])([H:8])[C:2]([H:9])([H:10])[C:3]([O+:4]=[C-:5][H:12])([H:11])[C:6]1([H:13])[H:14]"
C        1.06676157       0.66421018       0.07774749
C        0.88337720      -0.87486514       0.17217868
C       -0.45669707      -0.75974214      -0.60329360
O       -1.64699940      -0.97842687       0.10838301
C       -1.72607178       0.20810606       0.85265756
C       -0.31890675       0.77520069      -0.55530208
H        1.21794029       1.19832086       1.01513997
H        1.85639004       0.96350161      -0.61418345
H        0.76222590      -1.26708658       1.18074182
H        1.64451322      -1.46206188      -0.33886074
H       -0.49205517      -1.27527957      -1.56428356
H       -0.93284071       0.20676789       1.62113625
H       -1.37308408       1.18553389       0.07167733
H       -0.48455326       1.41582101      -1.42373868
14
Frame=2 idx=003589 GeodesicLength=0.10955146583236688 rxn_smarts="[C:1]1([H:7])([H:8])[C:2]([H:9])([H:10])[C@@:3]2([H:11])[O:4][C:5]([H:12])([H:13])[C@@:6]12[H:14]>>[C:1]1([H:7])([H:8])[C:2]([H:9])([H:10])[C:3]([O+:4]=[C-:5][H:12])([H:11])[C:6]1([H:13])[H:14]"
C        1.06991738       0.66278010       0.07509794
C        0.88651772      -0.87584667       0.17050428
C       -0.45243156      -0.75882843      -0.60310574
O       -1.64409397      -0.98268029       0.11023718
C       -1.73257305       0.20133948       0.85089198
C       -0.32035996       0.77594266      -0.55027890
H        1.22702609       1.19666858       1.01166998
H        1.85703640       0.95992371      -0.62043866
H        0.76601730      -1.26532136       1.18029429
H        1.64677759      -1.46501528      -0.33970270
H       -0.48928189      -1.27021549      -1.56601423
H       -0.95090495       0.20965319       1.63106182
H       -1.38328301       1.19968710       0.07294517
H       -0.48036408       1.41191269      -1.42316241
14
Frame=3 idx=003589 GeodesicLength=0.16430504680322222 rxn_smarts="[C:1]1([H:7])([H:8])[C:2]([H:9])([H:10])[C@@:3]2([H:11])[O:4][C:5]([H:12])([H:13])[C@@:6]12[H:14]>>[C:1]1([H:7])([H:8])[C:2]([H:9])([H:10])[C:3]([O+:4]=[C-:5][H:12])([H:11])[C:6]1([H:13])[H:14]"
C        1.07314499       0.66133028       0.07238777
C        0.88972976      -0.87684654       0.16880901
C       -0.44812412      -0.75792466      -0.60288271
O       -1.64110873      -0.98696513       0.11216953
C       -1.73905397       0.19458114       0.84903563
C       -0.32176125       0.77665224      -0.54517747
H        1.23621442       1.19500032       1.00809133
H        1.85768452       0.95632992      -0.62679423
H        0.76988504      -1.26352957       1.17983449
H        1.64907934      -1.46800193      -0.34058050
H       -0.48652028      -1.26515346      -1.56768414
H       -0.96948406       0.21250691       1.64095969
H       -1.39345397       1.21397942       0.07419455
H       -0.47623169       1.40804103      -1.42236295
14
Frame=4 idx=003589 GeodesicLength=0.21904849397323645 rxn_smarts="[C:1]1([H:7])([H:8])[C:2]([H:9])([H:10])[C@@:3]2([H:11])[O:4][C:5]([H:12])([H:13])[C@@:6]12[H:14]>>[C:1]1([H:7])([H:8])[C:2]([H:9])([H:10])[C:3]([O+:4]=[C-:5][H:12])([H:11])[C:6]1([H:13])[H:14]"
C        1.07644807       0.65986046       0.06961809
C        0.89301903      -0.87786723       0.16709338
C       -0.44377505      -0.75703196      -0.60262467
O       -1.63804423      -0.99128052       0.11418343
C       -1.74551723       0.18783161       0.84709312
C       -0.32311113       0.77733026      -0.53999490
H        1.24551253       1.19331810       1.00440702
H        1.85833664       0.95271787      -0.63325196
H        0.77383893      -1.26171355       1.17936503
H        1.65142553      -1.47102725      -0.34149655
H       -0.48377295      -1.26009704      -1.56929667
H       -0.98859488       0.21532621       1.65082385
H       -1.40360065       1.22842330       0.07542443
H       -0.47216459       1.40420973      -1.42134360
14
Frame=5 idx=003589 GeodesicLength=0.2737784780543253 rxn_smarts="[C:1]1([H:7])([H:8])[C:2]([H:9])([H:10])[C@@:3]2([H:11])[O:4][C:5]([H:12])([H:13])[C@@:6]12[H:14]>>[C:1]1([H:7])([H:8])[C:2]([H:9])([H:10])[C:3]([O+:4]=[C-:5][H:12])([H:11])[C:6]1([H:13])[H:14]"
C        1.07982774       0.65837032       0.06678728
C        0.89638602      -0.87890819       0.16535686
C       -0.43938375      -0.75614983      -0.60232855
O       -1.63489712      -0.99562799       0.11628421
C       -1.75196167       0.18108612       0.84506651
C       -0.32440652       0.77797523      -0.53472715
H        1.25492439       1.19162149       1.00061263
H        1.85899129       0.94908732      -0.63981435
H        0.77788181      -1.25987370       1.17888423
H        1.65381465      -1.47408979      -0.34245240
H       -0.48104094      -1.25504454      -1.57084759
H       -1.00825489       0.21810866       1.66064549
H       -1.41371838       1.24302568       0.07663506
H       -0.46816265       1.40041921      -1.42010224
14
Frame=6 idx=003589 GeodesicLength=0.3284949396408501 rxn_smarts="[C:1]1([H:7])([H:8])[C:2]([H:9])([H:10])[C@@:3]2([H:11])[O:4][C:5]([H:12])([H:13])[C@@:6]12[H:14]>>[C:1]1([H:7])([H:8])[C:2]([H:9])([H:10])[C:3]([O+:4]=[C-:5][H:12])([H:11])[C:6]1([H:13])[H:14]"
C        1.08328566       0.65685956       0.06389432
C        0.89983258      -0.87996965       0.16359897
C       -0.43494977      -0.75527823      -0.60199194
O       -1.63166461      -1.00000853       0.11847713
C       -1.75838693       0.17434117       0.84295850
C       -0.32564517       0.77858619      -0.52937017
H        1.26445465       1.18991056       0.99670538
H        1.85964762       0.94543766      -0.64648375
H        0.78201855      -1.25801102       1.17839124
H        1.65624730      -1.47718971      -0.34345014
H       -0.47832581      -1.24999567      -1.57233427
H       -1.02848245       0.22085185       1.67041601
H       -1.42380413       1.25779540       0.07782649
H       -0.46422750       1.39667042      -1.41863778
14
Frame=7 idx=003589 GeodesicLength=0.38319787335643946 rxn_smarts="[C:1]1([H:7])([H:8])[C:2]([H:9])([H:10])[C@@:3]2([H:11])[O:4][C:5]([H:12])([H:13])[C@@:6]12[H:14]>>[C:1]1([H:7])([H:8])[C:2]([H:9])([H:10])[C:3]([O+:4]=[C-:5][H:12])([H:11])[C:6]1([H:13])[H:14]"
C        1.08682351       0.65532786       0.06093814
C        0.90336069      -0.88105187       0.16181923
C       -0.43047268      -0.75441720      -0.60161235
O       -1.62834380      -1.00442329       0.12076778
C       -1.76479253       0.16759311       0.84077188
C       -0.32682488       0.77916214      -0.52391965
H        1.27410816       1.18818534       0.99268243
H        1.86030459       0.94176822      -0.65326271
H        0.78625432      -1.25612652       1.17788521
H        1.65872412      -1.48032719      -0.34449201
H       -0.47562924      -1.24495004      -1.57375408
H       -1.04929684       0.22355354       1.68012587
H       -1.43385457       1.27274177       0.07899914
H       -0.46036085       1.39296414      -1.41694888
14
Frame=8 idx=003589 GeodesicLength=0.43788718366537754 rxn_smarts="[C:1]1([H:7])([H:8])[C:2]([H:9])([H:10])[C@@:3]2([H:11])[O:4][C:5]([H:12])([H:13])[C@@:6]12[H:14]>>[C:1]1([H:7])([H:8])[C:2]([H:9])([H:10])[C:3]([O+:4]=[C-:5][H:12])([H:11])[C:6]1([H:13])[H:14]"
C        1.09044291       0.65377491       0.05791777
C        0.90697244      -0.88215511       0.16001700
C       -0.42595208      -0.75356685      -0.60118708
O       -1.62493164      -1.00887323       0.12316230
C       -1.77117777       0.16083840       0.83850967
C       -0.32794341       0.77970201      -0.51837109
H        1.28388957       1.18644573       0.98854095
H        1.86096104       0.93807861      -0.66015354
H        0.79059464      -1.25422147       1.17736512
H        1.66124588      -1.48350221      -0.34558067
H       -0.47295326      -1.23990751      -1.57510404
H       -1.07071803       0.22621124       1.68976448
H       -1.44386599       1.28787457       0.08015333
H       -0.45656429       1.38930090      -1.41503420
14
Frame=9 idx=003589 GeodesicLength=0.492563062547878 rxn_smarts="[C:1]1([H:7])([H:8])[C:2]([H:9])([H:10])[C@@:3]2([H:11])[O:4][C:5]([H:12])([H:13])[C@@:6]12[H:14]>>[C:1]1([H:7])([H:8])[C:2]([H:9])([H:10])[C:3]([O+:4]=[C-:5][H:12])([H:11])[C:6]1([H:13])[H:14]"
C        1.09414542       0.65220038       0.05483225
C        0.91067010      -0.88327971       0.15819149
C       -0.42138757      -0.75272739      -0.60071335
O       -1.62142485      -1.01335939       0.12566732
C       -1.77754180       0.15407351       0.83617509
C       -0.32899853       0.78020465      -0.51271988
H        1.29380340       1.18469151       0.98427818
H        1.86161563       0.93436860      -0.66715855
H        0.79504546      -1.25229735       1.17682974
H        1.66381353      -1.48671468      -0.34671918
H       -0.47030012      -1.23486807      -1.57638108
H       -1.09276699       0.22882282       1.69932060
H       -1.45383438       1.30320415       0.08128961
H       -0.45283931       1.38568097      -1.41289225
14
Frame=10 idx=003589 GeodesicLength=0.5472316032483092 rxn_smarts="[C:1]1([H:7])([H:8])[C:2]([H:9])([H:10])[C@@:3]2([H:11])[O:4][C:5]([H:12])([H:13])[C@@:6]12[H:14]>>[C:1]1([H:7])([H:8])[C:2]([H:9])([H:10])[C:3]([O+:4]=[C-:5][H:12])([H:11])[C:6]1([H:13])[H:14]"
C        1.09793351       0.65060371       0.05168116
C        0.91445813      -0.88442722       0.15634165
C       -0.41677879      -0.75189993      -0.60018983
O       -1.61782095      -1.01788308       0.12828884
C       -1.78388606       0.14729626       0.83377211
C       -0.32998929       0.78066909      -0.50696166
H        1.30385541       1.18292300       0.97989359
H        1.86226817       0.93063723      -0.67428019
H        0.79961568      -1.25035656       1.17627895
H        1.66643140      -1.48996679      -0.34791181
H       -0.46767231      -1.22983316      -1.57758534
H       -1.11546723       0.23138938       1.70878540
H       -1.46375821       1.31874328       0.08240964
H       -0.44918946       1.38210479      -1.41052252
14
Frame=11 idx=003589 GeodesicLength=0.6018770084608881 rxn_smarts="[C:1]1([H:7])([H:8])[C:2]([H:9])([H:10])[C@@:3]2([H:11])[O:4][C:5]([H:12])([H:13])[C@@:6]12[H:14]>>[C:1]1([H:7])([H:8])[C:2]([H:9])([H:10])[C:3]([O+:4]=[C-:5][H:12])([H:11])[C:6]1([H:13])[H:14]"
C        1.10180704       0.64898532       0.04846283
C        0.91833472      -0.88559552       0.15446805
C       -0.41212571      -0.75108275      -0.59960933
O       -1.61411524      -1.02244361       0.13103715
C       -1.79020408       0.14050036       0.83130353
C       -0.33091133       0.78109451      -0.50108847
H        1.31404987       1.18113904       0.97537969
H        1.86291353       0.92688564      -0.68152133
H        0.80430691      -1.24839834       1.17571068
H        1.66909387      -1.49325459      -0.34915835
H       -0.46507300      -1.22479940      -1.57870624
H       -1.13883552       0.23389694       1.71813140
H       -1.47362688       1.33449990       0.08351113
H       -0.44561417       1.37857249      -1.40792073
14
Frame=12 idx=003589 GeodesicLength=0.6565106489654831 rxn_smarts="[C:1]1([H:7])([H:8])[C:2]([H:9])([H:10])[C@@:3]2([H:11])[O:4][C:5]([H:12])([H:13])[C@@:6]12[H:14]>>[C:1]1([H:7])([H:8])[C:2]([H:9])([H:10])[C:3]([O+:4]=[C-:5][H:12])([H:11])[C:6]1([H:13])[H:14]"
C        1.10576911       0.64734377       0.04517097
C        0.92230214      -0.88678428       0.15257027
C       -0.40742491      -0.75027587      -0.59896927
O       -1.61029940      -1.02704974       0.13391677
C       -1.79649994       0.13367504       0.82876771
C       -0.33176192       0.78147822      -0.49509202
H        1.32440083       1.17933906       0.97072407
H        1.86354699       0.92310816      -0.68889572
H        0.80912297      -1.24641854       1.17512456
H        1.67179942      -1.49657905      -0.35045926
H       -0.46249723      -1.21976019      -1.57974183
H       -1.16291329       0.23635180       1.72735351
H       -1.48343371       1.35048502       0.08460491
H       -0.44211107       1.37508661      -1.40507466
14
Frame=13 idx=003589 GeodesicLength=0.7111509643065291 rxn_smarts="[C:1]1([H:7])([H:8])[C:2]([H:9])([H:10])[C@@:3]2([H:11])[O:4][C:5]([H:12])([H:13])[C@@:6]12[H:14]>>[C:1]1([H:7])([H:8])[C:2]([H:9])([H:10])[C:3]([O+:4]=[C-:5][H:12])([H:11])[C:6]1([H:13])[H:14]"
C        1.10982560       0.64567861       0.04180827
C        0.92637172      -0.88799854       0.15064817
C       -0.40267728      -0.74948186      -0.59827123
O       -1.60637541      -1.03169955       0.13693411
C       -1.80278074       0.12682431       0.82617224
C       -0.33254418       0.78182212      -0.48896649
H        1.33492042       1.17752568       0.96593422
H        1.86417203       0.91930146      -0.69640613
H        0.81408395      -1.24442209       1.17452628
H        1.67456368      -1.49994999      -0.35182109
H       -0.45995095      -1.21472175      -1.58070108
H       -1.18772893       0.23875284       1.73644057
H       -1.49318588       1.36671996       0.08569166
H       -0.43869403       1.37164883      -1.40198949
14
Frame=14 idx=003589 GeodesicLength=0.765771331025918 rxn_smarts="[C:1]1([H:7])([H:8])[C:2]([H:9])([H:10])[C@@:3]2([H:11])[O:4][C:5]([H:12])([H:13])[C@@:6]12[H:14]>>[C:1]1([H:7])([H:8])[C:2]([H:9])([H:10])[C:3]([O+:4]=[C-:5][H:12])([H:11])[C:6]1([H:13])[H:14]"
C        1.11397332       0.64399059       0.03837060
C        0.93053635      -0.88923332       0.14870086
C       -0.39788206      -0.74869786      -0.59750410
O       -1.60233373      -1.03639382       0.14010255
C       -1.80903454       0.11993823       0.82351799
C       -0.33324938       0.78212294      -0.48270268
H        1.34560889       1.17569576       0.96099474
H        1.86477882       0.91546961      -0.70405457
H        0.81918597      -1.24240727       1.17390810
H        1.67737210      -1.50335615      -0.35324306
H       -0.45743732      -1.20967707      -1.58156382
H       -1.21330132       0.24108345       1.74535911
H       -1.50286273       1.38320965       0.08676937
H       -0.43535437       1.36825525      -1.39865509
14
Frame=15 idx=003589 GeodesicLength=0.8203866472569628 rxn_smarts="[C:1]1([H:7])([H:8])[C:2]([H:9])([H:10])[C@@:3]2([H:11])[O:4][C:5]([H:12])([H:13])[C@@:6]12[H:14]>>[C:1]1([H:7])([H:8])[C:2]([H:9])([H:10])[C:3]([O+:4]=[C-:5][H:12])([H:11])[C:6]1([H:13])[H:14]"
C        1.11821720       0.64227842       0.03485505
C        0.93480268      -0.89049045       0.14672818
C       -0.39303644      -0.74792495      -0.59666482
O       -1.59816601      -1.04114024       0.14343154
C       -1.81526681       0.11300886       0.82080340
C       -0.33387612       0.78237960      -0.47628927
H        1.35648356       1.17385028       0.95589839
H        1.86536425       0.91160662      -0.71185225
H        0.82444276      -1.24037412       1.17327133
H        1.68022788      -1.50680159      -0.35473111
H       -0.45495646      -1.20462327      -1.58232997
H       -1.23967998       0.24335109       1.75409344
H       -1.51245870       1.39997147       0.08784775
H       -0.43209782       1.36490826      -1.39506166
14
Frame=16 idx=003589 GeodesicLength=0.8750071577410065 rxn_smarts="[C:1]1([H:7])([H:8])[C:2]([H:9])([H:10])[C@@:3]2([H:11])[O:4][C:5]([H:12])([H:13])[C@@:6]12[H:14]>>[C:1]1([H:7])([H:8])[C:2]([H:9])([H:10])[C:3]([O+:4]=[C-:5][H:12])([H:11])[C:6]1([H:13])[H:14]"
C        1.12256133       0.64054150       0.03126060
C        0.93917808      -0.89177212       0.14472940
C       -0.38814051      -0.74716439      -0.59575160
O       -1.59387075      -1.04593804       0.14693015
C       -1.82148118       0.10603584       0.81803539
C       -0.33442443       0.78259165      -0.46971895
H        1.36755510       1.17198948       0.95064404
H        1.86592754       0.90771031      -0.71980520
H        0.82986818      -1.23832387       1.17261861
H        1.68314020      -1.51029063      -0.35628929
H       -0.45251237      -1.19956241      -1.58300095
H       -1.26689775       0.24554989       1.76262466
H       -1.52197232       1.41702473       0.08893082
H       -0.42893111       1.36160807      -1.39120769
