12
Frame=0 idx=000788 GeodesicLength=0.0 rxn_smarts="[N:1]([C:2](=[O:3])[C@@:4]1([H:9])[C:5]([H:10])([H:11])[N:6]1[H:12])([H:7])[H:8]>>[N:1]([C:2]([O-:3])=[C:4]([N+:6](=[C:5]([H:10])[H:11])[H:12])[H:9])([H:7])[H:8]"
N        1.89562658      -0.20568922      -0.02217558
C        1.09766610       0.79899480       0.46497679
O        1.55212923       1.85105528       0.87561852
C       -0.33402399       0.49651330       0.50382418
C       -1.73585467      -0.39066478      -0.71813383
N       -0.82557243      -0.75526586       0.19626287
H        2.86719574       0.01579152      -0.14861450
H        1.49769758      -0.92631472      -0.59542628
H       -1.00039512       1.24660702       0.89920398
H       -1.38798139       0.09189921      -1.61724747
H       -2.78979392      -0.64357177      -0.61766782
H       -0.83669367      -1.57935483       0.77937910
12
Frame=1 idx=000788 GeodesicLength=0.03212400094764235 rxn_smarts="[N:1]([C:2](=[O:3])[C@@:4]1([H:9])[C:5]([H:10])([H:11])[N:6]1[H:12])([H:7])[H:8]>>[N:1]([C:2]([O-:3])=[C:4]([N+:6](=[C:5]([H:10])[H:11])[H:12])[H:9])([H:7])[H:8]"
N        1.90040441      -0.21273813      -0.00546687
C        1.09420945       0.80242282       0.44731089
O        1.54241314       1.86444130       0.83846786
C       -0.33606631       0.49239088       0.48981366
C       -1.74343268      -0.37722808      -0.71551620
N       -0.81106339      -0.76329740       0.16872016
H        2.87694451       0.00216250      -0.10230440
H        1.51629268      -0.92895334      -0.59387462
H       -0.99809957       1.22708445       0.92036296
H       -1.42027090       0.11366149      -1.61950815
H       -2.79127141      -0.64505271      -0.59663543
H       -0.83005991      -1.57489378       0.76863014
12
Frame=2 idx=000788 GeodesicLength=0.06320417904406937 rxn_smarts="[N:1]([C:2](=[O:3])[C@@:4]1([H:9])[C:5]([H:10])([H:11])[N:6]1[H:12])([H:7])[H:8]>>[N:1]([C:2]([O-:3])=[C:4]([N+:6](=[C:5]([H:10])[H:11])[H:12])[H:9])([H:7])[H:8]"
N        1.90369616      -0.21908107       0.00936863
C        1.09068500       0.80510386       0.43104961
O        1.53381672       1.87510035       0.80562069
C       -0.33847463       0.48886978       0.47696834
C       -1.74950296      -0.36467508      -0.71271043
N       -0.79788675      -0.77037425       0.14342262
H        2.88383717      -0.00946093      -0.06041964
H        1.53287116      -0.93130590      -0.59269939
H       -0.99528275       1.20942959       0.93902742
H       -1.44910863       0.13259957      -1.62123146
H       -2.79121871      -0.64650125      -0.57755962
H       -0.82343177      -1.56970467       0.75916323
12
Frame=3 idx=000788 GeodesicLength=0.09327690189354595 rxn_smarts="[N:1]([C:2](=[O:3])[C@@:4]1([H:9])[C:5]([H:10])([H:11])[N:6]1[H:12])([H:7])[H:8]>>[N:1]([C:2]([O-:3])=[C:4]([N+:6](=[C:5]([H:10])[H:11])[H:12])[H:9])([H:7])[H:8]"
N        1.90535787      -0.22467219       0.02206195
C        1.08710318       0.80718626       0.41604669
O        1.52646705       1.88290648       0.77796085
C       -0.34120486       0.48611400       0.46519936
C       -1.75403304      -0.35316888      -0.70974672
N       -0.78594924      -0.77638112       0.12062012
H        2.88789593      -0.01936311      -0.02302525
H        1.54715565      -0.93309466      -0.59231920
H       -0.99196382       1.19378335       0.95501934
H       -1.47441193       0.14836274      -1.62267637
H       -2.78961892      -0.64805953      -0.56047582
H       -0.81679788      -1.56361334       0.75133506
12
Frame=4 idx=000788 GeodesicLength=0.12261469370925478 rxn_smarts="[N:1]([C:2](=[O:3])[C@@:4]1([H:9])[C:5]([H:10])([H:11])[N:6]1[H:12])([H:7])[H:8]>>[N:1]([C:2]([O-:3])=[C:4]([N+:6](=[C:5]([H:10])[H:11])[H:12])[H:9])([H:7])[H:8]"
N        1.90581924      -0.22972880       0.03269505
C        1.08351966       0.80876196       0.40268400
O        1.52031971       1.88824721       0.75611916
C       -0.34428058       0.48406407       0.45439498
C       -1.75707921      -0.34273905      -0.70682555
N       -0.77510059      -0.78169901       0.10042546
H        2.88990391      -0.02779273       0.00918080
H        1.55926508      -0.93425348      -0.59309997
H       -0.98881831       1.18053381       0.96820415
H       -1.49622337       0.16099445      -1.62425027
H       -2.78678540      -0.64971487      -0.54529519
H       -0.81054015      -1.55667356       0.74576739
12
Frame=5 idx=000788 GeodesicLength=0.1515169749376433 rxn_smarts="[N:1]([C:2](=[O:3])[C@@:4]1([H:9])[C:5]([H:10])([H:11])[N:6]1[H:12])([H:7])[H:8]>>[N:1]([C:2]([O-:3])=[C:4]([N+:6](=[C:5]([H:10])[H:11])[H:12])[H:9])([H:7])[H:8]"
N        1.90537104      -0.23442787       0.04186857
C        1.07993028       0.80986244       0.39077584
O        1.51488649       1.89203907       0.73774138
C       -0.34758370       0.48240790       0.44457500
C       -1.75899050      -0.33306653      -0.70395849
N       -0.76505787      -0.78652064       0.08224213
H        2.89040108      -0.03523897       0.03772979
H        1.56975801      -0.93489417      -0.59468323
H       -0.98579275       1.16894858       0.97957024
H       -1.51538693       0.17149891      -1.62583297
H       -2.78301616      -0.65130604      -0.53164335
H       -0.80451900      -1.54930268       0.74161510
12
Frame=6 idx=000788 GeodesicLength=0.18019554659741566 rxn_smarts="[N:1]([C:2](=[O:3])[C@@:4]1([H:9])[C:5]([H:10])([H:11])[N:6]1[H:12])([H:7])[H:8]>>[N:1]([C:2]([O-:3])=[C:4]([N+:6](=[C:5]([H:10])[H:11])[H:12])[H:9])([H:7])[H:8]"
N        1.90427930      -0.23890069       0.05013278
C        1.07632354       0.81057005       0.37995891
O        1.50988857       1.89502515       0.72105288
C       -0.35104834       0.48090530       0.43566818
C       -1.76008626      -0.32388538      -0.70111635
N       -0.75564087      -0.79100292       0.06545981
H        2.88978949      -0.04199984       0.06388689
H        1.57916414      -0.93529583      -0.59659100
H       -0.98282373       1.15841491       0.98984357
H       -1.53271508       0.18080176      -1.62724842
H       -2.77857007      -0.65276751      -0.51913938
H       -0.79856069      -1.54186501       0.73809214
12
Frame=7 idx=000788 GeodesicLength=0.20876643619146312 rxn_smarts="[N:1]([C:2](=[O:3])[C@@:4]1([H:9])[C:5]([H:10])([H:11])[N:6]1[H:12])([H:7])[H:8]>>[N:1]([C:2]([O-:3])=[C:4]([N+:6](=[C:5]([H:10])[H:11])[H:12])[H:9])([H:7])[H:8]"
N        1.90274159      -0.24323780       0.05784160
C        1.07268916       0.81096556       0.36994770
O        1.50510054       1.89765358       0.70494121
C       -0.35461984       0.47941457       0.42759321
C       -1.76060046      -0.31501488      -0.69827078
N       -0.74671806      -0.79523055       0.04964734
H        2.88835923      -0.04829162       0.08852392
H        1.58788268      -0.93564371      -0.59850860
H       -0.97984974       1.14853855       0.99946995
H       -1.54879107       0.18951530      -1.62836069
H       -2.77363221      -0.65408689      -0.50750073
H       -0.79256182      -1.53458210       0.73467586
12
Frame=8 idx=000788 GeodesicLength=0.237305833103815 rxn_smarts="[N:1]([C:2](=[O:3])[C@@:4]1([H:9])[C:5]([H:10])([H:11])[N:6]1[H:12])([H:7])[H:8]>>[N:1]([C:2]([O-:3])=[C:4]([N+:6](=[C:5]([H:10])[H:11])[H:12])[H:9])([H:7])[H:8]"
N        1.90088545      -0.24747059       0.06523791
C        1.06903034       0.81113681       0.36042064
O        1.50040968       1.90006044       0.68883471
C       -0.35824062       0.47787508       0.42019651
C       -1.76072671      -0.30634838      -0.69539452
N       -0.73818045      -0.79922419       0.03445626
H        2.88627383      -0.05422385       0.11231086
H        1.59620328      -0.93604760      -0.60020440
H       -0.97676883       1.13907098       1.00868149
H       -1.56412837       0.19800503      -1.62908208
H       -2.76834441      -0.65529880      -0.49646637
H       -0.78641321      -1.52753493       0.73100900
12
Frame=9 idx=000788 GeodesicLength=0.2657356643349355 rxn_smarts="[N:1]([C:2](=[O:3])[C@@:4]1([H:9])[C:5]([H:10])([H:11])[N:6]1[H:12])([H:7])[H:8]>>[N:1]([C:2]([O-:3])=[C:4]([N+:6](=[C:5]([H:10])[H:11])[H:12])[H:9])([H:7])[H:8]"
N        1.89861206      -0.25153861       0.07186832
C        1.06535797       0.81111902       0.35161802
O        1.49607598       1.90182087       0.67447029
C       -0.36197036       0.47649178       0.41339594
C       -1.76027395      -0.29813880      -0.69258646
N       -0.73006579      -0.80297720       0.02038341
H        2.88353900      -0.05975333       0.13418317
H        1.60371375      -0.93622475      -0.60225811
H       -0.97385886       1.13053236       1.01695861
H       -1.57814169       0.20549041      -1.62978401
H       -2.76261353      -0.65643855      -0.48624486
H       -0.78037459      -1.52038321       0.72799570
12
Frame=10 idx=000788 GeodesicLength=0.2941027602760458 rxn_smarts="[N:1]([C:2](=[O:3])[C@@:4]1([H:9])[C:5]([H:10])([H:11])[N:6]1[H:12])([H:7])[H:8]>>[N:1]([C:2]([O-:3])=[C:4]([N+:6](=[C:5]([H:10])[H:11])[H:12])[H:9])([H:7])[H:8]"
N        1.89603654      -0.25548418       0.07794233
C        1.06168126       0.81094003       0.34340829
O        1.49199007       1.90312190       0.66127855
C       -0.36577153       0.47519194       0.40711777
C       -1.75937688      -0.29027734      -0.68983842
N       -0.72229813      -0.80653664       0.00717697
H        2.88029593      -0.06494196       0.15458805
H        1.61064101      -0.93628140      -0.60448250
H       -0.97107600       1.12271860       1.02452376
H       -1.59116674       0.21227253      -1.63040260
H       -2.75656362      -0.65749752      -0.47666139
H       -0.77439190      -1.51322595       0.72534920
12
Frame=11 idx=000788 GeodesicLength=0.3224364590095017 rxn_smarts="[N:1]([C:2](=[O:3])[C@@:4]1([H:9])[C:5]([H:10])([H:11])[N:6]1[H:12])([H:7])[H:8]>>[N:1]([C:2]([O-:3])=[C:4]([N+:6](=[C:5]([H:10])[H:11])[H:12])[H:9])([H:7])[H:8]"
N        1.89323947      -0.25933588       0.08364452
C        1.05799983       0.81061823       0.33564335
O        1.48806401       1.90412955       0.64870629
C       -0.36961469       0.47391068       0.40131482
C       -1.75815015      -0.28267500      -0.68713136
N       -0.71481804      -0.80993086      -0.00539017
H        2.87664479      -0.06984366       0.17394892
H        1.61716220      -0.93630218      -0.60668741
H       -0.96835762       1.11542497       1.03159720
H       -1.60349309       0.21864481      -1.63086895
H       -2.75027097      -0.65847043      -0.46758509
H       -0.76840574      -1.50617022       0.72280788
12
Frame=12 idx=000788 GeodesicLength=0.35077026333587596 rxn_smarts="[N:1]([C:2](=[O:3])[C@@:4]1([H:9])[C:5]([H:10])([H:11])[N:6]1[H:12])([H:7])[H:8]>>[N:1]([C:2]([O-:3])=[C:4]([N+:6](=[C:5]([H:10])[H:11])[H:12])[H:9])([H:7])[H:8]"
N        1.89029060      -0.26311658       0.08912379
C        1.05431369       0.81019360       0.32815023
O        1.48422678       1.90500728       0.63630231
C       -0.37347500       0.47259855       0.39591983
C       -1.75670348      -0.27525686      -0.68443991
N       -0.70757309      -0.81317330      -0.01753871
H        2.87266034      -0.07452801       0.19270321
H        1.62345077      -0.93638850      -0.60872147
H       -0.96563961       1.10846409       1.03835130
H       -1.61540299       0.22486681      -1.63109907
H       -2.74380182      -0.65936706      -0.45886918
H       -0.76234619      -1.49930000       0.72011769
12
Frame=13 idx=000788 GeodesicLength=0.3791231140327971 rxn_smarts="[N:1]([C:2](=[O:3])[C@@:4]1([H:9])[C:5]([H:10])([H:11])[N:6]1[H:12])([H:7])[H:8]>>[N:1]([C:2]([O-:3])=[C:4]([N+:6](=[C:5]([H:10])[H:11])[H:12])[H:9])([H:7])[H:8]"
N        1.88724616      -0.26684394       0.09451285
C        1.05062427       0.80967627       0.32080612
O        1.48041600       1.90587056       0.62363589
C       -0.37733207       0.47121173       0.39089740
C       -1.75512220      -0.26795357      -0.68174051
N       -0.70052236      -0.81627629      -0.02945372
H        2.86839371      -0.07903061       0.21120547
H        1.62965209      -0.93660732      -0.61044725
H       -0.96286264       1.10168396       1.04494701
H       -1.62712274       0.23116876      -1.63102095
H       -2.73720773      -0.66019534      -0.45041642
H       -0.75616249      -1.49270422       0.71707411
12
Frame=14 idx=000788 GeodesicLength=0.4075234624216172 rxn_smarts="[N:1]([C:2](=[O:3])[C@@:4]1([H:9])[C:5]([H:10])([H:11])[N:6]1[H:12])([H:7])[H:8]>>[N:1]([C:2]([O-:3])=[C:4]([N+:6](=[C:5]([H:10])[H:11])[H:12])[H:9])([H:7])[H:8]"
N        1.88413511      -0.27051303       0.09990400
C        1.04693644       0.80910681       0.31344817
O        1.47661341       1.90676953       0.61049408
C       -0.38115656       0.46972824       0.38616704
C       -1.75348540      -0.26072606      -0.67900871
N       -0.69362803      -0.81922808      -0.04129856
H        2.86385370      -0.08339141       0.22977692
H        1.63587040      -0.93701597      -0.61175940
H       -0.95994703       1.09496401       1.05146027
H       -1.63888099       0.23768465      -1.63056811
H       -2.73052509      -0.66098153      -0.44210955
H       -0.74978596      -1.48639716       0.71349384
12
Frame=15 idx=000788 GeodesicLength=0.43591852413708315 rxn_smarts="[N:1]([C:2](=[O:3])[C@@:4]1([H:9])[C:5]([H:10])([H:11])[N:6]1[H:12])([H:7])[H:8]>>[N:1]([C:2]([O-:3])=[C:4]([N+:6](=[C:5]([H:10])[H:11])[H:12])[H:9])([H:7])[H:8]"
N        1.88091549      -0.27411885       0.10506129
C        1.04326184       0.80845555       0.30633539
O        1.47292496       1.90748687       0.59770997
C       -0.38498938       0.46824996       0.38174086
C       -1.75166811      -0.25368392      -0.67630471
N       -0.68692032      -0.82204704      -0.05276037
H        2.85905745      -0.08756676       0.24774715
H        1.64187903      -0.93743450      -0.61300583
H       -0.95707212       1.08861297       1.05763541
H       -1.65028010       0.24400715      -1.62994719
H       -2.72370576      -0.66175086      -0.43412672
H       -0.74340298      -1.48021057       0.70991477
12
Frame=16 idx=000788 GeodesicLength=0.4642896864535805 rxn_smarts="[N:1]([C:2](=[O:3])[C@@:4]1([H:9])[C:5]([H:10])([H:11])[N:6]1[H:12])([H:7])[H:8]>>[N:1]([C:2]([O-:3])=[C:4]([N+:6](=[C:5]([H:10])[H:11])[H:12])[H:9])([H:7])[H:8]"
N        1.87753981      -0.27765418       0.10983672
C        1.03960001       0.80770692       0.29965239
O        1.46941484       1.90789188       0.58579006
C       -0.38884346       0.46682645       0.37762852
C       -1.74958159      -0.24690052      -0.67367195
N       -0.68041215      -0.82474179      -0.06362712
H        2.85401081      -0.09156192       0.26470946
H        1.64749374      -0.93770618      -0.61443552
H       -0.95432897       1.08279380       1.06332451
H       -1.66105956       0.24984447      -1.62928883
H       -2.71670571      -0.66251302      -0.42659268
H       -0.73712776      -1.47398591       0.70667445
