15
Frame=0 idx=002544 GeodesicLength=0.0 rxn_smarts="[C:1]([C:2]([N:3]([C:4](=[O:5])[C:6]([H:13])([H:14])[H:15])[H:12])([H:10])[H:11])([H:7])([H:8])[H:9]>>[C:1]([C:2]([N:3]([C:4]([O:5][H:15])=[C:6]([H:13])[H:14])[H:12])([H:10])[H:11])([H:7])([H:8])[H:9]"
C       -2.24344311       0.60310541      -0.08238147
C       -1.18425731      -0.46553692      -0.28888442
N        0.14088630       0.11810973      -0.41174699
C        1.23121285      -0.35984172       0.16987285
O        1.21020257      -1.48208829       0.81185952
C        2.53621265       0.22204581       0.31665604
H       -3.23018942       0.14482763      -0.00714922
H       -2.26986241       1.30456233      -0.92007199
H       -2.05609591       1.16776616       0.83206104
H       -1.14563674      -1.15453347       0.55464243
H       -1.40891023      -1.06089407      -1.17852924
H        0.25312645       0.94130045      -0.97733133
H        2.64412890       1.30318781       0.29754525
H        3.26585344      -0.29059261      -0.30862656
H        2.25677191      -0.99141831       1.19208414
15
Frame=1 idx=002544 GeodesicLength=0.05069125809560415 rxn_smarts="[C:1]([C:2]([N:3]([C:4](=[O:5])[C:6]([H:13])([H:14])[H:15])[H:12])([H:10])[H:11])([H:7])([H:8])[H:9]>>[C:1]([C:2]([N:3]([C:4]([O:5][H:15])=[C:6]([H:13])[H:14])[H:12])([H:10])[H:11])([H:7])([H:8])[H:9]"
C       -2.22853079       0.60188572      -0.06161728
C       -1.18554623      -0.47269367      -0.31716292
N        0.14418837       0.09727325      -0.44719743
C        1.22793668      -0.36878128       0.15935939
O        1.19170019      -1.45476223       0.85965334
C        2.52451944       0.22873572       0.31433271
H       -3.21942805       0.15318747       0.01896726
H       -2.26269938       1.32643495      -0.87912545
H       -2.01632614       1.13769136       0.86471312
H       -1.15150925      -1.18980378       0.50258215
H       -1.42994129      -1.03666928      -1.22190438
H        0.26248127       0.91967675      -1.01268486
H        2.62168116       1.30940214       0.25611697
H        3.27408369      -0.30002857      -0.27247506
H        2.24739032      -0.95154856       1.23644243
15
Frame=2 idx=002544 GeodesicLength=0.10225971584353721 rxn_smarts="[C:1]([C:2]([N:3]([C:4](=[O:5])[C:6]([H:13])([H:14])[H:15])[H:12])([H:10])[H:11])([H:7])([H:8])[H:9]>>[C:1]([C:2]([N:3]([C:4]([O:5][H:15])=[C:6]([H:13])[H:14])[H:12])([H:10])[H:11])([H:7])([H:8])[H:9]"
C       -2.21291449       0.59898474      -0.04048976
C       -1.18671868      -0.47932991      -0.34585231
N        0.14765769       0.07710939      -0.48155104
C        1.22432367      -0.37783553       0.14951701
O        1.16966294      -1.42249752       0.90865868
C        2.51311856       0.23428376       0.31047286
H       -3.20779272       0.15951693       0.04432897
H       -2.25364377       1.34749380      -0.83588413
H       -1.97694955       1.10393445       0.89729204
H       -1.15729951      -1.22476037       0.44830466
H       -1.45022130      -1.00978304      -1.26528080
H        0.27185438       0.89937106      -1.04605178
H        2.60202594       1.31262384       0.21124213
H        3.28113158      -0.31101173      -0.23560184
H        2.23576525      -0.90809987       1.28089530
15
Frame=3 idx=002544 GeodesicLength=0.15416950943314414 rxn_smarts="[C:1]([C:2]([N:3]([C:4](=[O:5])[C:6]([H:13])([H:14])[H:15])[H:12])([H:10])[H:11])([H:7])([H:8])[H:9]>>[C:1]([C:2]([N:3]([C:4]([O:5][H:15])=[C:6]([H:13])[H:14])[H:12])([H:10])[H:11])([H:7])([H:8])[H:9]"
C       -2.19710010       0.59395690      -0.01930157
C       -1.18739552      -0.48505430      -0.37461475
N        0.15132170       0.05882163      -0.51375425
C        1.22000533      -0.38592297       0.14149626
O        1.14389490      -1.38475787       0.95803841
C        2.50243625       0.23808428       0.30513614
H       -3.19546506       0.16269199       0.06816947
H       -2.24304186       1.36695817      -0.79062111
H       -1.93954114       1.06657812       0.92954806
H       -1.16263738      -1.25852787       0.39229561
H       -1.46832766      -0.98038837      -1.30828127
H        0.28133794       0.88172041      -1.07597446
H        2.58680004       1.31173289       0.16198054
H        3.28598766      -0.32478507      -0.19911147
H        2.22172490      -0.86110794       1.32499438
15
Frame=4 idx=002544 GeodesicLength=0.20733982761782038 rxn_smarts="[C:1]([C:2]([N:3]([C:4](=[O:5])[C:6]([H:13])([H:14])[H:15])[H:12])([H:10])[H:11])([H:7])([H:8])[H:9]>>[C:1]([C:2]([N:3]([C:4]([O:5][H:15])=[C:6]([H:13])[H:14])[H:12])([H:10])[H:11])([H:7])([H:8])[H:9]"
C       -2.17979649       0.58809887       0.00209102
C       -1.18812935      -0.49045414      -0.40273087
N        0.15516497       0.03981819      -0.54628554
C        1.21534096      -0.39512077       0.13284874
O        1.11596786      -1.34505500       1.00326493
C        2.49075575       0.24159724       0.30024441
H       -3.18171026       0.16557973       0.09279792
H       -2.22991067       1.38464124      -0.74458639
H       -1.90055030       1.02832744       0.96033780
H       -1.16748519      -1.29016345       0.33678356
H       -1.48700163      -0.95046289      -1.34875925
H        0.29117155       0.86290136      -1.10671583
H        2.57112520       1.30882289       0.11440535
H        3.28977806      -0.33600686      -0.16059668
H        2.20527955      -0.81252384       1.36690083
15
Frame=5 idx=002544 GeodesicLength=0.2605564884119101 rxn_smarts="[C:1]([C:2]([N:3]([C:4](=[O:5])[C:6]([H:13])([H:14])[H:15])[H:12])([H:10])[H:11])([H:7])([H:8])[H:9]>>[C:1]([C:2]([N:3]([C:4]([O:5][H:15])=[C:6]([H:13])[H:14])[H:12])([H:10])[H:11])([H:7])([H:8])[H:9]"
C       -2.16269507       0.58148230       0.02244331
C       -1.18866511      -0.49496212      -0.42895749
N        0.15899312       0.02220593      -0.57651187
C        1.21046642      -0.40410992       0.12518418
O        1.08708643      -1.30491943       1.04340334
C        2.47935551       0.24417179       0.29567722
H       -3.16777361       0.16701839       0.11626662
H       -2.21586983       1.39981687      -0.69999272
H       -1.86368318       0.99046376       0.98848620
H       -1.17192620      -1.31829997       0.28417732
H       -1.50399250      -0.92082772      -1.38545785
H        0.30111679       0.84510731      -1.13555323
H        2.55730139       1.30344170       0.06863854
H        3.29206483      -0.34586664      -0.12313967
H        2.18822101      -0.76472226       1.40533610
15
Frame=6 idx=002544 GeodesicLength=0.3146087937443872 rxn_smarts="[C:1]([C:2]([N:3]([C:4](=[O:5])[C:6]([H:13])([H:14])[H:15])[H:12])([H:10])[H:11])([H:7])([H:8])[H:9]>>[C:1]([C:2]([N:3]([C:4]([O:5][H:15])=[C:6]([H:13])[H:14])[H:12])([H:10])[H:11])([H:7])([H:8])[H:9]"
C       -2.14441563       0.57499580       0.04221745
C       -1.18934660      -0.49918227      -0.45348078
N        0.16283329       0.00365832      -0.60641163
C        1.20548507      -0.41430042       0.11704577
O        1.05817956      -1.26667906       1.07699046
C        2.46665868       0.24708187       0.29233223
H       -3.15267846       0.16923212       0.14023778
H       -2.19954410       1.41312826      -0.65685774
H       -1.82577321       0.95412121       1.01408863
H       -1.17643140      -1.34344930       0.23472425
H       -1.52127589      -0.89220109      -1.41825628
H        0.31144165       0.82522953      -1.16550224
H        2.54150137       1.29762371       0.02771794
H        3.29325130      -0.35106028      -0.08510845
H        2.17011438      -0.71819842       1.44026262
15
Frame=7 idx=002544 GeodesicLength=0.3695748401189787 rxn_smarts="[C:1]([C:2]([N:3]([C:4](=[O:5])[C:6]([H:13])([H:14])[H:15])[H:12])([H:10])[H:11])([H:7])([H:8])[H:9]>>[C:1]([C:2]([N:3]([C:4]([O:5][H:15])=[C:6]([H:13])[H:14])[H:12])([H:10])[H:11])([H:7])([H:8])[H:9]"
C       -2.12552872       0.56854176       0.06136186
C       -1.19025918      -0.50303432      -0.47646825
N        0.16663340      -0.01528922      -0.63549365
C        1.20052476      -0.42514152       0.10901788
O        1.02973274      -1.23098722       1.10481071
C        2.45332099       0.25027655       0.28999230
H       -3.13703808       0.17181953       0.16412567
H       -2.18138192       1.42505204      -0.61499896
H       -1.78780973       0.91874418       1.03760612
H       -1.18131793      -1.36612755       0.18811218
H       -1.53853405      -0.86420290      -1.44779508
H        0.32205513       0.80407546      -1.19587692
H        2.52507639       1.29129439      -0.01028339
H        3.29357672      -0.35268198      -0.04685121
H        2.15094947      -0.67233919       1.47274073
15
Frame=8 idx=002544 GeodesicLength=0.42576082539976423 rxn_smarts="[C:1]([C:2]([N:3]([C:4](=[O:5])[C:6]([H:13])([H:14])[H:15])[H:12])([H:10])[H:11])([H:7])([H:8])[H:9]>>[C:1]([C:2]([N:3]([C:4]([O:5][H:15])=[C:6]([H:13])[H:14])[H:12])([H:10])[H:11])([H:7])([H:8])[H:9]"
C       -2.10613359       0.56167000       0.08035279
C       -1.19130873      -0.50644419      -0.49854311
N        0.17043199      -0.03435145      -0.66373200
C        1.19556350      -0.43640978       0.10119056
O        1.00143204      -1.19686921       1.12829587
C        2.43962373       0.25348297       0.28794759
H       -3.12096858       0.17425231       0.18767171
H       -2.16128891       1.43606329      -0.57287556
H       -1.75026937       0.88273949       1.06014890
H       -1.18654404      -1.38717171       0.14275703
H       -1.55546136      -0.83569457      -1.47527421
H        0.33292426       0.78222902      -1.22618610
H        2.50930041       1.28354638      -0.04836325
H        3.29309146      -0.35243576      -0.00744017
H        2.12960720      -0.62460677       1.50404996
15
Frame=9 idx=002544 GeodesicLength=0.48341561173003006 rxn_smarts="[C:1]([C:2]([N:3]([C:4](=[O:5])[C:6]([H:13])([H:14])[H:15])[H:12])([H:10])[H:11])([H:7])([H:8])[H:9]>>[C:1]([C:2]([N:3]([C:4]([O:5][H:15])=[C:6]([H:13])[H:14])[H:12])([H:10])[H:11])([H:7])([H:8])[H:9]"
C       -2.08489895       0.55502642       0.09936627
C       -1.19248261      -0.50975211      -0.51963821
N        0.17425510      -0.05523008      -0.69208931
C        1.19053557      -0.44899044       0.09279037
O        0.97380797      -1.16630855       1.14630913
C        2.42397935       0.25761764       0.28682535
H       -3.10323363       0.17822630       0.21180833
H       -2.13754392       1.44640045      -0.53059204
H       -1.71096334       0.84699776       1.08147596
H       -1.19248765      -1.40660956       0.09897267
H       -1.57280210      -0.80718389      -1.50025075
H        0.34427333       0.75715628      -1.25820087
H        2.49093028       1.27582769      -0.08387095
H        3.29117904      -0.34743802       0.03359418
H        2.10545158      -0.57573990       1.53349988
15
Frame=10 idx=002544 GeodesicLength=0.541816118967545 rxn_smarts="[C:1]([C:2]([N:3]([C:4](=[O:5])[C:6]([H:13])([H:14])[H:15])[H:12])([H:10])[H:11])([H:7])([H:8])[H:9]>>[C:1]([C:2]([N:3]([C:4]([O:5][H:15])=[C:6]([H:13])[H:14])[H:12])([H:10])[H:11])([H:7])([H:8])[H:9]"
C       -2.06359460       0.54815060       0.11786233
C       -1.19374235      -0.51250082      -0.53953559
N        0.17795262      -0.07580317      -0.71896889
C        1.18562430      -0.46163141       0.08492424
O        0.94712329      -1.13843838       1.16068400
C        2.40824208       0.26173512       0.28584394
H       -3.08538836       0.18200299       0.23517697
H       -2.11242789       1.45563237      -0.48896436
H       -1.67289937       0.81125134       1.10157970
H       -1.19901379      -1.42428173       0.05702112
H       -1.58922821      -0.77838068      -1.52308087
H        0.35573526       0.73183283      -1.28938889
H        2.47357346       1.26689438      -0.11896394
H        3.28821505      -0.34067331       0.07459121
H        2.07982851      -0.52579014       1.56121902
15
Frame=11 idx=002544 GeodesicLength=0.6014465226598669 rxn_smarts="[C:1]([C:2]([N:3]([C:4](=[O:5])[C:6]([H:13])([H:14])[H:15])[H:12])([H:10])[H:11])([H:7])([H:8])[H:9]>>[C:1]([C:2]([N:3]([C:4]([O:5][H:15])=[C:6]([H:13])[H:14])[H:12])([H:10])[H:11])([H:7])([H:8])[H:9]"
C       -2.04103387       0.54154771       0.13611848
C       -1.19510845      -0.51502412      -0.55837166
N        0.18161903      -0.09774285      -0.74538817
C        1.18084114      -0.47526069       0.07688404
O        0.92157588      -1.11448100       1.17099643
C        2.39104695       0.26662185       0.28544149
H       -3.06643838       0.18715543       0.25854767
H       -2.08422597       1.46424066      -0.44765266
H       -1.63414052       0.77585798       1.12048549
H       -1.20651294      -1.44049343       0.01675060
H       -1.60550333      -0.74945171      -1.54364073
H        0.36761681       0.70388220      -1.32147954
H        2.45427086       1.25817241      -0.15165129
H        3.28387412      -0.32968922       0.11611756
H        2.05211866      -0.47533522       1.58684228
15
Frame=12 idx=002544 GeodesicLength=0.6616717224426171 rxn_smarts="[C:1]([C:2]([N:3]([C:4](=[O:5])[C:6]([H:13])([H:14])[H:15])[H:12])([H:10])[H:11])([H:7])([H:8])[H:9]>>[C:1]([C:2]([N:3]([C:4]([O:5][H:15])=[C:6]([H:13])[H:14])[H:12])([H:10])[H:11])([H:7])([H:8])[H:9]"
C       -2.01839312       0.53479951       0.15387412
C       -1.19645250      -0.51699624      -0.57608729
N        0.18515064      -0.11946434      -0.77035286
C        1.17622173      -0.48892871       0.06933536
O        0.89719693      -1.09331710       1.17863084
C        2.37361790       0.27154946       0.28509871
H       -3.04733714       0.19230033       0.28109205
H       -2.05468101       1.47180787      -0.40703784
H       -1.59666873       0.74056231       1.13832023
H       -1.21464164      -1.45513240      -0.02188535
H       -1.62062797      -0.72019488      -1.56229274
H        0.37959555       0.67557403      -1.35260146
H        2.43570682       1.24841766      -0.18380328
H        3.27825158      -0.31687493       0.15719415
H        2.02306096      -0.42410258       1.61051536
15
Frame=13 idx=002544 GeodesicLength=0.7226044714889951 rxn_smarts="[C:1]([C:2]([N:3]([C:4](=[O:5])[C:6]([H:13])([H:14])[H:15])[H:12])([H:10])[H:11])([H:7])([H:8])[H:9]>>[C:1]([C:2]([N:3]([C:4]([O:5][H:15])=[C:6]([H:13])[H:14])[H:12])([H:10])[H:11])([H:7])([H:8])[H:9]"
C       -1.99535608       0.52819940       0.17109032
C       -1.19780519      -0.51856731      -0.59268497
N        0.18858164      -0.14165364      -0.79420718
C        1.17182529      -0.50303624       0.06208653
O        0.87406634      -1.07524288       1.18386713
C        2.35551421       0.27678502       0.28493406
H       -3.02786869       0.19816801       0.30295797
H       -2.02327500       1.47856201      -0.36729334
H       -1.55990874       0.70574407       1.15499067
H       -1.22363003      -1.46832312      -0.05877366
H       -1.63487339      -0.69081007      -1.57899059
H        0.39181904       0.64590964      -1.38342620
H        2.41641720       1.23864955      -0.21395898
H        3.27137103      -0.30120533       0.19747082
H        1.99312237      -0.37317911       1.63193741
15
Frame=14 idx=002544 GeodesicLength=0.7838861541197715 rxn_smarts="[C:1]([C:2]([N:3]([C:4](=[O:5])[C:6]([H:13])([H:14])[H:15])[H:12])([H:10])[H:11])([H:7])([H:8])[H:9]>>[C:1]([C:2]([N:3]([C:4]([O:5][H:15])=[C:6]([H:13])[H:14])[H:12])([H:10])[H:11])([H:7])([H:8])[H:9]"
C       -1.97242509       0.52157280       0.18770391
C       -1.19907487      -0.51962234      -0.60819170
N        0.19187791      -0.16363517      -0.81662782
C        1.16764842      -0.51716196       0.05536653
O        0.85216148      -1.05960332       1.18741413
C        2.33722829       0.28203167       0.28477707
H       -3.00843447       0.20417348       0.32384156
H       -1.99086631       1.48432730      -0.32854523
H       -1.52464370       0.67131836       1.17063030
H       -1.23323971      -1.48005868      -0.09401675
H       -1.64781414      -0.66126422      -1.59397148
H        0.40412945       0.61589801      -1.41316353
H        2.39751437       1.22831114      -0.24297422
H        3.26328194      -0.28380934       0.23650392
H        1.96265644      -0.32247773       1.65125330
15
Frame=15 idx=002544 GeodesicLength=0.8454329181001466 rxn_smarts="[C:1]([C:2]([N:3]([C:4](=[O:5])[C:6]([H:13])([H:14])[H:15])[H:12])([H:10])[H:11])([H:7])([H:8])[H:9]>>[C:1]([C:2]([N:3]([C:4]([O:5][H:15])=[C:6]([H:13])[H:14])[H:12])([H:10])[H:11])([H:7])([H:8])[H:9]"
C       -1.94967171       0.51497192       0.20369282
C       -1.20025095      -0.52019786      -0.62265437
N        0.19504967      -0.18546641      -0.83768943
C        1.16371378      -0.53133219       0.04917357
O        0.83144745      -1.04616105       1.18967205
C        2.31878792       0.28727156       0.28459403
H       -2.98912860       0.21041696       0.34370083
H       -1.95757448       1.48917594      -0.29084532
H       -1.49092082       0.63736111       1.18529132
H       -1.24346234      -1.49042918      -0.12766305
H       -1.65945063      -0.63161670      -1.60735455
H        0.41653717       0.58547275      -1.44186896
H        2.37876361       1.21768125      -0.27056232
H        3.25411090      -0.26475477       0.27402250
H        1.93204903      -0.27239336       1.66849087
15
Frame=16 idx=002544 GeodesicLength=0.9071227922160916 rxn_smarts="[C:1]([C:2]([N:3]([C:4](=[O:5])[C:6]([H:13])([H:14])[H:15])[H:12])([H:10])[H:11])([H:7])([H:8])[H:9]>>[C:1]([C:2]([N:3]([C:4]([O:5][H:15])=[C:6]([H:13])[H:14])[H:12])([H:10])[H:11])([H:7])([H:8])[H:9]"
C       -1.92716733       0.50840052       0.21905299
C       -1.20126942      -0.52030751      -0.63612434
N        0.19809987      -0.20708267      -0.85740660
C        1.15999235      -0.54548161       0.04352500
O        0.81184327      -1.03458914       1.19095573
C        2.30022253       0.29243639       0.28434592
H       -2.96998593       0.21686475       0.36249555
H       -1.92360398       1.49311018      -0.25420517
H       -1.45882334       0.60392667       1.19903203
H       -1.25418516      -1.49948482      -0.15980845
H       -1.66967559      -0.60192770      -1.61926031
H        0.42900688       0.55474304      -1.46942938
H        2.36010333       1.20683422      -0.29668129
H        3.24388216      -0.24432190       0.30978068
H        1.90156035      -0.22312041       1.68372766
