17
Frame=0 idx=007059 GeodesicLength=0.0 rxn_smarts="[C:1]([C@@:2]([O:3][H:12])([C@@:4]1([H:13])[C:5]([H:14])([H:15])[C:6]([H:16])([H:17])[O:7]1)[H:11])([H:8])([H:9])[H:10]>>[C:1]([C@@:2]([O:3][H:12])([C@@:4]1([H:13])[C:5]([H:14])([H:15])[C-:6]=[O+:7]1)[H:11])([H:8])([H:9])[H:10].[H:16][H:17]"
C       -2.14040465      -0.57377572       0.38914431
C       -1.13198069       0.21839244      -0.42984345
O       -1.19449012       1.60010115      -0.14232303
C        0.27533537      -0.31429157      -0.24778772
C        1.48043182       0.46802390      -0.77479953
C        1.96235015       0.39612754       0.67559873
O        0.77176353      -0.10424705       1.10317874
H       -3.13800161      -0.15678238       0.25313088
H       -2.15656632      -1.62267176       0.08628972
H       -1.88852840      -0.53256971       1.45158767
H       -1.37248293       0.13190692      -1.49435886
H       -0.96197989       1.72137874       0.78291694
H        0.32989873      -1.38675467      -0.47398067
H        2.07661761       0.02822270      -1.56798188
H        1.22273767       1.49923975      -1.01714319
H        2.97722881      -0.30765640       0.96117171
H        2.88807095      -1.06464386       0.44519960
17
Frame=1 idx=007059 GeodesicLength=0.05086461977079427 rxn_smarts="[C:1]([C@@:2]([O:3][H:12])([C@@:4]1([H:13])[C:5]([H:14])([H:15])[C:6]([H:16])([H:17])[O:7]1)[H:11])([H:8])([H:9])[H:10]>>[C:1]([C@@:2]([O:3][H:12])([C@@:4]1([H:13])[C:5]([H:14])([H:15])[C-:6]=[O+:7]1)[H:11])([H:8])([H:9])[H:10].[H:16][H:17]"
C       -2.14406807      -0.57270978       0.38744210
C       -1.13422401       0.22002045      -0.42922860
O       -1.19164608       1.60039329      -0.13403426
C        0.27173510      -0.31843967      -0.25210629
C        1.47608016       0.46413427      -0.78061880
C        1.95987491       0.39130456       0.66814162
O        0.77045844      -0.11190999       1.09861074
H       -3.14040725      -0.15131343       0.25573369
H       -2.16471204      -1.61985683       0.07884488
H       -1.88998755      -0.53814924       1.44961217
H       -1.37685164       0.14013262      -1.49379175
H       -0.95432774       1.71561723       0.79080811
H        0.32144561      -1.39027817      -0.48130297
H        2.07339542       0.02044259      -1.57106934
H        1.22042572       1.49453409      -1.02812046
H        2.99774409      -0.29138333       0.98077992
H        2.90506492      -1.05253866       0.46029924
17
Frame=2 idx=007059 GeodesicLength=0.10170456496215195 rxn_smarts="[C:1]([C@@:2]([O:3][H:12])([C@@:4]1([H:13])[C:5]([H:14])([H:15])[C:6]([H:16])([H:17])[O:7]1)[H:11])([H:8])([H:9])[H:10]>>[C:1]([C@@:2]([O:3][H:12])([C@@:4]1([H:13])[C:5]([H:14])([H:15])[C-:6]=[O+:7]1)[H:11])([H:8])([H:9])[H:10].[H:16][H:17]"
C       -2.14777132      -0.57157224       0.38575153
C       -1.13646363       0.22165876      -0.42859830
O       -1.18860207       1.60061598      -0.12561892
C        0.26805781      -0.32273103      -0.25658194
C        1.47169572       0.46007027      -0.78653885
C        1.95747299       0.38600812       0.66055501
O        0.76918240      -0.11996819       1.09387114
H       -3.14278909      -0.14568366       0.25845954
H       -2.17302910      -1.61689634       0.07135439
H       -1.89144692      -0.54377301       1.44759579
H       -1.38127277       0.14850067      -1.49316047
H       -0.94643525       1.70965511       0.79876600
H        0.31277992      -1.39389032      -0.48892124
H        2.07009515       0.01252997      -1.57428846
H        1.21816181       1.48968257      -1.03904009
H        3.01792583      -0.27435493       1.00072162
H        2.92243851      -1.03985172       0.47567325
17
Frame=3 idx=007059 GeodesicLength=0.15251379528573467 rxn_smarts="[C:1]([C@@:2]([O:3][H:12])([C@@:4]1([H:13])[C:5]([H:14])([H:15])[C:6]([H:16])([H:17])[O:7]1)[H:11])([H:8])([H:9])[H:10]>>[C:1]([C@@:2]([O:3][H:12])([C@@:4]1([H:13])[C:5]([H:14])([H:15])[C-:6]=[O+:7]1)[H:11])([H:8])([H:9])[H:10].[H:16][H:17]"
C       -2.15150163      -0.57036423       0.38408200
C       -1.13869371       0.22330288      -0.42795519
O       -1.18536273       1.60076333      -0.11710004
C        0.26430912      -0.32715534      -0.26121459
C        1.46728363       0.45584928      -0.79255124
C        1.95516118       0.38021144       0.65283871
O        0.76793448      -0.12840958       1.08895907
H       -3.14513772      -0.13991542       0.26130020
H       -2.18148462      -1.61379762       0.06385861
H       -1.89290395      -0.54941245       1.44554677
H       -1.38573566       0.15698974      -1.49246431
H       -0.93830944       1.70349886       0.80676286
H        0.30391036      -1.39757677      -0.49683655
H        2.06671313       0.00452138      -1.57764934
H        1.21595571       1.48471198      -1.04986528
H        3.03773423      -0.25660704       1.02099101
H        2.94012762      -1.02661043       0.49129730
17
Frame=4 idx=007059 GeodesicLength=0.203298190803603 rxn_smarts="[C:1]([C@@:2]([O:3][H:12])([C@@:4]1([H:13])[C:5]([H:14])([H:15])[C:6]([H:16])([H:17])[O:7]1)[H:11])([H:8])([H:9])[H:10]>>[C:1]([C@@:2]([O:3][H:12])([C@@:4]1([H:13])[C:5]([H:14])([H:15])[C-:6]=[O+:7]1)[H:11])([H:8])([H:9])[H:10].[H:16][H:17]"
C       -2.15524569      -0.56908825       0.38244324
C       -1.14090978       0.22494803      -0.42730317
O       -1.18193987       1.60083197      -0.10850663
C        0.26049582      -0.33169885      -0.26600134
C        1.46284882       0.45149389      -0.79864611
C        1.95296349       0.37388318       0.64499240
O        0.76671430      -0.13721006       1.08387720
H       -3.14744604      -0.13403640       0.26424254
H       -2.19003988      -1.61057317       0.05640271
H       -1.89435629      -0.55503387       1.44347558
H       -1.39023046       0.16557291      -1.49170504
H       -0.92996556       1.69716217       0.81476599
H        0.29484990      -1.40132164      -0.50504349
H        2.06324210      -0.00353969      -1.58116575
H        1.21381709       1.47965739      -1.06055237
H        3.05713956      -0.23819272       1.04158043
H        2.95806248      -1.01285489       0.50714382
17
Frame=5 idx=007059 GeodesicLength=0.2540341764390731 rxn_smarts="[C:1]([C@@:2]([O:3][H:12])([C@@:4]1([H:13])[C:5]([H:14])([H:15])[C:6]([H:16])([H:17])[O:7]1)[H:11])([H:8])([H:9])[H:10]>>[C:1]([C@@:2]([O:3][H:12])([C@@:4]1([H:13])[C:5]([H:14])([H:15])[C-:6]=[O+:7]1)[H:11])([H:8])([H:9])[H:10].[H:16][H:17]"
C       -2.15898798      -0.56774867       0.38084538
C       -1.14310679       0.22658893      -0.42664708
O       -1.17835036       1.60082138      -0.09987331
C        0.25662751      -0.33634510      -0.27093564
C        1.45839685       0.44703111      -0.80481222
C        1.95091457       0.36698268       0.63701528
O        0.76552364      -0.14633229       1.07863306
H       -3.14970720      -0.12807915       0.26726897
H       -2.19864973      -1.60724100       0.04903549
H       -1.89579997      -0.56060018       1.44139535
H       -1.39474599       0.17421781      -1.49088717
H       -0.92142540       1.69066584       0.82273868
H        0.28561736      -1.40510866      -0.51352852
H        2.05966942      -0.01160353      -1.58485751
H        1.21175716       1.47456193      -1.07104924
H        3.07610758      -0.21917522       1.06247813
H        2.97615933      -0.99863587       0.52318035
17
Frame=6 idx=007059 GeodesicLength=0.3046527973610485 rxn_smarts="[C:1]([C@@:2]([O:3][H:12])([C@@:4]1([H:13])[C:5]([H:14])([H:15])[C:6]([H:16])([H:17])[O:7]1)[H:11])([H:8])([H:9])[H:10]>>[C:1]([C@@:2]([O:3][H:12])([C@@:4]1([H:13])[C:5]([H:14])([H:15])[C-:6]=[O+:7]1)[H:11])([H:8])([H:9])[H:10].[H:16][H:17]"
C       -2.16271694      -0.56635604       0.37930046
C       -1.14528560       0.22821930      -0.42599298
O       -1.17462501       1.60074165      -0.09124229
C        0.25272155      -0.34107262      -0.27601033
C        1.45394095       0.44249969      -0.81103889
C        1.94908202       0.35946632       0.62889920
O        0.76438112      -0.15571534       1.07323392
H       -3.15192953      -0.12208856       0.27035889
H       -2.20726605      -1.60383659       0.04181410
H       -1.89722911      -0.56606712       1.43932233
H       -1.39928357       0.18287951      -1.49001666
H       -0.91271913       1.68405162       0.83063652
H        0.27624364      -1.40892432      -0.52227365
H        2.05598382      -0.01960725      -1.58875531
H        1.20979097       1.46948681      -1.08129135
H        3.09459129      -0.19964645       1.08368014
H        2.99431957      -0.98403062       0.53937588
17
Frame=7 idx=007059 GeodesicLength=0.35515640049275926 rxn_smarts="[C:1]([C@@:2]([O:3][H:12])([C@@:4]1([H:13])[C:5]([H:14])([H:15])[C:6]([H:16])([H:17])[O:7]1)[H:11])([H:8])([H:9])[H:10]>>[C:1]([C@@:2]([O:3][H:12])([C@@:4]1([H:13])[C:5]([H:14])([H:15])[C-:6]=[O+:7]1)[H:11])([H:8])([H:9])[H:10].[H:16][H:17]"
C       -2.16637775      -0.56491403       0.37782789
C       -1.14741704       0.22982962      -0.42534516
O       -1.17078918       1.60055934      -0.08268494
C        0.24878391      -0.34582496      -0.28119299
C        1.44947270       0.43796112      -0.81729069
C        1.94742290       0.35135725       0.62065490
O        0.76323484      -0.16527558       1.06769843
H       -3.15405224      -0.11613290       0.27347487
H       -2.21577093      -1.60036358       0.03483189
H       -1.89863601      -0.57137118       1.43727751
H       -1.40377424       0.19150444      -1.48909258
H       -0.90391091       1.67732634       0.83838122
H        0.26676227      -1.41268797      -0.53121286
H        2.05216576      -0.02744721      -1.59284050
H        1.20791872       1.46448123      -1.09123094
H        3.11250988      -0.17977768       1.10509326
H        3.01245733      -0.96922425       0.55565068
17
Frame=8 idx=007059 GeodesicLength=0.4055918951596878 rxn_smarts="[C:1]([C@@:2]([O:3][H:12])([C@@:4]1([H:13])[C:5]([H:14])([H:15])[C:6]([H:16])([H:17])[O:7]1)[H:11])([H:8])([H:9])[H:10]>>[C:1]([C@@:2]([O:3][H:12])([C@@:4]1([H:13])[C:5]([H:14])([H:15])[C-:6]=[O+:7]1)[H:11])([H:8])([H:9])[H:10].[H:16][H:17]"
C       -2.16998876      -0.56343309       0.37642778
C       -1.14951699       0.23142161      -0.42470451
O       -1.16685826       1.60030087      -0.07419518
C        0.24482564      -0.35060674      -0.28649452
C        1.44500627       0.43342005      -0.82358580
C        1.94601333       0.34262097       0.61224919
O        0.76212686      -0.17498775       1.06201745
H       -3.15611415      -0.11021675       0.27662196
H       -2.22418524      -1.59685340       0.02808148
H       -1.90001702      -0.57652055       1.43526325
H       -1.40825468       0.20008810      -1.48811662
H       -0.89499845       1.67052277       0.84598025
H        0.25718370      -1.41642266      -0.54035450
H        2.04820657      -0.03512203      -1.59716321
H        1.20614973       1.45957342      -1.10085557
H        3.12989531      -0.15957337       1.12677886
H        3.03052613      -0.95421146       0.57204969
17
Frame=9 idx=007059 GeodesicLength=0.4555013882580007 rxn_smarts="[C:1]([C@@:2]([O:3][H:12])([C@@:4]1([H:13])[C:5]([H:14])([H:15])[C:6]([H:16])([H:17])[O:7]1)[H:11])([H:8])([H:9])[H:10]>>[C:1]([C@@:2]([O:3][H:12])([C@@:4]1([H:13])[C:5]([H:14])([H:15])[C-:6]=[O+:7]1)[H:11])([H:8])([H:9])[H:10].[H:16][H:17]"
C       -2.17352691      -0.56192240       0.37509658
C       -1.15156465       0.23298831      -0.42406963
O       -1.16284958       1.59997463      -0.06579967
C        0.24087899      -0.35540199      -0.29186288
C        1.44056912       0.42890132      -0.82986625
C        1.94485512       0.33333264       0.60376574
O        0.76106161      -0.18479033       1.05626173
H       -3.15810391      -0.10436762       0.27975180
H       -2.23244975      -1.59333489       0.02158172
H       -1.90137056      -0.58149008       1.43329329
H       -1.41268334       0.20859284      -1.48710191
H       -0.88601708       1.66367344       0.85342158
H        0.24756739      -1.42012459      -0.54962252
H        2.04414663      -0.04262239      -1.60166176
H        1.20449252       1.45478590      -1.11014618
H        3.14663724      -0.13915710       1.14849447
H        3.04835715      -0.93903769       0.58846390
17
Frame=10 idx=007059 GeodesicLength=0.5054998957743089 rxn_smarts="[C:1]([C@@:2]([O:3][H:12])([C@@:4]1([H:13])[C:5]([H:14])([H:15])[C:6]([H:16])([H:17])[O:7]1)[H:11])([H:8])([H:9])[H:10]>>[C:1]([C@@:2]([O:3][H:12])([C@@:4]1([H:13])[C:5]([H:14])([H:15])[C-:6]=[O+:7]1)[H:11])([H:8])([H:9])[H:10].[H:16][H:17]"
C       -2.17701639      -0.56036586       0.37383239
C       -1.15357384       0.23454449      -0.42343291
O       -1.15871374       1.59956237      -0.05742893
C        0.23689701      -0.36024203      -0.29736622
C        1.43612336       0.42434332      -0.83621848
C        1.94393369       0.32335831       0.59506811
O        0.76002651      -0.19478417       1.05033283
H       -3.16001827      -0.09851929       0.28294173
H       -2.24066252      -1.58975245       0.01526283
H       -1.90268648      -0.58634804       1.43134676
H       -1.41709936       0.21710206      -1.48602474
H       -0.87689949       1.65670289       0.86075641
H        0.23781759      -1.42379970      -0.55911430
H        2.03990791      -0.04999878      -1.60644709
H        1.20294633       1.45006244      -1.11914926
H        3.16286874      -0.11826919       1.17054075
H        3.06614899      -0.92359639       0.60510011
17
Frame=11 idx=007059 GeodesicLength=0.5554684968415133 rxn_smarts="[C:1]([C@@:2]([O:3][H:12])([C@@:4]1([H:13])[C:5]([H:14])([H:15])[C:6]([H:16])([H:17])[O:7]1)[H:11])([H:8])([H:9])[H:10]>>[C:1]([C@@:2]([O:3][H:12])([C@@:4]1([H:13])[C:5]([H:14])([H:15])[C-:6]=[O+:7]1)[H:11])([H:8])([H:9])[H:10].[H:16][H:17]"
C       -2.18046382      -0.55875909       0.37262646
C       -1.15553883       0.23609717      -0.42278541
O       -1.15441315       1.59906651      -0.04903483
C        0.23288096      -0.36515445      -0.30301349
C        1.43168067       0.41970462      -0.84265202
C        1.94324020       0.31271357       0.58615685
O        0.75903855      -0.20502233       1.04422577
H       -3.16185434      -0.09262582       0.28622198
H       -2.24886830      -1.58609007       0.00906538
H       -1.90395354      -0.59114731       1.42941209
H       -1.42150614       0.22565949      -1.48487642
H       -0.86760044       1.64958409       0.86803758
H        0.22791910      -1.42747640      -0.56884782
H        2.03550471      -0.05732006      -1.61151679
H        1.20151986       1.44535822      -1.12791194
H        3.17852805      -0.09681694       1.19289972
H        3.08388646      -0.90777121       0.62199288
17
Frame=12 idx=007059 GeodesicLength=0.605371378415528 rxn_smarts="[C:1]([C@@:2]([O:3][H:12])([C@@:4]1([H:13])[C:5]([H:14])([H:15])[C:6]([H:16])([H:17])[O:7]1)[H:11])([H:8])([H:9])[H:10]>>[C:1]([C@@:2]([O:3][H:12])([C@@:4]1([H:13])[C:5]([H:14])([H:15])[C-:6]=[O+:7]1)[H:11])([H:8])([H:9])[H:10].[H:16][H:17]"
C       -2.18388027      -0.55709044       0.37146564
C       -1.15745082       0.23765632      -0.42211247
O       -1.14989449       1.59848232      -0.04054885
C        0.22882028      -0.37017321      -0.30881735
C        1.42724442       0.41492704      -0.84918162
C        1.94274995       0.30137977       0.57702704
O        0.75810292      -0.21558771       1.03792696
H       -3.16360504      -0.08663047       0.28961514
H       -2.25712433      -1.58231200       0.00291637
H       -1.90517074      -0.59594381       1.42747394
H       -1.42590293       0.23432762      -1.48364311
H       -0.85806462       1.64226477       0.87533543
H        0.21783379      -1.43118179      -0.57885597
H        2.03094049      -0.06467264      -1.61687650
H        1.20022239       1.44061227      -1.13648205
H        3.19357574      -0.07461520       1.21555146
H        3.10160323      -0.89144284       0.63920594
17
Frame=13 idx=007059 GeodesicLength=0.6552374805449674 rxn_smarts="[C:1]([C@@:2]([O:3][H:12])([C@@:4]1([H:13])[C:5]([H:14])([H:15])[C:6]([H:16])([H:17])[O:7]1)[H:11])([H:8])([H:9])[H:10]>>[C:1]([C@@:2]([O:3][H:12])([C@@:4]1([H:13])[C:5]([H:14])([H:15])[C-:6]=[O+:7]1)[H:11])([H:8])([H:9])[H:10].[H:16][H:17]"
C       -2.18727502      -0.55534898       0.37034741
C       -1.15930108       0.23923160      -0.42140047
O       -1.14509404       1.59779940      -0.03190106
C        0.22470320      -0.37533397      -0.31481137
C        1.42281866       0.40995365      -0.85584234
C        1.94244161       0.28933608       0.56763968
O        0.75722939      -0.22657963       1.03139375
H       -3.16525913      -0.08047481       0.29317698
H       -2.26549863      -1.57837997      -0.00324689
H       -1.90632778      -0.60079957       1.42551817
H       -1.43029433       0.24317291      -1.48230272
H       -0.84821201       1.63468626       0.88271145
H        0.20751514      -1.43493946      -0.58919890
H        2.02622052      -0.07213185      -1.62255066
H        1.19906500       1.43576229      -1.14491743
H        3.20792744      -0.05149421       1.23856107
H        3.11934106      -0.87445974       0.65682332
17
Frame=14 idx=007059 GeodesicLength=0.7050737454219331 rxn_smarts="[C:1]([C@@:2]([O:3][H:12])([C@@:4]1([H:13])[C:5]([H:14])([H:15])[C:6]([H:16])([H:17])[O:7]1)[H:11])([H:8])([H:9])[H:10]>>[C:1]([C@@:2]([O:3][H:12])([C@@:4]1([H:13])[C:5]([H:14])([H:15])[C-:6]=[O+:7]1)[H:11])([H:8])([H:9])[H:10].[H:16][H:17]"
C       -2.19065608      -0.55351547       0.36926350
C       -1.16107751       0.24083302      -0.42063296
O       -1.13993153       1.59699745      -0.02300685
C        0.22051296      -0.38068252      -0.32103154
C        1.41840361       0.40470998      -0.86266248
C        1.94228988       0.27653967       0.55796534
O        0.75642733      -0.23812791       1.02458248
H       -3.16679611      -0.07408491       0.29695554
H       -2.27406448      -1.57423950      -0.00949599
H       -1.90741111      -0.60577774       1.42352272
H       -1.43468631       0.25227615      -1.48082864
H       -0.83794139       1.62676680       0.89024067
H        0.19690408      -1.43877516      -0.59995072
H        2.02134451      -0.07979026      -1.62855141
H        1.19805861       1.43072682      -1.15326861
H        3.22147946      -0.02721311       1.26196539
H        3.13714407      -0.85664330       0.67493357
17
Frame=15 idx=007059 GeodesicLength=0.7548423088002025 rxn_smarts="[C:1]([C@@:2]([O:3][H:12])([C@@:4]1([H:13])[C:5]([H:14])([H:15])[C:6]([H:16])([H:17])[O:7]1)[H:11])([H:8])([H:9])[H:10]>>[C:1]([C@@:2]([O:3][H:12])([C@@:4]1([H:13])[C:5]([H:14])([H:15])[C-:6]=[O+:7]1)[H:11])([H:8])([H:9])[H:10].[H:16][H:17]"
C       -2.19399424      -0.55159843       0.36822997
C       -1.16277056       0.24245200      -0.41981536
O       -1.13444381       1.59607506      -0.01392747
C        0.21626793      -0.38618406      -0.32745699
C        1.41400885       0.39924861      -0.86961482
C        1.94234222       0.26292884       0.54800096
O        0.75569559      -0.25014989       1.01751120
H       -3.16820650      -0.06752479       0.30091048
H       -2.28273411      -1.56992384      -0.01574448
H       -1.90841302      -0.61080832       1.42150949
H       -1.43905347       0.26157916      -1.47922579
H       -0.82730420       1.61854533       0.89785863
H        0.18604009      -1.44265261      -0.61107258
H        2.01628821      -0.08755988      -1.63490390
H        1.19722194       1.42557714      -1.16145275
H        3.23418463      -0.00190284       1.28569277
H        3.15487044      -0.83810147       0.69350063
17
Frame=16 idx=007059 GeodesicLength=0.8045786206358226 rxn_smarts="[C:1]([C@@:2]([O:3][H:12])([C@@:4]1([H:13])[C:5]([H:14])([H:15])[C:6]([H:16])([H:17])[O:7]1)[H:11])([H:8])([H:9])[H:10]>>[C:1]([C@@:2]([O:3][H:12])([C@@:4]1([H:13])[C:5]([H:14])([H:15])[C-:6]=[O+:7]1)[H:11])([H:8])([H:9])[H:10].[H:16][H:17]"
C       -2.19730369      -0.54957994       0.36724241
C       -1.16436474       0.24410319      -0.41892738
O       -1.12853563       1.59501828      -0.00456205
C        0.21195126      -0.39189196      -0.33413324
C        1.40964268       0.39348721      -0.87674224
C        1.94258657       0.24843412       0.53769783
O        0.75504756      -0.26279228       1.01012601
H       -3.16947507      -0.06071605       0.30510356
H       -2.29159486      -1.56537974      -0.02207210
H       -1.90932734      -0.61596619       1.41946036
H       -1.44339745       0.27117556      -1.47746357
H       -0.81618620       1.60993777       0.90565646
H        0.17485370      -1.44660883      -0.62265177
H        2.01105209      -0.09554216      -1.64164875
H        1.19658197       1.42023272      -1.16952259
H        3.24591131       0.02471941       1.30979315
H        3.17255784      -0.81863109       0.71264391
