14
Frame=0 idx=000176 GeodesicLength=0.0 rxn_smarts="[C:1]([C:2]([O:3][C:4]([C:5](=[O:6])[H:14])([H:12])[H:13])([H:10])[H:11])([H:7])([H:8])[H:9]>>[C:1]([C:2]([O:3][C@:5]1([H:14])[C:4]([H:12])([H:13])[O:6]1)([H:10])[H:11])([H:7])([H:8])[H:9]"
C       -1.86418394      -0.78694320      -0.42261332
C       -0.61296744      -0.00146116      -0.76316088
O       -0.16613008       0.71477420       0.38315288
C        1.91295360       1.00334301       0.34936309
C        1.05861144       0.11646408       1.09685139
O        1.44407742      -1.07969883       0.81709158
H       -2.64061758      -0.12855394      -0.03033871
H       -1.63650779      -1.54655135       0.32545664
H       -2.24949031      -1.28221607      -1.31687223
H        0.17097783      -0.68849123      -1.09544198
H       -0.81284680       0.73298306      -1.54719050
H        2.49293108       1.83492992       0.74933163
H        2.04821059       0.72806757      -0.68962631
H        0.85498196       0.38335390       2.14399674
14
Frame=1 idx=000176 GeodesicLength=0.09986793115557394 rxn_smarts="[C:1]([C:2]([O:3][C:4]([C:5](=[O:6])[H:14])([H:12])[H:13])([H:10])[H:11])([H:7])([H:8])[H:9]>>[C:1]([C:2]([O:3][C@:5]1([H:14])[C:4]([H:12])([H:13])[O:6]1)([H:10])[H:11])([H:7])([H:8])[H:9]"
C       -1.88690662      -0.76898925      -0.42033037
C       -0.60766595      -0.03123715      -0.76176881
O       -0.15404390       0.69581242       0.37342087
C        1.89363924       1.02640312       0.35325435
C        1.07907728       0.09563853       1.09340043
O        1.55608365      -1.05967426       0.78717215
H       -2.64887624      -0.07591264      -0.06083110
H       -1.69523136      -1.51271651       0.35337607
H       -2.27300964      -1.27853298      -1.30609005
H        0.15668337      -0.74748771      -1.07744058
H       -0.77556098       0.68862999      -1.56702563
H        2.45843865       1.85408470       0.78162961
H        2.04390966       0.78558217      -0.69243375
H        0.85346284       0.32839957       2.14366680
14
Frame=2 idx=000176 GeodesicLength=0.19692923549972033 rxn_smarts="[C:1]([C:2]([O:3][C:4]([C:5](=[O:6])[H:14])([H:12])[H:13])([H:10])[H:11])([H:7])([H:8])[H:9]>>[C:1]([C:2]([O:3][C@:5]1([H:14])[C:4]([H:12])([H:13])[O:6]1)([H:10])[H:11])([H:7])([H:8])[H:9]"
C       -1.90953778      -0.74959044      -0.41879474
C       -0.60230162      -0.06283072      -0.75897420
O       -0.14214900       0.67543435       0.36486355
C        1.87328152       1.04910342       0.35774305
C        1.10184034       0.07343162       1.08806771
O        1.66833150      -1.03266530       0.75555482
H       -2.65476776      -0.02173704      -0.09470395
H       -1.75577540      -1.47470158       0.38064609
H       -2.29680776      -1.27384231      -1.29531852
H        0.14091868      -0.80948129      -1.05406119
H       -0.73627220       0.63975390      -1.58601238
H        2.42092335       1.87312661       0.81419313
H        2.03661486       0.84555916      -0.69413311
H        0.85570127       0.26843962       2.14092974
14
Frame=3 idx=000176 GeodesicLength=0.2912663726465697 rxn_smarts="[C:1]([C:2]([O:3][C:4]([C:5](=[O:6])[H:14])([H:12])[H:13])([H:10])[H:11])([H:7])([H:8])[H:9]>>[C:1]([C:2]([O:3][C@:5]1([H:14])[C:4]([H:12])([H:13])[O:6]1)([H:10])[H:11])([H:7])([H:8])[H:9]"
C       -1.93180223      -0.72879686      -0.41814085
C       -0.59698501      -0.09613099      -0.75459494
O       -0.13052023       0.65378795       0.35760787
C        1.85183044       1.07121889       0.36280795
C        1.12698921       0.05014951       1.08077753
O        1.77956462      -0.99853783       0.72214259
H       -2.65787920       0.03353585      -0.13212151
H       -1.81769805      -1.43227818       0.40688808
H       -2.32061775      -1.26819240      -1.28464118
H        0.12347483      -0.87392688      -1.02498494
H       -0.69517189       0.58617618      -1.60374876
H        2.38062890       1.89152125       0.84705220
H        2.02589288       0.90768500      -0.69457494
H        0.86229350       0.20378850       2.13553090
14
Frame=4 idx=000176 GeodesicLength=0.38304381677620886 rxn_smarts="[C:1]([C:2]([O:3][C:4]([C:5](=[O:6])[H:14])([H:12])[H:13])([H:10])[H:11])([H:7])([H:8])[H:9]>>[C:1]([C:2]([O:3][C@:5]1([H:14])[C:4]([H:12])([H:13])[O:6]1)([H:10])[H:11])([H:7])([H:8])[H:9]"
C       -1.95338441      -0.70672895      -0.41850098
C       -0.59185069      -0.13092004      -0.74847587
O       -0.11924860       0.63111352       0.35174988
C        1.82928361       1.09246368       0.36840611
C        1.15448672       0.02617734       1.07149504
O        1.88844024      -0.95736975       0.68702170
H       -2.65782810       0.08929033      -0.17309298
H       -1.88036455      -1.38537981       0.43163184
H       -2.34415238      -1.26163044      -1.27417238
H        0.10417869      -0.94003223      -0.99008452
H       -0.65260831       0.52790830      -1.61975656
H        2.33797062       1.90863328       0.88016152
H        2.01137682       0.97145287      -0.69360620
H        0.87370033       0.13502189       2.12722339
14
Frame=5 idx=000176 GeodesicLength=0.4725568171046587 rxn_smarts="[C:1]([C:2]([O:3][C:4]([C:5](=[O:6])[H:14])([H:12])[H:13])([H:10])[H:11])([H:7])([H:8])[H:9]>>[C:1]([C:2]([O:3][C@:5]1([H:14])[C:4]([H:12])([H:13])[O:6]1)([H:10])[H:11])([H:7])([H:8])[H:9]"
C       -1.97400385      -0.68353637      -0.42001377
C       -0.58703889      -0.16694586      -0.74045618
O       -0.10842958       0.60763051       0.34742265
C        1.80566613       1.11256362       0.37449377
C        1.18425485       0.00189391       1.06021816
O        1.99377240      -0.90942183       0.65031497
H       -2.65430113       0.14491032      -0.21765392
H       -1.94321127      -1.33397513       0.45443038
H       -2.36711151      -1.25426784      -1.26403173
H        0.08286334      -1.00693521      -0.94938637
H       -0.60894178       0.46506964      -1.63350575
H        2.29341074       1.92386978       0.91344892
H        1.99271358       1.03632580      -0.69109002
H        0.89035699       0.06281866       2.11580887
14
Frame=6 idx=000176 GeodesicLength=0.5600862573171583 rxn_smarts="[C:1]([C:2]([O:3][C:4]([C:5](=[O:6])[H:14])([H:12])[H:13])([H:10])[H:11])([H:7])([H:8])[H:9]>>[C:1]([C:2]([O:3][C@:5]1([H:14])[C:4]([H:12])([H:13])[O:6]1)([H:10])[H:11])([H:7])([H:8])[H:9]"
C       -1.99336886      -0.65943021      -0.42277566
C       -0.58270414      -0.20385003      -0.73042949
O       -0.09815759       0.58363828       0.34469937
C        1.78106662       1.13121007       0.38098583
C        1.21606101      -0.02230555       1.04695148
O        2.09446668      -0.85513534       0.61241594
H       -2.64707379       0.19963542      -0.26558228
H       -2.00551968      -1.27830681       0.47475913
H       -2.38922078      -1.24617036      -1.25434889
H        0.05942249      -1.07361038      -0.90314196
H       -0.56467575       0.39806157      -1.64442466
H        2.24756390       1.93664239       0.94672671
H        1.96974133       1.10156329      -0.68690325
H        0.91239856      -0.01194233       2.10106772
14
Frame=7 idx=000176 GeodesicLength=0.6459698092109818 rxn_smarts="[C:1]([C:2]([O:3][C:4]([C:5](=[O:6])[H:14])([H:12])[H:13])([H:10])[H:11])([H:7])([H:8])[H:9]>>[C:1]([C:2]([O:3][C@:5]1([H:14])[C:4]([H:12])([H:13])[O:6]1)([H:10])[H:11])([H:7])([H:8])[H:9]"
C       -2.01128046      -0.63462242      -0.42688973
C       -0.57899394      -0.24129321      -0.71831178
O       -0.08852134       0.55935861       0.34369380
C        1.75560716       1.14814471       0.38780618
C        1.24968906      -0.04609285       1.03173274
O        2.18974870      -0.79505497       0.57374132
H       -2.63600160       0.25281993      -0.31660082
H       -2.06671974      -1.21869520       0.49211596
H       -2.41028442      -1.23738562      -1.24530095
H        0.03374430      -1.13915399      -0.85172482
H       -0.52027768       0.32733839      -1.65198794
H        2.20098354       1.94653097       0.97980881
H        1.94234511       1.16645146      -0.68096726
H        0.93996130      -0.08834581       2.08288447
14
Frame=8 idx=000176 GeodesicLength=0.730496772623913 rxn_smarts="[C:1]([C:2]([O:3][C:4]([C:5](=[O:6])[H:14])([H:12])[H:13])([H:10])[H:11])([H:7])([H:8])[H:9]>>[C:1]([C:2]([O:3][C@:5]1([H:14])[C:4]([H:12])([H:13])[O:6]1)([H:10])[H:11])([H:7])([H:8])[H:9]"
C       -2.02761572      -0.60933745      -0.43240325
C       -0.57605685      -0.27891826      -0.70411985
O       -0.07958656       0.53504465       0.34443900
C        1.72951172       1.16313110       0.39486503
C        1.28486675      -0.06917498       1.01457783
O        2.27913749      -0.72980052       0.53493294
H       -2.62113109       0.30383229      -0.37017287
H       -2.12619663      -1.15572382       0.50602570
H       -2.43023690      -1.22789038      -1.23709537
H        0.00579127      -1.20270995      -0.79565339
H       -0.47631912       0.25351479      -1.65579226
H        2.15426942       1.95325317       1.01249531
H        1.91066904       1.23020779      -0.67324138
H        0.97289718      -0.16542844       2.06114256
14
Frame=9 idx=000176 GeodesicLength=0.8136740107711198 rxn_smarts="[C:1]([C:2]([O:3][C:4]([C:5](=[O:6])[H:14])([H:12])[H:13])([H:10])[H:11])([H:7])([H:8])[H:9]>>[C:1]([C:2]([O:3][C@:5]1([H:14])[C:4]([H:12])([H:13])[O:6]1)([H:10])[H:11])([H:7])([H:8])[H:9]"
C       -2.04214551      -0.58382266      -0.43931717
C       -0.57397701      -0.31630569      -0.68785697
O       -0.07138897       0.51090078       0.34694267
C        1.70293611       1.17594373       0.40203113
C        1.32118012      -0.09134636       0.99550268
O        2.36196556      -0.66013038       0.49652370
H       -2.60229087       0.35212921      -0.42567118
H       -2.18328268      -1.09005720       0.51608381
H       -2.44882379      -1.21765730      -1.22985899
H       -0.02454020      -1.26345454      -0.73550362
H       -0.43327679       0.17733981      -1.65541122
H        2.10788251       1.95655981       1.04447419
H        1.87481731       1.29207298      -0.66370184
H        1.01094422      -0.24217218       2.03576280
14
Frame=10 idx=000176 GeodesicLength=0.8955821246478394 rxn_smarts="[C:1]([C:2]([O:3][C:4]([C:5](=[O:6])[H:14])([H:12])[H:13])([H:10])[H:11])([H:7])([H:8])[H:9]>>[C:1]([C:2]([O:3][C@:5]1([H:14])[C:4]([H:12])([H:13])[O:6]1)([H:10])[H:11])([H:7])([H:8])[H:9]"
C       -2.05479689      -0.55839006      -0.44752089
C       -0.57288841      -0.35296933      -0.66975374
O       -0.06395736       0.48732035       0.35102626
C        1.67624318       1.18641658       0.40916888
C        1.35818609      -0.11240732       0.97452692
O        2.43803050      -0.58688804       0.45944480
H       -2.57982719       0.39711859      -0.48222263
H       -2.23724526      -1.02262525       0.52212272
H       -2.46598330      -1.20679987      -1.22368771
H       -0.05713379      -1.32054046      -0.67215264
H       -0.39190578       0.09981874      -1.65075544
H        2.06248045       1.95634978       1.07551327
H        1.83546347       1.35120450      -0.65241911
H        1.05333429      -0.31760821       2.00670931
14
Frame=11 idx=000176 GeodesicLength=0.9766550168592383 rxn_smarts="[C:1]([C:2]([O:3][C:4]([C:5](=[O:6])[H:14])([H:12])[H:13])([H:10])[H:11])([H:7])([H:8])[H:9]>>[C:1]([C:2]([O:3][C@:5]1([H:14])[C:4]([H:12])([H:13])[O:6]1)([H:10])[H:11])([H:7])([H:8])[H:9]"
C       -2.06566611      -0.53283613      -0.45711913
C       -0.57277342      -0.38924304      -0.64956959
O       -0.05724059       0.46387413       0.35694812
C        1.64931760       1.19481973       0.41646225
C        1.39612894      -0.13246955       0.95111287
O        2.50783956      -0.51001147       0.42293035
H       -2.55342026       0.43921812      -0.54058574
H       -2.28870207      -0.95262887       0.52425918
H       -2.48172735      -1.19545712      -1.21843016
H       -0.09240113      -1.37435175      -0.60496645
H       -0.35185542       0.02028091      -1.64161562
H        2.01771813       1.95269431       1.10626801
H        1.79218280       1.40821527      -0.63910679
H        1.10059933      -0.39210454       1.97341271
14
Frame=12 idx=000176 GeodesicLength=1.0573311454809577 rxn_smarts="[C:1]([C:2]([O:3][C:4]([C:5](=[O:6])[H:14])([H:12])[H:13])([H:10])[H:11])([H:7])([H:8])[H:9]>>[C:1]([C:2]([O:3][C@:5]1([H:14])[C:4]([H:12])([H:13])[O:6]1)([H:10])[H:11])([H:7])([H:8])[H:9]"
C       -2.07466172      -0.50743012      -0.46776509
C       -0.57377533      -0.42466381      -0.62765011
O       -0.05114583       0.44092496       0.36428912
C        1.62245778       1.20101597       0.42373611
C        1.43461929      -0.15157793       0.92475755
O        2.57201285      -0.42973837       0.38864041
H       -2.52357510       0.47775971      -0.60021573
H       -2.33707463      -0.88035698       0.52281003
H       -2.49620105      -1.18390866      -1.21357311
H       -0.13001383      -1.42399044      -0.53478492
H       -0.31387198      -0.06029664      -1.62811399
H        1.97353927       1.94553919       1.13665641
H        1.74619403       1.46229702      -0.62379225
H        1.15149625      -0.46557390       1.93500556
14
Frame=13 idx=000176 GeodesicLength=1.1379580038611992 rxn_smarts="[C:1]([C:2]([O:3][C:4]([C:5](=[O:6])[H:14])([H:12])[H:13])([H:10])[H:11])([H:7])([H:8])[H:9]>>[C:1]([C:2]([O:3][C@:5]1([H:14])[C:4]([H:12])([H:13])[O:6]1)([H:10])[H:11])([H:7])([H:8])[H:9]"
C       -2.08184169      -0.48205173      -0.47957243
C       -0.57592541      -0.45956004      -0.60375353
O       -0.04562841       0.41817618       0.37326147
C        1.59560894       1.20525919       0.43117047
C        1.47385870      -0.16968341       0.89484105
O        2.63076648      -0.34595050       0.35615222
H       -2.48983212       0.51292025      -0.66157797
H       -2.38273465      -0.80519282       0.51755562
H       -2.50956327      -1.17220858      -1.20901251
H       -0.17038018      -1.46969768      -0.46094540
H       -0.27780485      -0.14262461      -1.60996749
H        1.92975629       1.93480364       1.16729932
H        1.69722270       1.51396931      -0.60614262
H        1.20649747      -0.53815920       1.89069179
14
Frame=14 idx=000176 GeodesicLength=1.2184104242487495 rxn_smarts="[C:1]([C:2]([O:3][C:4]([C:5](=[O:6])[H:14])([H:12])[H:13])([H:10])[H:11])([H:7])([H:8])[H:9]>>[C:1]([C:2]([O:3][C@:5]1([H:14])[C:4]([H:12])([H:13])[O:6]1)([H:10])[H:11])([H:7])([H:8])[H:9]"
C       -2.08705384      -0.45713537      -0.49217913
C       -0.57923942      -0.49334804      -0.57828957
O       -0.04064014       0.39625030       0.38330102
C        1.56923408       1.20746170       0.43851578
C        1.51311267      -0.18650010       0.86128944
O        2.68365649      -0.25965655       0.32696256
H       -2.45270507       0.54396951      -0.72347861
H       -2.42463023      -0.72833473       0.50867946
H       -2.52171083      -1.16058723      -1.20444418
H       -0.21296455      -1.51047921      -0.38447847
H       -0.24450283      -0.22547148      -1.58750314
H        1.88686296       1.92034478       1.19785728
H        1.64660847       1.56250812      -0.58634503
H        1.26397225      -0.60902171       1.84011260
14
Frame=15 idx=000176 GeodesicLength=1.2986366669170333 rxn_smarts="[C:1]([C:2]([O:3][C:4]([C:5](=[O:6])[H:14])([H:12])[H:13])([H:10])[H:11])([H:7])([H:8])[H:9]>>[C:1]([C:2]([O:3][C@:5]1([H:14])[C:4]([H:12])([H:13])[O:6]1)([H:10])[H:11])([H:7])([H:8])[H:9]"
C       -2.09040801      -0.43297574      -0.50546265
C       -0.58369535      -0.52584958      -0.55145558
O       -0.03616003       0.37545410       0.39415857
C        1.54364331       1.20782672       0.44583791
C        1.55207724      -0.20175350       0.82404288
O        2.73049484      -0.17177362       0.30137180
H       -2.41262152       0.57055010      -0.78555493
H       -2.46246606      -0.65024506       0.49636232
H       -2.53275448      -1.14935585      -1.19975161
H       -0.25741159      -1.54593608      -0.30578341
H       -0.21433283      -0.30851197      -1.56103983
H        1.84538968       1.90215268       1.22851665
H        1.59509016       1.60798707      -0.56431871
H        1.32315463      -0.67756929       1.78307660
14
Frame=16 idx=000176 GeodesicLength=1.3787816166396316 rxn_smarts="[C:1]([C:2]([O:3][C:4]([C:5](=[O:6])[H:14])([H:12])[H:13])([H:10])[H:11])([H:7])([H:8])[H:9]>>[C:1]([C:2]([O:3][C@:5]1([H:14])[C:4]([H:12])([H:13])[O:6]1)([H:10])[H:11])([H:7])([H:8])[H:9]"
C       -2.09188511      -0.40989314      -0.51904555
C       -0.58921370      -0.55664997      -0.52358558
O       -0.03209690       0.35624425       0.40530038
C        1.51917352       1.20646899       0.45295497
C        1.59021152      -0.21521985       0.78300796
O        2.77129486      -0.08326562       0.28064563
H       -2.37023572       0.59207489      -0.84738252
H       -2.49569654      -0.57150722       0.48103336
H       -2.54268216      -1.13897489      -1.19424467
H       -0.30303753      -1.57539496      -0.22566112
H       -0.18775236      -0.39077584      -1.53099084
H        1.80544272       1.88019622       1.25911755
H        1.54390241       1.65026663      -0.54024338
H        1.38257499      -0.74356949       1.71909381
