14
Frame=0 idx=007007 GeodesicLength=0.0 rxn_smarts="[C:1]([C@@:2]1([H:11])[C:3]([H:12])=[C:4]([H:13])[N:5]([H:14])[C:6]1=[O:7])([H:8])([H:9])[H:10]>>[C:1]1([H:9])([H:10])[C@:2](/[C:3](=[C:4](\[N:5]([H:8])[H:14])[H:13])[H:12])([H:11])[C:6]1=[O:7]"
C       -1.52445672      -0.18240223       0.29776310
C       -0.58536697       0.27546719      -0.83571512
C        0.42808349       1.26798342      -0.35335127
C        1.30436473       0.71676816       0.47691553
N        0.98276003      -0.66950038       0.67033840
C        0.09924449      -1.02542455      -0.62644992
O        0.15926109      -2.09974649      -1.11959239
H        0.02049467      -0.74954808       1.19222079
H       -2.37041635      -0.74900188      -0.07785674
H       -1.81197679       0.62764591       0.96682593
H       -0.98136782       0.44646572      -1.83713067
H        0.42884786       2.31004626      -0.63705030
H        2.12715055       1.16149181       1.01378471
H        1.72337770      -1.33024483       0.86929790
14
Frame=1 idx=007007 GeodesicLength=0.12327371595748934 rxn_smarts="[C:1]([C@@:2]1([H:11])[C:3]([H:12])=[C:4]([H:13])[N:5]([H:14])[C:6]1=[O:7])([H:8])([H:9])[H:10]>>[C:1]1([H:9])([H:10])[C@:2](/[C:3](=[C:4](\[N:5]([H:8])[H:14])[H:13])[H:12])([H:11])[C:6]1=[O:7]"
C       -1.52719515      -0.18589029       0.28982112
C       -0.58207973       0.28235116      -0.83459828
C        0.43655837       1.26882877      -0.35145767
C        1.32508843       0.71208161       0.46292957
N        0.99490300      -0.66725502       0.67445915
C        0.08509488      -1.02776665      -0.62914817
O        0.14509265      -2.10495818      -1.11761476
H        0.00567228      -0.73470073       1.20891640
H       -2.36494256      -0.77492832      -0.07012501
H       -1.84912673       0.62853810       0.93703885
H       -0.97453793       0.45667824      -1.83661730
H        0.41733769       2.31911724      -0.60220593
H        2.15505900       1.15621962       0.98925765
H        1.73307582      -1.32831555       0.87934438
14
Frame=2 idx=007007 GeodesicLength=0.24606226635717302 rxn_smarts="[C:1]([C@@:2]1([H:11])[C:3]([H:12])=[C:4]([H:13])[N:5]([H:14])[C:6]1=[O:7])([H:8])([H:9])[H:10]>>[C:1]1([H:9])([H:10])[C@:2](/[C:3](=[C:4](\[N:5]([H:8])[H:14])[H:13])[H:12])([H:11])[C:6]1=[O:7]"
C       -1.53007899      -0.18922421       0.28184914
C       -0.57887642       0.28927093      -0.83335424
C        0.44501992       1.26968694      -0.34952050
C        1.34555087       0.70727171       0.44869040
N        1.00748255      -0.66498957       0.67831613
C        0.07084373      -1.02986521      -0.63216726
O        0.13085508      -2.10999220      -1.11574240
H       -0.00979073      -0.71896708       1.22577278
H       -2.35922392      -0.80050354      -0.06142413
H       -1.88624190       0.62848046       0.90611748
H       -0.96783199       0.46705249      -1.83592616
H        0.40663270       2.32691000      -0.56671124
H        2.18233996       1.15093949       0.96466415
H        1.74331913      -1.32607022       0.88943586
14
Frame=3 idx=007007 GeodesicLength=0.3685116212478091 rxn_smarts="[C:1]([C@@:2]1([H:11])[C:3]([H:12])=[C:4]([H:13])[N:5]([H:14])[C:6]1=[O:7])([H:8])([H:9])[H:10]>>[C:1]1([H:9])([H:10])[C@:2](/[C:3](=[C:4](\[N:5]([H:8])[H:14])[H:13])[H:12])([H:11])[C:6]1=[O:7]"
C       -1.53312664      -0.19241185       0.27384092
C       -0.57576528       0.29623772      -0.83196919
C        0.45345494       1.27055428      -0.34750257
C        1.36570535       0.70235393       0.43426596
N        1.02053342      -0.66273375       0.68186891
C        0.05647274      -1.03171426      -0.63552419
O        0.11653418      -2.11483658      -1.11399716
H       -0.02598618      -0.70233386       1.24280947
H       -2.35324806      -0.82573833      -0.05170390
H       -1.92328793       0.62742209       0.87407362
H       -0.96125191       0.47762208      -1.83504102
H        0.39683886       2.33340750      -0.53072712
H        2.20895627       1.14567294       0.94007888
H        1.75417023      -1.32350194       0.89952739
14
Frame=4 idx=007007 GeodesicLength=0.49077791357315537 rxn_smarts="[C:1]([C@@:2]1([H:11])[C:3]([H:12])=[C:4]([H:13])[N:5]([H:14])[C:6]1=[O:7])([H:8])([H:9])[H:10]>>[C:1]1([H:9])([H:10])[C@:2](/[C:3](=[C:4](\[N:5]([H:8])[H:14])[H:13])[H:12])([H:11])[C:6]1=[O:7]"
C       -1.53635876      -0.19546262       0.26578098
C       -0.57274855       0.30325767      -0.83042962
C        0.46185616       1.27142296      -0.34536465
C        1.38551103       0.69733969       0.41973577
N        1.03409223      -0.66052608       0.68508437
C        0.04196603      -1.03331360      -0.63923405
O        0.10211803      -2.11948731      -1.11239465
H       -0.04302799      -0.68476140       1.26005633
H       -2.34698470      -0.85063850      -0.04091259
H       -1.96026630       0.62532104       0.84087336
H       -0.95478828       0.48841395      -1.83394621
H        0.38800008       2.33862484      -0.49433591
H        2.23493942       1.14041971       0.91549654
H        1.76569161      -1.32061035       0.90959033
14
Frame=5 idx=007007 GeodesicLength=0.6128904171828571 rxn_smarts="[C:1]([C@@:2]1([H:11])[C:3]([H:12])=[C:4]([H:13])[N:5]([H:14])[C:6]1=[O:7])([H:8])([H:9])[H:10]>>[C:1]1([H:9])([H:10])[C@:2](/[C:3](=[C:4](\[N:5]([H:8])[H:14])[H:13])[H:12])([H:11])[C:6]1=[O:7]"
C       -1.53978847      -0.19838228       0.25765708
C       -0.56982908       0.31033498      -0.82872847
C        0.47022032       1.27228074      -0.34308629
C        1.40494938       0.69223777       0.40514373
N        1.04818774      -0.65841567       0.68792432
C        0.02730566      -1.03466421      -0.64332076
O        0.08758042      -2.12394330      -1.11095612
H       -0.06100681      -0.66619847       1.27753158
H       -2.34039890      -0.87520033      -0.02897790
H       -1.99713537       0.62213167       0.80650404
H       -0.94843745       0.49945415      -1.83263173
H        0.38016026       2.34257274      -0.45764778
H        2.26025202       1.13519827       0.89100382
H        1.77794028      -1.31740607       0.91958447
14
Frame=6 idx=007007 GeodesicLength=0.7350206060645086 rxn_smarts="[C:1]([C@@:2]1([H:11])[C:3]([H:12])=[C:4]([H:13])[N:5]([H:14])[C:6]1=[O:7])([H:8])([H:9])[H:10]>>[C:1]1([H:9])([H:10])[C@:2](/[C:3](=[C:4](\[N:5]([H:8])[H:14])[H:13])[H:12])([H:11])[C:6]1=[O:7]"
C       -1.54343539      -0.20118127       0.24945510
C       -0.56700484       0.31747218      -0.82684421
C        0.47853741       1.27311856      -0.34061122
C        1.42399027       0.68705924       0.39058204
N        1.06288045      -0.65645627       0.69033397
C        0.01247494      -1.03576743      -0.64779431
O        0.07290013      -2.12820365      -1.10969062
H       -0.08006040      -0.64658108       1.29527325
H       -2.33346249      -0.89940293      -0.01583936
H       -2.03392232       0.61779404       0.77089356
H       -0.94218093       0.51076771      -1.83107464
H        0.37334061       2.34527134      -0.42073331
H        2.28494258       1.13000909       0.86658023
H        1.79100000      -1.31389952       0.92946950
14
Frame=7 idx=007007 GeodesicLength=0.8572292859481343 rxn_smarts="[C:1]([C@@:2]1([H:11])[C:3]([H:12])=[C:4]([H:13])[N:5]([H:14])[C:6]1=[O:7])([H:8])([H:9])[H:10]>>[C:1]1([H:9])([H:10])[C@:2](/[C:3](=[C:4](\[N:5]([H:8])[H:14])[H:13])[H:12])([H:11])[C:6]1=[O:7]"
C       -1.54731238      -0.20386626       0.24116915
C       -0.56427310       0.32466575      -0.82475961
C        0.48680299       1.27391746      -0.33790185
C        1.44262100       0.68180682       0.37610772
N        1.07823178      -0.65471459       0.69224864
C       -0.00254907      -1.03663103      -0.65266532
O        0.05803681      -2.13227558      -1.10860364
H       -0.10030213      -0.62581025       1.31331180
H       -2.32614340      -0.92320147      -0.00140963
H       -2.07063597       0.61224437       0.73396265
H       -0.93599935       0.52237382      -1.82925604
H        0.36756095       2.34673339      -0.38367072
H        2.30898574       1.12486657       0.84230731
H        1.80497612      -1.31010902       0.93915954
14
Frame=8 idx=007007 GeodesicLength=0.9796269080739379 rxn_smarts="[C:1]([C@@:2]1([H:11])[C:3]([H:12])=[C:4]([H:13])[N:5]([H:14])[C:6]1=[O:7])([H:8])([H:9])[H:10]>>[C:1]1([H:9])([H:10])[C@:2](/[C:3](=[C:4](\[N:5]([H:8])[H:14])[H:13])[H:12])([H:11])[C:6]1=[O:7]"
C       -1.55143385      -0.20644046       0.23278802
C       -0.56162799       0.33191317      -0.82245208
C        0.49501137       1.27466568      -0.33490344
C        1.46084657       0.67648598       0.36178461
N        1.09431046      -0.65326257       0.69359268
C       -0.01778455      -1.03725777      -0.65794290
O        0.04295332      -2.13616111      -1.10769986
H       -0.12188895      -0.60376488       1.33169009
H       -2.31839791      -0.94654846       0.01439208
H       -2.10729574       0.60538078       0.69559080
H       -0.92987321       0.53429075      -1.82715058
H        0.36279565       2.34699090      -0.34647694
H        2.33243836       1.11977057       0.81816686
H        1.81994647      -1.30606261       0.94862067
14
Frame=9 idx=007007 GeodesicLength=1.102642032125979 rxn_smarts="[C:1]([C@@:2]1([H:11])[C:3]([H:12])=[C:4]([H:13])[N:5]([H:14])[C:6]1=[O:7])([H:8])([H:9])[H:10]>>[C:1]1([H:9])([H:10])[C@:2](/[C:3](=[C:4](\[N:5]([H:8])[H:14])[H:13])[H:12])([H:11])[C:6]1=[O:7]"
C       -1.55584663      -0.20891767       0.22436797
C       -0.55906280       0.33916662      -0.81983707
C        0.50313437       1.27531052      -0.33148790
C        1.47861711       0.67106535       0.34779269
N        1.11140896      -0.65222740       0.69405966
C       -0.03329946      -1.03769801      -0.66352291
O        0.02752718      -2.13990518      -1.10688897
H       -0.14491220      -0.58029247       1.35052331
H       -2.31028228      -0.96936193       0.03151254
H       -2.14399327       0.59737116       0.65557025
H       -0.92374551       0.54648770      -1.82469171
H        0.35899636       2.34601910      -0.30934799
H        2.35516106       1.11473622       0.79447942
H        1.83629711      -1.30175401       0.95747072
14
Frame=10 idx=007007 GeodesicLength=1.2258687086659013 rxn_smarts="[C:1]([C@@:2]1([H:11])[C:3]([H:12])=[C:4]([H:13])[N:5]([H:14])[C:6]1=[O:7])([H:8])([H:9])[H:10]>>[C:1]1([H:9])([H:10])[C@:2](/[C:3](=[C:4](\[N:5]([H:8])[H:14])[H:13])[H:12])([H:11])[C:6]1=[O:7]"
C       -1.56051639      -0.21129132       0.21584650
C       -0.55656604       0.34645035      -0.81695722
C        0.51120621       1.27585208      -0.32769487
C        1.49601508       0.66557298       0.33404075
N        1.12940567      -0.65165537       0.69375735
C       -0.04907072      -1.03792647      -0.66952306
O        0.01176894      -2.14349618      -1.10624861
H       -0.16959855      -0.55519031       1.36974770
H       -2.30164573      -0.99156860       0.05017386
H       -2.18063756       0.58782035       0.61384260
H       -0.91762889       0.55901722      -1.82189659
H        0.35609516       2.34391575      -0.27203762
H        2.37735180       1.10976559       0.77096315
H        1.85382102      -1.29726607       0.96598606
14
Frame=11 idx=007007 GeodesicLength=1.3491989654684988 rxn_smarts="[C:1]([C@@:2]1([H:11])[C:3]([H:12])=[C:4]([H:13])[N:5]([H:14])[C:6]1=[O:7])([H:8])([H:9])[H:10]>>[C:1]1([H:9])([H:10])[C@:2](/[C:3](=[C:4](\[N:5]([H:8])[H:14])[H:13])[H:12])([H:11])[C:6]1=[O:7]"
C       -1.56544649      -0.21357830       0.20723116
C       -0.55413715       0.35374758      -0.81379083
C        0.51922239       1.27625851      -0.32348858
C        1.51306317       0.66000150       0.32054241
N        1.14838148      -0.65164211       0.69256380
C       -0.06512440      -1.03795376      -0.67595725
O       -0.00437450      -2.14694792      -1.10577395
H       -0.19608124      -0.52826595       1.38938729
H       -2.29243151      -1.01308625       0.07044232
H       -2.21719702       0.57665192       0.57032389
H       -0.91151386       0.57188859      -1.81873795
H        0.35405604       2.34068036      -0.23456357
H        2.39896728       1.10488050       0.74773771
H        1.87261582      -1.29263469       0.97408356
14
Frame=12 idx=007007 GeodesicLength=1.47257823988567 rxn_smarts="[C:1]([C@@:2]1([H:11])[C:3]([H:12])=[C:4]([H:13])[N:5]([H:14])[C:6]1=[O:7])([H:8])([H:9])[H:10]>>[C:1]1([H:9])([H:10])[C@:2](/[C:3](=[C:4](\[N:5]([H:8])[H:14])[H:13])[H:12])([H:11])[C:6]1=[O:7]"
C       -1.57063486      -0.21579839       0.19854005
C       -0.55177121       0.36103624      -0.81030509
C        0.52718175       1.27649541      -0.31881720
C        1.52980079       0.65434761       0.30730564
N        1.16843786      -0.65229103       0.69034546
C       -0.08148477      -1.03779611      -0.68282967
O       -0.02096603      -2.15028023      -1.10545064
H       -0.22454179      -0.49927410       1.40946521
H       -2.28257845      -1.03380498       0.09237162
H       -2.25367224       0.56374779       0.52485395
H       -0.90539075       0.58510553      -1.81517111
H        0.35281295       2.33630666      -0.19683284
H        2.42002775       1.10010193       0.72482045
H        1.89277902      -1.28789635       0.98170418
14
Frame=13 idx=007007 GeodesicLength=1.5958907281048416 rxn_smarts="[C:1]([C@@:2]1([H:11])[C:3]([H:12])=[C:4]([H:13])[N:5]([H:14])[C:6]1=[O:7])([H:8])([H:9])[H:10]>>[C:1]1([H:9])([H:10])[C@:2](/[C:3](=[C:4](\[N:5]([H:8])[H:14])[H:13])[H:12])([H:11])[C:6]1=[O:7]"
C       -1.57608220      -0.21795827       0.18980337
C       -0.54946476       0.36829799      -0.80646440
C        0.53508260       1.27653083      -0.31362948
C        1.54626823       0.64860094       0.29431875
N        1.18968120      -0.65370439       0.68695439
C       -0.09818390      -1.03746384      -0.69013773
O       -0.03808683      -2.15351351      -1.10523884
H       -0.25514928      -0.46792835       1.43000820
H       -2.27204475      -1.05357480       0.11599994
H       -2.29004129       0.54890578       0.47725696
H       -0.89925165       0.59867723      -1.81115530
H        0.35230596       2.33076417      -0.15874586
H        2.44054235       1.09544495       0.70226909
H        1.91442432      -1.28307872       0.98876091
14
Frame=14 idx=007007 GeodesicLength=1.7190968965900149 rxn_smarts="[C:1]([C@@:2]1([H:11])[C:3]([H:12])=[C:4]([H:13])[N:5]([H:14])[C:6]1=[O:7])([H:8])([H:9])[H:10]>>[C:1]1([H:9])([H:10])[C@:2](/[C:3](=[C:4](\[N:5]([H:8])[H:14])[H:13])[H:12])([H:11])[C:6]1=[O:7]"
C       -1.58178886      -0.22006401       0.18107518
C       -0.54721538       0.37551100      -0.80220345
C        0.54291692       1.27632741      -0.30783489
C        1.56249362       0.64276345       0.28162202
N        1.21226453      -0.65599299       0.68218377
C       -0.11525371      -1.03696318      -0.69785671
O       -0.05581471      -2.15665767      -1.10508974
H       -0.28813575      -0.43391343       1.45105321
H       -2.26085080      -1.07223381       0.14124498
H       -2.32625920       0.53185544       0.42739930
H       -0.89308380       0.61261111      -1.80660665
H        0.35250552       2.32402927      -0.12023575
H        2.46055570       1.09092944       0.68005064
H        1.93766592      -1.27820203       0.99519807
14
Frame=15 idx=007007 GeodesicLength=1.8420706782964218 rxn_smarts="[C:1]([C@@:2]1([H:11])[C:3]([H:12])=[C:4]([H:13])[N:5]([H:14])[C:6]1=[O:7])([H:8])([H:9])[H:10]>>[C:1]1([H:9])([H:10])[C@:2](/[C:3](=[C:4](\[N:5]([H:8])[H:14])[H:13])[H:12])([H:11])[C:6]1=[O:7]"
C       -1.58775513      -0.22211098       0.17241706
C       -0.54501977       0.38265287      -0.79746338
C        0.55068252       1.27584706      -0.30135731
C        1.57851997       0.63683345       0.26921362
N        1.23634199      -0.65927262       0.67580764
C       -0.13273283      -1.03630296      -0.70595560
O       -0.07424637      -2.15972900      -1.10493347
H       -0.32373484      -0.39686124       1.47261409
H       -2.24903477      -1.08959010       0.16801345
H       -2.36222075       0.51225865       0.37516571
H       -0.88687968       0.62691308      -1.80145670
H        0.35336886       2.31606840      -0.08120485
H        2.48009531       1.08657606       0.65819824
H        1.96261550      -1.27328268       1.00094150
14
Frame=16 idx=007007 GeodesicLength=1.96471343713833 rxn_smarts="[C:1]([C@@:2]1([H:11])[C:3]([H:12])=[C:4]([H:13])[N:5]([H:14])[C:6]1=[O:7])([H:8])([H:9])[H:10]>>[C:1]1([H:9])([H:10])[C@:2](/[C:3](=[C:4](\[N:5]([H:8])[H:14])[H:13])[H:12])([H:11])[C:6]1=[O:7]"
C       -1.59397815      -0.22407913       0.16390738
C       -0.54287699       0.38970837      -0.79217570
C        0.55838156       1.27505321      -0.29410557
C        1.59440034       0.63080806       0.25708837
N        1.26209612      -0.66366647       0.66757620
C       -0.15066514      -1.03548849      -0.71439900
O       -0.09348762      -2.16274395      -1.10469376
H       -0.36223977      -0.35633132       1.49467162
H       -2.23665834      -1.10543845       0.19618248
H       -2.39778148       0.48967801       0.32042688
H       -0.88064111       0.64160107      -1.79562396
H        0.35484837       2.30683300      -0.04148910
H        2.49923035       1.08239170       0.63667727
H        1.98937187      -1.26832562       1.00595688
