9
Frame=0 idx=002052 GeodesicLength=0.0 rxn_smarts="[N:1]([C:2]([C:3]#[N:4])([C:5]#[N:6])[H:9])([H:7])[H:8]>>[N:1]([C:2](=[C:3]=[N:4][H:9])[C:5]#[N:6])([H:7])[H:8]"
N       -1.08892043      -0.81545669      -0.45767174
C       -0.10843459       0.13631819      -0.23761207
C        1.21692272      -0.22002530       0.05808112
N        2.35096673      -0.65553433       0.05162274
C       -0.47072055       1.49163640      -0.05008922
N       -0.77315632       2.59298192       0.10532846
H       -1.83214705      -0.89348263       0.21845324
H       -0.77718199      -1.69797851      -0.82392036
H        1.48267150       0.06154099       1.13580786
9
Frame=1 idx=002052 GeodesicLength=0.09379396562297679 rxn_smarts="[N:1]([C:2]([C:3]#[N:4])([C:5]#[N:6])[H:9])([H:7])[H:8]>>[N:1]([C:2](=[C:3]=[N:4][H:9])[C:5]#[N:6])([H:7])[H:8]"
N       -1.08402741      -0.81852154      -0.44333585
C       -0.10899842       0.13879489      -0.20961179
C        1.23428452      -0.19624706       0.01378480
N        2.34315662      -0.68347557       0.07073283
C       -0.47461885       1.49905775      -0.05003774
N       -0.77916473       2.60190913       0.09185490
H       -1.82469663      -0.90706638       0.23427974
H       -0.76932865      -1.68510475      -0.84451654
H        1.46339356       0.05065354       1.13684965
9
Frame=2 idx=002052 GeodesicLength=0.18643750282113625 rxn_smarts="[N:1]([C:2]([C:3]#[N:4])([C:5]#[N:6])[H:9])([H:7])[H:8]>>[N:1]([C:2](=[C:3]=[N:4][H:9])[C:5]#[N:6])([H:7])[H:8]"
N       -1.07784059      -0.82077060      -0.42804543
C       -0.10836054       0.13945031      -0.17647338
C        1.24754365      -0.17562403      -0.02454274
N        2.33115535      -0.70292377       0.08320001
C       -0.47757408       1.50304494      -0.04633371
N       -0.78105583       2.60829057       0.07045879
H       -1.81599375      -0.92236419       0.24979320
H       -0.76257044      -1.66715284      -0.86826396
H        1.44469622       0.03804962       1.14020722
9
Frame=3 idx=002052 GeodesicLength=0.27985473351533524 rxn_smarts="[N:1]([C:2]([C:3]#[N:4])([C:5]#[N:6])[H:9])([H:7])[H:8]>>[N:1]([C:2](=[C:3]=[N:4][H:9])[C:5]#[N:6])([H:7])[H:8]"
N       -1.07260816      -0.82399696      -0.41274372
C       -0.10648039       0.13813979      -0.14304161
C        1.25874890      -0.15971172      -0.05819759
N        2.32170864      -0.71310026       0.09198925
C       -0.47945452       1.50583671      -0.04416243
N       -0.78061936       2.61393267       0.04850605
H       -1.80959856      -0.93672242       0.26446603
H       -0.75931985      -1.64906508      -0.89320155
H        1.42762331       0.02468727       1.14638557
9
Frame=4 idx=002052 GeodesicLength=0.3729796574705308 rxn_smarts="[N:1]([C:2]([C:3]#[N:4])([C:5]#[N:6])[H:9])([H:7])[H:8]>>[N:1]([C:2](=[C:3]=[N:4][H:9])[C:5]#[N:6])([H:7])[H:8]"
N       -1.06662393      -0.82695423      -0.39692678
C       -0.10304609       0.13618376      -0.11150074
C        1.26739698      -0.14652055      -0.08908931
N        2.31273159      -0.71786158       0.09882683
C       -0.47990116       1.50688668      -0.04267017
N       -0.77957895       2.61670589       0.02559438
H       -1.80166912      -0.95021633       0.27994326
H       -0.75877314      -1.62819886      -0.91859233
H        1.40946382       0.00997524       1.15441487
9
Frame=5 idx=002052 GeodesicLength=0.46629793976406253 rxn_smarts="[N:1]([C:2]([C:3]#[N:4])([C:5]#[N:6])[H:9])([H:7])[H:8]>>[N:1]([C:2](=[C:3]=[N:4][H:9])[C:5]#[N:6])([H:7])[H:8]"
N       -1.06072199      -0.83057087      -0.38116992
C       -0.09817533       0.13370024      -0.08323689
C        1.27492395      -0.13605505      -0.11826683
N        2.30537577      -0.71722962       0.10522803
C       -0.47946192       1.50712679      -0.04231992
N       -0.77808368       2.61818367       0.00359016
H       -1.79380307      -0.96232372       0.29603641
H       -0.76102856      -1.60678190      -0.94380847
H        1.39097483      -0.00604955       1.16394742
9
Frame=6 idx=002052 GeodesicLength=0.559528162589013 rxn_smarts="[N:1]([C:2]([C:3]#[N:4])([C:5]#[N:6])[H:9])([H:7])[H:8]>>[N:1]([C:2](=[C:3]=[N:4][H:9])[C:5]#[N:6])([H:7])[H:8]"
N       -1.05420612      -0.83432478      -0.36561074
C       -0.09197943       0.13101388      -0.05879484
C        1.28109329      -0.12752470      -0.14666558
N        2.29917302      -0.71277963       0.11155051
C       -0.47791006       1.50636181      -0.04365657
N       -0.77653606       2.61762991      -0.01642696
H       -1.78479989      -0.97269852       0.31242709
H       -0.76553991      -1.58455503      -0.96733910
H        1.37070516      -0.02312293       1.17451618
9
Frame=7 idx=002052 GeodesicLength=0.6528264660438121 rxn_smarts="[N:1]([C:2]([C:3]#[N:4])([C:5]#[N:6])[H:9])([H:7])[H:8]>>[N:1]([C:2](=[C:3]=[N:4][H:9])[C:5]#[N:6])([H:7])[H:8]"
N       -1.04754466      -0.83871427      -0.35020859
C       -0.08472717       0.12803325      -0.03687331
C        1.28666202      -0.12089150      -0.17453838
N        2.29418227      -0.70453162       0.11820371
C       -0.47583956       1.50497774      -0.04472901
N       -0.77474979       2.61620942      -0.03651918
H       -1.77552869      -0.98234749       0.32925408
H       -0.77259173      -1.56140327      -0.99070539
H        1.35013732      -0.04133225       1.18611607
9
Frame=8 idx=002052 GeodesicLength=0.74625494393537 rxn_smarts="[N:1]([C:2]([C:3]#[N:4])([C:5]#[N:6])[H:9])([H:7])[H:8]>>[N:1]([C:2](=[C:3]=[N:4][H:9])[C:5]#[N:6])([H:7])[H:8]"
N       -1.04056101      -0.84367330      -0.33478801
C       -0.07662704       0.12465398      -0.01682767
C        1.29147389      -0.11583692      -0.20214795
N        2.29085664      -0.69263657       0.12509023
C       -0.47337886       1.50290123      -0.04458748
N       -0.77233229       2.61390334      -0.05805165
H       -1.76540005      -0.99214973       0.34671978
H       -0.78261236      -1.53623685      -1.01430590
H        1.32858107      -0.06092518       1.19889864
9
Frame=9 idx=002052 GeodesicLength=0.8396974329235518 rxn_smarts="[N:1]([C:2]([C:3]#[N:4])([C:5]#[N:6])[H:9])([H:7])[H:8]>>[N:1]([C:2](=[C:3]=[N:4][H:9])[C:5]#[N:6])([H:7])[H:8]"
N       -1.03311985      -0.84894567      -0.31970690
C       -0.06760502       0.12086226       0.00139134
C        1.29544140      -0.11247396      -0.23001382
N        2.28771515      -0.67636230       0.13263355
C       -0.47024900       1.49981004      -0.04383226
N       -0.76936621       2.60981590      -0.08004352
H       -1.75460644      -1.00097557       0.36417406
H       -0.79485733      -1.50954074      -1.03700180
H        1.30664730      -0.08218995       1.21239935
9
Frame=10 idx=002052 GeodesicLength=0.9332630308734915 rxn_smarts="[N:1]([C:2]([C:3]#[N:4])([C:5]#[N:6])[H:9])([H:7])[H:8]>>[N:1]([C:2](=[C:3]=[N:4][H:9])[C:5]#[N:6])([H:7])[H:8]"
N       -1.02565123      -0.85498905      -0.30510932
C       -0.05775750       0.11655653       0.01781296
C        1.29925258      -0.11094118      -0.25840626
N        2.28628718      -0.65581881       0.14082282
C       -0.46650512       1.49653151      -0.04274729
N       -0.76597971       2.60539440      -0.10200218
H       -1.74411058      -1.00932842       0.38136482
H       -0.80964014      -1.48229007      -1.05854956
H        1.28410452      -0.10511491       1.22681401
9
Frame=11 idx=002052 GeodesicLength=1.0269608204602059 rxn_smarts="[N:1]([C:2]([C:3]#[N:4])([C:5]#[N:6])[H:9])([H:7])[H:8]>>[N:1]([C:2](=[C:3]=[N:4][H:9])[C:5]#[N:6])([H:7])[H:8]"
N       -1.01749606      -0.86134214      -0.29081620
C       -0.04700102       0.11158192       0.03258553
C        1.30204410      -0.11126125      -0.28754554
N        2.28539045      -0.63017365       0.14994504
C       -0.46191969       1.49200825      -0.04139390
N       -0.76150541       2.59885434      -0.12434316
H       -1.73242889      -1.01701625       0.39860759
H       -0.82737144      -1.45287993      -1.07914811
H        1.26028796      -0.12977129       1.24210877
9
Frame=12 idx=002052 GeodesicLength=1.120599589059148 rxn_smarts="[N:1]([C:2]([C:3]#[N:4])([C:5]#[N:6])[H:9])([H:7])[H:8]>>[N:1]([C:2](=[C:3]=[N:4][H:9])[C:5]#[N:6])([H:7])[H:8]"
N       -1.00960632      -0.86806899      -0.27755575
C       -0.03539949       0.10609693       0.04555507
C        1.30466131      -0.11358577      -0.31790867
N        2.28515198      -0.59897697       0.16003316
C       -0.45645482       1.48732383      -0.04029264
N       -0.75610469       2.59205234      -0.14567585
H       -1.72129276      -1.02388068       0.41515635
H       -0.84677724      -1.42406882      -1.09723858
H        1.23582202      -0.15689187       1.25792692
9
Frame=13 idx=002052 GeodesicLength=1.214565888195467 rxn_smarts="[N:1]([C:2]([C:3]#[N:4])([C:5]#[N:6])[H:9])([H:7])[H:8]>>[N:1]([C:2](=[C:3]=[N:4][H:9])[C:5]#[N:6])([H:7])[H:8]"
N       -1.00149154      -0.87507118      -0.26492059
C       -0.02302156       0.09977038       0.05732253
C        1.30656287      -0.11838214      -0.34938575
N        2.28435364      -0.56046020       0.17080663
C       -0.44997860       1.48182129      -0.03822627
N       -0.74884465       2.58390639      -0.16774984
H       -1.70967396      -1.03000352       0.43138484
H       -0.86818062      -1.39433571      -1.11363200
H        1.21027443      -0.18724531       1.27440046
9
Frame=14 idx=002052 GeodesicLength=1.3084529294948415 rxn_smarts="[N:1]([C:2]([C:3]#[N:4])([C:5]#[N:6])[H:9])([H:7])[H:8]>>[N:1]([C:2](=[C:3]=[N:4][H:9])[C:5]#[N:6])([H:7])[H:8]"
N       -0.99362501      -0.88214005      -0.25333323
C       -0.00976182       0.09277436       0.06738882
C        1.30818681      -0.12547584      -0.38209635
N        2.28269941      -0.51500853       0.18266591
C       -0.44257364       1.47580400      -0.03677553
N       -0.73967674       2.57527462      -0.18886313
H       -1.69781782      -1.03570980       0.44724623
H       -0.89126595      -1.36489172      -1.12755976
H        1.18383476      -0.22062702       1.29132704
9
Frame=15 idx=002052 GeodesicLength=1.4024987228867327 rxn_smarts="[N:1]([C:2]([C:3]#[N:4])([C:5]#[N:6])[H:9])([H:7])[H:8]>>[N:1]([C:2](=[C:3]=[N:4][H:9])[C:5]#[N:6])([H:7])[H:8]"
N       -0.98579700      -0.88906749      -0.24282986
C        0.00438391       0.08526273       0.07612002
C        1.30955434      -0.13446252      -0.41577055
N        2.27804148      -0.46360497       0.19513358
C       -0.43436396       1.46927485      -0.03550840
N       -0.72835954       2.56610383      -0.20928915
H       -1.68523126      -1.04123139       0.46278617
H       -0.91505884      -1.33583428      -1.13916164
H        1.15683086      -0.25644075       1.30851984
9
Frame=16 idx=002052 GeodesicLength=1.496662040884751 rxn_smarts="[N:1]([C:2]([C:3]#[N:4])([C:5]#[N:6])[H:9])([H:7])[H:8]>>[N:1]([C:2](=[C:3]=[N:4][H:9])[C:5]#[N:6])([H:7])[H:8]"
N       -0.97761392      -0.89557186      -0.23345302
C        0.01935928       0.07763603       0.08380091
C        1.31096356      -0.14431199      -0.44979539
N        2.26843519      -0.41000104       0.20746643
C       -0.42585609       1.46251080      -0.03443779
N       -0.71565930       2.55667361      -0.22883609
H       -1.67127061      -1.04689730       0.47794265
H       -0.93813556      -1.30717336      -1.14848761
H        1.12977746      -0.29286490       1.32579991
