11
Frame=0 idx=004389 GeodesicLength=0.0 rxn_smarts="[O:1]=[C:2]1[N:3]([H:7])[C:4]([H:8])([H:9])[C:5]([H:10])=[C:6]1[H:11]>>[O:1]([C+:2]1[N:3]([H:7])[C:4]([H:8])([H:9])[C-:5]=[C:6]1[H:11])[H:10]"
O        1.30337583      -0.15022754       1.11808876
C        0.90540848      -0.21117120      -0.11978003
N       -0.01244810      -1.22357926      -0.56888120
C       -1.12674874      -0.34271215      -0.19537912
C       -0.34745230       1.00425213       0.02508501
C        0.79156996       1.09751761      -0.72003404
H        0.05280827      -2.02489641       0.04381908
H       -1.63735875      -0.63214058       0.72094436
H       -1.85215225      -0.21310941      -0.99801906
H        0.39042381       0.82613190       1.26174884
H        1.53257381       1.86993495      -0.56759265
11
Frame=1 idx=004389 GeodesicLength=0.2836738389806201 rxn_smarts="[O:1]=[C:2]1[N:3]([H:7])[C:4]([H:8])([H:9])[C:5]([H:10])=[C:6]1[H:11]>>[O:1]([C+:2]1[N:3]([H:7])[C:4]([H:8])([H:9])[C-:5]=[C:6]1[H:11])[H:10]"
O        1.34721014      -0.19731298       1.10318488
C        0.89693052      -0.21992300      -0.11493087
N       -0.02180583      -1.23095215      -0.53671151
C       -1.14385925      -0.34560330      -0.21256785
C       -0.37946189       1.00381326      -0.01353500
C        0.79267739       1.10215567      -0.68829376
H        0.03488920      -2.04285071       0.06050311
H       -1.67854276      -0.61166724       0.69738975
H       -1.85059271      -0.24791049      -1.03671633
H        0.51799462       0.87255873       1.27326526
H        1.48456056       1.91769221      -0.53158767
11
Frame=2 idx=004389 GeodesicLength=0.5665012736283155 rxn_smarts="[O:1]=[C:2]1[N:3]([H:7])[C:4]([H:8])([H:9])[C:5]([H:10])=[C:6]1[H:11]>>[O:1]([C+:2]1[N:3]([H:7])[C:4]([H:8])([H:9])[C-:5]=[C:6]1[H:11])[H:10]"
O        1.39412570      -0.24527430       1.08698008
C        0.88584106      -0.22634154      -0.10521371
N       -0.03204616      -1.23668027      -0.50057295
C       -1.16270441      -0.34871265      -0.23244263
C       -0.41487061       1.00383276      -0.05533609
C        0.79024173       1.10905596      -0.65059066
H        0.01609821      -2.05941622       0.08050775
H       -1.72473628      -0.59058284       0.66796410
H       -1.84684620      -0.28554072      -1.07929108
H        0.66349397       0.91432807       1.28490284
H        1.43140300       1.96533176      -0.49690765
11
Frame=3 idx=004389 GeodesicLength=0.8475567142641156 rxn_smarts="[O:1]=[C:2]1[N:3]([H:7])[C:4]([H:8])([H:9])[C:5]([H:10])=[C:6]1[H:11]>>[O:1]([C+:2]1[N:3]([H:7])[C:4]([H:8])([H:9])[C-:5]=[C:6]1[H:11])[H:10]"
O        1.44417689      -0.29505492       1.06845156
C        0.87069952      -0.22924489      -0.08883953
N       -0.04371399      -1.24024372      -0.45954939
C       -1.18393621      -0.35258856      -0.25575395
C       -0.45518584       1.00485448      -0.10516490
C        0.78374659       1.11900034      -0.60437422
H       -0.00427992      -2.07371558       0.10457419
H       -1.77621634      -0.56824646       0.63231346
H       -1.84133587      -0.32917739      -1.12641986
H        0.83397591       0.95061649       1.29496203
H        1.37206926       2.01380020      -0.46019939
11
Frame=4 idx=004389 GeodesicLength=1.1257953559739868 rxn_smarts="[O:1]=[C:2]1[N:3]([H:7])[C:4]([H:8])([H:9])[C:5]([H:10])=[C:6]1[H:11]>>[O:1]([C+:2]1[N:3]([H:7])[C:4]([H:8])([H:9])[C-:5]=[C:6]1[H:11])[H:10]"
O        1.49835096      -0.34773433       1.04653965
C        0.84895518      -0.22687264      -0.06179963
N       -0.05767812      -1.24119978      -0.41153860
C       -1.20872837      -0.35806718      -0.28402446
C       -0.50285212       1.00707140      -0.16945003
C        0.77110958       1.13399977      -0.54478653
H       -0.02734600      -2.08556865       0.13480879
H       -1.83468006      -0.54375381       0.58808116
H       -1.83391708      -0.38276576      -1.17968496
H        1.04249501       0.97948595       1.29804922
H        1.30429103       2.06540503      -0.41619461
11
Frame=5 idx=004389 GeodesicLength=1.3995588690192349 rxn_smarts="[O:1]=[C:2]1[N:3]([H:7])[C:4]([H:8])([H:9])[C:5]([H:10])=[C:6]1[H:11]>>[O:1]([C+:2]1[N:3]([H:7])[C:4]([H:8])([H:9])[C-:5]=[C:6]1[H:11])[H:10]"
O        1.55932951      -0.40391390       1.01991496
C        0.81686307      -0.21669173      -0.01630899
N       -0.07534035      -1.23940092      -0.35276247
C       -1.23867369      -0.36619969      -0.32030609
C       -0.55989609       1.01075260      -0.25867743
C        0.74694031       1.15733396      -0.46236237
H       -0.05507016      -2.09455533       0.17553688
H       -1.90340069      -0.51441177       0.53062162
H       -1.82379640      -0.45283082      -1.24250826
H        1.31062245       0.99622819       1.28045164
H        1.22242204       2.12368941      -0.35359949
11
Frame=6 idx=004389 GeodesicLength=1.656607106384505 rxn_smarts="[O:1]=[C:2]1[N:3]([H:7])[C:4]([H:8])([H:9])[C:5]([H:10])=[C:6]1[H:11]>>[O:1]([C+:2]1[N:3]([H:7])[C:4]([H:8])([H:9])[C-:5]=[C:6]1[H:11])[H:10]"
O        1.63389594      -0.46118964       0.98212210
C        0.77314978      -0.19768018       0.05873878
N       -0.09794203      -1.23520410      -0.27473856
C       -1.27361859      -0.37643005      -0.36920222
C       -0.61900599       1.00879966      -0.38585503
C        0.69896483       1.19346011      -0.34001148
H       -0.09082114      -2.10009459       0.23844499
H       -1.98756764      -0.46993345       0.44934427
H       -1.80583466      -0.54531848      -1.31700104
H        1.65402555       0.99150099       1.20004609
H        1.11475394       2.19208972      -0.24188790
11
Frame=7 idx=004389 GeodesicLength=1.830518026768105 rxn_smarts="[O:1]=[C:2]1[N:3]([H:7])[C:4]([H:8])([H:9])[C:5]([H:10])=[C:6]1[H:11]>>[O:1]([C+:2]1[N:3]([H:7])[C:4]([H:8])([H:9])[C-:5]=[C:6]1[H:11])[H:10]"
O        1.70322665      -0.50273451       0.92881844
C        0.72313522      -0.17745848       0.15855572
N       -0.12557460      -1.21837581      -0.17829432
C       -1.29379136      -0.38312376      -0.42161060
C       -0.64093235       0.98616620      -0.52586605
C        0.62101328       1.22682653      -0.17738835
H       -0.13554941      -2.08810159       0.32139017
H       -2.07044681      -0.41426337       0.34708638
H       -1.75466553      -0.63634756      -1.38645684
H        1.98795682       0.96616467       0.99637252
H        0.98562810       2.24124767      -0.06260707
11
Frame=8 idx=004389 GeodesicLength=1.9358325705692199 rxn_smarts="[O:1]=[C:2]1[N:3]([H:7])[C:4]([H:8])([H:9])[C:5]([H:10])=[C:6]1[H:11]>>[O:1]([C+:2]1[N:3]([H:7])[C:4]([H:8])([H:9])[C-:5]=[C:6]1[H:11])[H:10]"
O        1.77541612      -0.51776658       0.85681984
C        0.67062508      -0.16230882       0.30812907
N       -0.16371892      -1.19617673      -0.05356974
C       -1.29063651      -0.38132873      -0.47460304
C       -0.60737586       0.96797659      -0.62149347
C        0.52701850       1.24713500       0.00816464
H       -0.18947438      -2.07768724       0.42377551
H       -2.14538625      -0.36677166       0.21025033
H       -1.65281971      -0.70150510      -1.45599370
H        2.20982831       0.92818471       0.63132453
H        0.86652362       2.26024855       0.16719603
11
Frame=9 idx=004389 GeodesicLength=2.0843830086663706 rxn_smarts="[O:1]=[C:2]1[N:3]([H:7])[C:4]([H:8])([H:9])[C:5]([H:10])=[C:6]1[H:11]>>[O:1]([C+:2]1[N:3]([H:7])[C:4]([H:8])([H:9])[C-:5]=[C:6]1[H:11])[H:10]"
O        1.83197372      -0.51596826       0.79049948
C        0.63938349      -0.15956034       0.46166322
N       -0.20416197      -1.17941876       0.07027546
C       -1.26969002      -0.37256047      -0.51461599
C       -0.54482944       0.96628325      -0.65854298
C        0.43922896       1.25838313       0.18541112
H       -0.22638966      -2.08787004       0.50200986
H       -2.19543921      -0.32442515       0.07395472
H       -1.53622109      -0.74239758      -1.50903447
H        2.25324601       0.89078938       0.25140900
H        0.81289921       2.26674483       0.34697058
11
Frame=10 idx=004389 GeodesicLength=2.2552075318651403 rxn_smarts="[O:1]=[C:2]1[N:3]([H:7])[C:4]([H:8])([H:9])[C:5]([H:10])=[C:6]1[H:11]>>[O:1]([C+:2]1[N:3]([H:7])[C:4]([H:8])([H:9])[C-:5]=[C:6]1[H:11])[H:10]"
O        1.84705835      -0.50278370       0.73357384
C        0.62371169      -0.16106839       0.57267744
N       -0.23545090      -1.14588995       0.17044867
C       -1.22750000      -0.35661588      -0.53533069
C       -0.48027482       0.95727479      -0.66799101
C        0.37624768       1.24633230       0.30650061
H       -0.24923620      -2.07297259       0.54932720
H       -2.19184728      -0.27984112      -0.02511821
H       -1.41242205      -0.76555117      -1.53273559
H        2.16697399       0.84950012      -0.05386100
H        0.78273954       2.23161559       0.48250876
11
Frame=11 idx=004389 GeodesicLength=2.4185037618375977 rxn_smarts="[O:1]=[C:2]1[N:3]([H:7])[C:4]([H:8])([H:9])[C:5]([H:10])=[C:6]1[H:11]>>[O:1]([C+:2]1[N:3]([H:7])[C:4]([H:8])([H:9])[C-:5]=[C:6]1[H:11])[H:10]"
O        1.86133797      -0.49277387       0.68535289
C        0.62387252      -0.16450573       0.65555655
N       -0.26722294      -1.11576639       0.25662588
C       -1.19270805      -0.34332717      -0.54955376
C       -0.42808993       0.95931141      -0.67247347
C        0.33021689       1.23701706       0.38914066
H       -0.26233488      -2.06309628       0.57882080
H       -2.18764665      -0.24547239      -0.11012297
H       -1.31268919      -0.78858053      -1.54110044
H        2.06528172       0.81409642      -0.27960094
H        0.76998255       2.20309748       0.58735480
11
Frame=12 idx=004389 GeodesicLength=2.583774984140284 rxn_smarts="[O:1]=[C:2]1[N:3]([H:7])[C:4]([H:8])([H:9])[C:5]([H:10])=[C:6]1[H:11]>>[O:1]([C+:2]1[N:3]([H:7])[C:4]([H:8])([H:9])[C-:5]=[C:6]1[H:11])[H:10]"
O        1.87128477      -0.48268124       0.64831783
C        0.63116377      -0.16824843       0.71970394
N       -0.29083416      -1.08657931       0.32289052
C       -1.16121917      -0.33144471      -0.56033854
C       -0.38564926       0.96481956      -0.67633967
C        0.29345420       1.22646645       0.44872764
H       -0.27336933      -2.04787777       0.60077718
H       -2.17779408      -0.22050652      -0.17851544
H       -1.23072118      -0.80689212      -1.54251987
H        1.96085274       0.77936691      -0.45488974
H        0.76283170       2.17357717       0.67218614
11
Frame=13 idx=004389 GeodesicLength=2.7501890927754555 rxn_smarts="[O:1]=[C:2]1[N:3]([H:7])[C:4]([H:8])([H:9])[C:5]([H:10])=[C:6]1[H:11]>>[O:1]([C+:2]1[N:3]([H:7])[C:4]([H:8])([H:9])[C-:5]=[C:6]1[H:11])[H:10]"
O        1.87947431      -0.47166220       0.62007237
C        0.64222020      -0.17242715       0.77199190
N       -0.30695926      -1.05895868       0.37380023
C       -1.13218934      -0.32015032      -0.56963109
C       -0.35002295       0.97239905      -0.68078149
C        0.26214096       1.21455519       0.49419807
H       -0.28442743      -2.02901693       0.62024765
H       -2.16442512      -0.20109120      -0.23457382
H       -1.16155272      -0.82102731      -1.54127464
H        1.85956140       0.74445995      -0.59884645
H        0.75617995       2.14291962       0.74479727
11
Frame=14 idx=004389 GeodesicLength=2.917133512540298 rxn_smarts="[O:1]=[C:2]1[N:3]([H:7])[C:4]([H:8])([H:9])[C:5]([H:10])=[C:6]1[H:11]>>[O:1]([C+:2]1[N:3]([H:7])[C:4]([H:8])([H:9])[C-:5]=[C:6]1[H:11])[H:10]"
O        1.88697480      -0.45951545       0.59858297
C        0.65516985      -0.17669553       0.81672229
N       -0.31782174      -1.03243413       0.41416286
C       -1.10508864      -0.30897341      -0.57795949
C       -0.31898269       0.98155454      -0.68571656
C        0.23437878       1.20181043       0.53035101
H       -0.29482096      -2.00854798       0.63762251
H       -2.14899456      -0.18499838      -0.28195906
H       -1.10159710      -0.83182581      -1.53858555
H        1.76279788       0.70755581      -0.72270881
H        0.74798437       2.11206991       0.80948782
11
Frame=15 idx=004389 GeodesicLength=3.083968738241205 rxn_smarts="[O:1]=[C:2]1[N:3]([H:7])[C:4]([H:8])([H:9])[C:5]([H:10])=[C:6]1[H:11]>>[O:1]([C+:2]1[N:3]([H:7])[C:4]([H:8])([H:9])[C-:5]=[C:6]1[H:11])[H:10]"
O        1.89419052      -0.44612962       0.58258944
C        0.66893937      -0.18066678       0.85658689
N       -0.32498160      -1.00659031       0.44717210
C       -1.07959091      -0.29769568      -0.58543482
C       -0.29063765       0.99157254      -0.69108042
C        0.20935018       1.18882407       0.55985745
H       -0.30378540      -1.98783493       0.65193521
H       -2.13234277      -0.17072854      -0.32278346
H       -1.04887678      -0.84013110      -1.53481894
H        1.67032344       0.66739298      -0.83287481
H        0.73741159       2.08198735       0.86885136
11
Frame=16 idx=004389 GeodesicLength=3.2507252735472445 rxn_smarts="[O:1]=[C:2]1[N:3]([H:7])[C:4]([H:8])([H:9])[C:5]([H:10])=[C:6]1[H:11]>>[O:1]([C+:2]1[N:3]([H:7])[C:4]([H:8])([H:9])[C-:5]=[C:6]1[H:11])[H:10]"
O        1.90122979      -0.43120101       0.57127630
C        0.68308637      -0.18419748       0.89324820
N       -0.32916641      -0.98125555       0.47477889
C       -1.05542600      -0.28613502      -0.59219676
C       -0.26348856       1.00176883      -0.69705311
C        0.18649436       1.17554197       0.58437149
H       -0.31070108      -1.96692892       0.66268273
H       -2.11490183      -0.15709259      -0.35839154
H       -1.00236736      -0.84646430      -1.53018375
H        1.58115275       0.62342322      -0.93305487
H        0.72408796       2.05254087       0.92452242
