16
Frame=0 idx=006477 GeodesicLength=0.0 rxn_smarts="[C:1]([C@@:2]([C:3]([O:4][H:14])([H:12])[H:13])([N:5]([C:6](=[O:7])[H:16])[H:15])[H:11])([H:8])([H:9])[H:10]>>[C:1]([C@@:2]1([H:11])[C:3]([H:12])([H:13])[O:4][C@@:6]([O:7][H:14])([H:16])[N:5]1[H:15])([H:8])([H:9])[H:10]"
C       -1.17105485       1.56958152      -0.21932697
C       -0.28952023       0.45018482       0.28649787
C       -0.82196636      -0.98268272      -0.01103269
O        0.22350085      -1.88114416       0.05163706
N        1.03081642       0.46197356      -0.34205095
C        1.77527752      -0.60927034      -0.01944025
O        1.94732432      -0.99230656       1.21755619
H       -0.75954586       2.54734038       0.03319140
H       -2.16153998       1.49375100       0.23159717
H       -1.29814671       1.51363204      -1.30417042
H       -0.13173640       0.55286677       1.36140062
H       -1.60801975      -1.21312432       0.71805931
H       -1.28569873      -0.99463370      -1.01144723
H        1.04515619      -1.63194832       1.11759458
H        1.00825209       0.64479925      -1.33598700
H        2.49690141      -0.92901918      -0.77407866
16
Frame=1 idx=006477 GeodesicLength=0.05443298848821013 rxn_smarts="[C:1]([C@@:2]([C:3]([O:4][H:14])([H:12])[H:13])([N:5]([C:6](=[O:7])[H:16])[H:15])[H:11])([H:8])([H:9])[H:10]>>[C:1]([C@@:2]1([H:11])[C:3]([H:12])([H:13])[O:4][C@@:6]([O:7][H:14])([H:16])[N:5]1[H:15])([H:8])([H:9])[H:10]"
C       -1.17250368       1.56802683      -0.22169761
C       -0.29252995       0.44951414       0.28948438
C       -0.82468114      -0.98124377      -0.00886054
O        0.21599357      -1.88465046       0.07814228
N        1.03058379       0.46364469      -0.33301502
C        1.77255184      -0.61875429      -0.03059155
O        1.97032714      -0.99930467       1.20288289
H       -0.75846525       2.54612925       0.02568028
H       -2.16322475       1.49644037       0.22932623
H       -1.29976162       1.50771520      -1.30627962
H       -0.14165974       0.55315596       1.36549859
H       -1.62421843      -1.20727316       0.70624270
H       -1.26938003      -0.99929724      -1.01770510
H        1.05189055      -1.63744346       1.13729173
H        1.01721945       0.67362348      -1.32138608
H        2.48785826      -0.93028288      -0.79501355
16
Frame=2 idx=006477 GeodesicLength=0.10881580276375767 rxn_smarts="[C:1]([C@@:2]([C:3]([O:4][H:14])([H:12])[H:13])([N:5]([C:6](=[O:7])[H:16])[H:15])[H:11])([H:8])([H:9])[H:10]>>[C:1]([C@@:2]1([H:11])[C:3]([H:12])([H:13])[O:4][C@@:6]([O:7][H:14])([H:16])[N:5]1[H:15])([H:8])([H:9])[H:10]"
C       -1.17394545       1.56641789      -0.22434074
C       -0.29561983       0.44892469       0.29258269
C       -0.82735354      -0.97982568      -0.00649843
O        0.20836187      -1.88766017       0.10532479
N        1.03043321       0.46535646      -0.32349848
C        1.76942348      -0.62830695      -0.04203643
O        1.99332864      -1.00713366       1.18707887
H       -0.75758573       2.54488521       0.01803958
H       -2.16505760       1.49901531       0.22639053
H       -1.30088871       1.50162601      -1.30869521
H       -0.15191673       0.55367484       1.36968615
H       -1.64015822      -1.20145120       0.69430230
H       -1.25270027      -1.00426349      -1.02343748
H        1.05915598      -1.64282297       1.15706231
H        1.02680445       0.70309079      -1.30529708
H        2.47771844      -0.93152709      -0.81666337
16
Frame=3 idx=006477 GeodesicLength=0.1631014997032424 rxn_smarts="[C:1]([C@@:2]([C:3]([O:4][H:14])([H:12])[H:13])([N:5]([C:6](=[O:7])[H:16])[H:15])[H:11])([H:8])([H:9])[H:10]>>[C:1]([C@@:2]1([H:11])[C:3]([H:12])([H:13])[O:4][C@@:6]([O:7][H:14])([H:16])[N:5]1[H:15])([H:8])([H:9])[H:10]"
C       -1.17537376       1.56476678      -0.22728632
C       -0.29879575       0.44842522       0.29579117
C       -0.82997903      -0.97843287      -0.00392481
O        0.20063769      -1.89012727       0.13310687
N        1.03035901       0.46710247      -0.31349199
C        1.76588111      -0.63788536      -0.05376268
O        2.01624193      -1.01585241       1.17010791
H       -0.75690236       2.54362162       0.01025190
H       -2.16704098       1.50149519       0.22274478
H       -1.30149159       1.49536998      -1.31145478
H       -0.16252535       0.55445334       1.37396137
H       -1.65575911      -1.19569953       0.68232079
H       -1.23573713      -1.00953545      -1.02857089
H        1.06698003      -1.64814820       1.17681572
H        1.03700572       0.73308840      -1.28763499
H        2.46649959      -0.93264191      -0.83897403
16
Frame=4 idx=006477 GeodesicLength=0.21728740452811915 rxn_smarts="[C:1]([C@@:2]([C:3]([O:4][H:14])([H:12])[H:13])([N:5]([C:6](=[O:7])[H:16])[H:15])[H:11])([H:8])([H:9])[H:10]>>[C:1]([C@@:2]1([H:11])[C:3]([H:12])([H:13])[O:4][C@@:6]([O:7][H:14])([H:16])[N:5]1[H:15])([H:8])([H:9])[H:10]"
C       -1.17680710       1.56311961      -0.23056472
C       -0.30205416       0.44803448       0.29911622
C       -0.83255650      -0.97708552      -0.00112905
O        0.19288734      -1.89204529       0.16141194
N        1.03036885       0.46886763      -0.30298517
C        1.76194859      -0.64746186      -0.06575064
O        2.03898118      -1.02551187       1.15194945
H       -0.75642148       2.54240026       0.00230991
H       -2.16921101       1.50395691       0.21835209
H       -1.30159240       1.48896549      -1.31462344
H       -0.17346198       0.55554698       1.37835390
H       -1.67095511      -1.19009459       0.67036667
H       -1.21859598      -1.01512157      -1.03306299
H        1.07539720      -1.65351162       1.19646356
H        1.04780143       0.76347321      -1.26833618
H        2.45427112      -0.93353225      -0.86187157
16
Frame=5 idx=006477 GeodesicLength=0.2713870691728747 rxn_smarts="[C:1]([C@@:2]([C:3]([O:4][H:14])([H:12])[H:13])([N:5]([C:6](=[O:7])[H:16])[H:15])[H:11])([H:8])([H:9])[H:10]>>[C:1]([C@@:2]1([H:11])[C:3]([H:12])([H:13])[O:4][C@@:6]([O:7][H:14])([H:16])[N:5]1[H:15])([H:8])([H:9])[H:10]"
C       -1.17812170       1.56126871      -0.23419044
C       -0.30542079       0.44772395       0.30250361
C       -0.83510916      -0.97566088       0.00194663
O        0.18503522      -1.89326987       0.19011402
N        1.03044993       0.47068497      -0.29196791
C        1.75751844      -0.65692159      -0.07802528
O        2.06145170      -1.03612252       1.13258391
H       -0.75603080       2.54094964      -0.00586988
H       -2.17141408       1.50608927       0.21316768
H       -1.30096564       1.48224327      -1.31806009
H       -0.18487662       0.55689712       1.38266154
H       -1.68573210      -1.18439833       0.65861073
H       -1.20131178      -1.02086829      -1.03677300
H        1.08437774      -1.65891695       1.21593772
H        1.05918738       0.79430336      -1.24729160
H        2.44096226      -0.93400185      -0.88534762
16
Frame=6 idx=006477 GeodesicLength=0.32550102570293077 rxn_smarts="[C:1]([C@@:2]([C:3]([O:4][H:14])([H:12])[H:13])([N:5]([C:6](=[O:7])[H:16])[H:15])[H:11])([H:8])([H:9])[H:10]>>[C:1]([C@@:2]1([H:11])[C:3]([H:12])([H:13])[O:4][C@@:6]([O:7][H:14])([H:16])[N:5]1[H:15])([H:8])([H:9])[H:10]"
C       -1.17942602       1.55945862      -0.23820950
C       -0.30888919       0.44755084       0.30600448
C       -0.83761939      -0.97430226       0.00528076
O        0.17723592      -1.89393428       0.21917152
N        1.03060825       0.47254465      -0.28042029
C        1.75269262      -0.66631391      -0.09051566
O        2.08365220      -1.04776529       1.11205069
H       -0.75582558       2.53961178      -0.01425591
H       -2.17379066       1.50822440       0.20714668
H       -1.29978138       1.47540256      -1.32196476
H       -0.19667638       0.55862351       1.38707961
H       -1.70000311      -1.17888835       0.64707844
H       -1.18403641      -1.02695859      -1.03977771
H        1.09406538      -1.66456329       1.23516448
H        1.07109031       0.82536764      -1.22454331
H        2.42670343      -0.93405804      -0.90928953
16
Frame=7 idx=006477 GeodesicLength=0.37943637053915 rxn_smarts="[C:1]([C@@:2]([C:3]([O:4][H:14])([H:12])[H:13])([N:5]([C:6](=[O:7])[H:16])[H:15])[H:11])([H:8])([H:9])[H:10]>>[C:1]([C@@:2]1([H:11])[C:3]([H:12])([H:13])[O:4][C@@:6]([O:7][H:14])([H:16])[N:5]1[H:15])([H:8])([H:9])[H:10]"
C       -1.18059968       1.55756706      -0.24258206
C       -0.31242607       0.44747275       0.30962123
C       -0.84007234      -0.97295795       0.00892192
O        0.16942746      -1.89387313       0.24849649
N        1.03083752       0.47439398      -0.26836427
C        1.74747633      -0.67553406      -0.10317613
O        2.10527306      -1.06014510       1.09024676
H       -0.75566386       2.53818313      -0.02284989
H       -2.17620364       1.51027862       0.20035381
H       -1.29789475       1.46829634      -1.32624409
H       -0.20887007       0.56069542       1.39156409
H       -1.71372014      -1.17362965       0.63581962
H       -1.16674452      -1.03325211      -1.04191032
H        1.10417903      -1.67041211       1.25382319
H        1.08334855       0.85646482      -1.20022979
H        2.41165313      -0.93354801      -0.93349055
16
Frame=8 idx=006477 GeodesicLength=0.43322434170208446 rxn_smarts="[C:1]([C@@:2]([C:3]([O:4][H:14])([H:12])[H:13])([N:5]([C:6](=[O:7])[H:16])[H:15])[H:11])([H:8])([H:9])[H:10]>>[C:1]([C@@:2]1([H:11])[C:3]([H:12])([H:13])[O:4][C@@:6]([O:7][H:14])([H:16])[N:5]1[H:15])([H:8])([H:9])[H:10]"
C       -1.18169806       1.55565162      -0.24740481
C       -0.31609187       0.44752761       0.31334842
C       -0.84249434      -0.97164412       0.01288850
O        0.16175588      -1.89316379       0.27809305
N        1.03112722       0.47628118      -0.25572748
C        1.74180194      -0.68456261      -0.11608790
O        2.12648500      -1.07365238       1.06715894
H       -0.75562842       2.53677951      -0.03172327
H       -2.17874410       1.51225551       0.19259133
H       -1.29527642       1.46100759      -1.33100155
H       -0.22154855       0.56315652       1.39609319
H       -1.72691543      -1.16851925       0.62498996
H       -1.14959085      -1.03985587      -1.04324552
H        1.11507561      -1.67656040       1.27212919
H        1.09616140       0.88763609      -1.17396223
H        2.39558099      -0.93233722      -0.95813981
16
Frame=9 idx=006477 GeodesicLength=0.4865944391349747 rxn_smarts="[C:1]([C@@:2]([C:3]([O:4][H:14])([H:12])[H:13])([N:5]([C:6](=[O:7])[H:16])[H:15])[H:11])([H:8])([H:9])[H:10]>>[C:1]([C@@:2]1([H:11])[C:3]([H:12])([H:13])[O:4][C@@:6]([O:7][H:14])([H:16])[N:5]1[H:15])([H:8])([H:9])[H:10]"
C       -1.18265994       1.55364842      -0.25270312
C       -0.31988502       0.44770831       0.31722148
C       -0.84489157      -0.97034393       0.01723790
O        0.15423894      -1.89161875       0.30795129
N        1.03148422       0.47820100      -0.24241742
C        1.73562996      -0.69334959      -0.12925362
O        2.14715779      -1.08827741       1.04264490
H       -0.75565943       2.53531882      -0.04090545
H       -2.18138124       1.51410468       0.18376395
H       -1.29178653       1.45343182      -1.33624001
H       -0.23474563       0.56602754       1.40068171
H       -1.73958276      -1.16362559       0.61463379
H       -1.13261044      -1.04677477      -1.04365920
H        1.12672665      -1.68295978       1.28988233
H        1.10957348       0.91880949      -1.14562152
H        2.37839152      -0.93030026      -0.98321701
16
Frame=10 idx=006477 GeodesicLength=0.5402544819321683 rxn_smarts="[C:1]([C@@:2]([C:3]([O:4][H:14])([H:12])[H:13])([N:5]([C:6](=[O:7])[H:16])[H:15])[H:11])([H:8])([H:9])[H:10]>>[C:1]([C@@:2]1([H:11])[C:3]([H:12])([H:13])[O:4][C@@:6]([O:7][H:14])([H:16])[N:5]1[H:15])([H:8])([H:9])[H:10]"
C       -1.18346832       1.55157225      -0.25848332
C       -0.32378403       0.44802469       0.32121277
C       -0.84724203      -0.96904633       0.02198203
O        0.14684885      -1.88947999       0.33792395
N        1.03188913       0.48012243      -0.22851091
C        1.72906344      -0.70184089      -0.14266119
O        2.16717695      -1.10380259       1.01686775
H       -0.75570463       2.53381006      -0.05045824
H       -2.18405098       1.51586450       0.17394519
H       -1.28750076       1.44556674      -1.34195703
H       -0.24841889       0.56933518       1.40529226
H       -1.75163756      -1.15889792       0.60487016
H       -1.11585869      -1.05386125      -1.04313329
H        1.13898262      -1.68992129       1.30705436
H        1.12326129       0.94987964      -1.11533500
H        2.36044363      -0.92732524      -1.00860949
16
Frame=11 idx=006477 GeodesicLength=0.5936766942429215 rxn_smarts="[C:1]([C@@:2]([C:3]([O:4][H:14])([H:12])[H:13])([N:5]([C:6](=[O:7])[H:16])[H:15])[H:11])([H:8])([H:9])[H:10]>>[C:1]([C@@:2]1([H:11])[C:3]([H:12])([H:13])[O:4][C@@:6]([O:7][H:14])([H:16])[N:5]1[H:15])([H:8])([H:9])[H:10]"
C       -1.18408392       1.54942171      -0.26479461
C       -0.32782352       0.44848063       0.32536140
C       -0.84957584      -0.96777618       0.02716943
O        0.13974471      -1.88658790       0.36803541
N        1.03234771       0.48205717      -0.21389500
C        1.72200568      -0.70996213      -0.15632857
O        2.18645775      -1.12038461       0.98962438
H       -0.75573636       2.53227127      -0.06040889
H       -2.18676041       1.51753651       0.16297847
H       -1.28224910       1.43739561      -1.34819861
H       -0.26266595       0.57310433       1.40995877
H       -1.76313839      -1.15441803       0.59582197
H       -1.09945081      -1.06123616      -1.04166055
H        1.15201830      -1.69739385       1.32355334
H        1.13739524       0.98068175      -1.08291054
H        2.34151489      -0.92319012      -1.03430640
16
Frame=12 idx=006477 GeodesicLength=0.6469753620484869 rxn_smarts="[C:1]([C@@:2]([C:3]([O:4][H:14])([H:12])[H:13])([N:5]([C:6](=[O:7])[H:16])[H:15])[H:11])([H:8])([H:9])[H:10]>>[C:1]([C@@:2]1([H:11])[C:3]([H:12])([H:13])[O:4][C@@:6]([O:7][H:14])([H:16])[N:5]1[H:15])([H:8])([H:9])[H:10]"
C       -1.18448917       1.54719284      -0.27161530
C       -0.33198627       0.44907465       0.32964736
C       -0.85188433      -0.96652412       0.03280014
O        0.13287167      -1.88297429       0.39814934
N        1.03284325       0.48398534      -0.19862762
C        1.71451573      -0.71768448      -0.17018417
O        2.20490975      -1.13784954       0.96107110
H       -0.75569616       2.53068428      -0.07078006
H       -2.18945299       1.51913171       0.15094713
H       -1.27610345       1.42890618      -1.35491663
H       -0.27744940       0.57733829       1.41464189
H       -1.77401536      -1.15017213       0.58753499
H       -1.08344426      -1.06884134      -1.03919611
H        1.16574630      -1.70550429       1.33918712
H        1.15177410       1.01109976      -1.04856154
H        2.32186060      -0.91786283      -1.06009764
16
Frame=13 idx=006477 GeodesicLength=0.7002353110886641 rxn_smarts="[C:1]([C@@:2]([C:3]([O:4][H:14])([H:12])[H:13])([N:5]([C:6](=[O:7])[H:16])[H:15])[H:11])([H:8])([H:9])[H:10]>>[C:1]([C@@:2]1([H:11])[C:3]([H:12])([H:13])[O:4][C@@:6]([O:7][H:14])([H:16])[N:5]1[H:15])([H:8])([H:9])[H:10]"
C       -1.18463804       1.54486469      -0.27899101
C       -0.33628792       0.44981260       0.33409078
C       -0.85418041      -0.96528529       0.03892533
O        0.12634914      -1.87865493       0.42827618
N        1.03336680       0.48589809      -0.18264809
C        1.70657028      -0.72494290      -0.18428073
O        2.22244250      -1.15619263       0.93108603
H       -0.75553553       2.52902601      -0.08162628
H       -2.19210041       1.52064031       0.13774043
H       -1.26894657       1.42004973      -1.36214208
H       -0.29281578       0.58207185       1.41934147
H       -1.78431699      -1.14617194       0.58014130
H       -1.06791476      -1.07665970      -1.03573365
H        1.18018761      -1.71434450       1.35394947
H        1.16636457       1.04104491      -1.01212352
H        2.30145553      -0.91115629      -1.08600563
16
Frame=14 idx=006477 GeodesicLength=0.7535323723568194 rxn_smarts="[C:1]([C@@:2]([C:3]([O:4][H:14])([H:12])[H:13])([N:5]([C:6](=[O:7])[H:16])[H:15])[H:11])([H:8])([H:9])[H:10]>>[C:1]([C@@:2]1([H:11])[C:3]([H:12])([H:13])[O:4][C@@:6]([O:7][H:14])([H:16])[N:5]1[H:15])([H:8])([H:9])[H:10]"
C       -1.18449198       1.54242565      -0.28696815
C       -0.34074042       0.45069865       0.33871628
C       -0.85647326      -0.96406454       0.04560219
O        0.12020289      -1.87365518       0.45842277
N        1.03391292       0.48777902      -0.16587916
C        1.69814705      -0.73167230      -0.19864915
O        2.23899326      -1.17539676       0.89959414
H       -0.75520689       2.52729038      -0.09302735
H       -2.19467293       1.52206574       0.12325808
H       -1.26069636       1.41077950      -1.36989976
H       -0.30881083       0.58732933       1.42406512
H       -1.79404978      -1.14240704       0.57374383
H       -1.05291860      -1.08470750      -1.03122739
H        1.19537774      -1.72402631       1.36776250
H        1.18112939       1.07043642      -0.97347837
H        2.28029782      -0.90287507      -1.11203557
16
Frame=15 idx=006477 GeodesicLength=0.806736360198971 rxn_smarts="[C:1]([C@@:2]([C:3]([O:4][H:14])([H:12])[H:13])([N:5]([C:6](=[O:7])[H:16])[H:15])[H:11])([H:8])([H:9])[H:10]>>[C:1]([C@@:2]1([H:11])[C:3]([H:12])([H:13])[O:4][C@@:6]([O:7][H:14])([H:16])[N:5]1[H:15])([H:8])([H:9])[H:10]"
C       -1.18401912       1.53986152      -0.29551837
C       -0.34533392       0.45172973       0.34350642
C       -0.85876184      -0.96285619       0.05282132
O        0.11446702      -1.86794405       0.48847216
N        1.03446113       0.48961975      -0.14837436
C        1.68926576      -0.73781162      -0.21321664
O        2.25444328      -1.19530543       0.86670636
H       -0.75463199       2.52544989      -0.10498455
H       -2.19710260       1.52340621       0.10757585
H       -1.25139063       1.40107408      -1.37812958
H       -0.32540565       0.59311321       1.42876997
H       -1.80319078      -1.13888926       0.56839163
H       -1.03852929      -1.09296517      -1.02568011
H        1.21125819      -1.73462183       1.38046050
H        1.19593963       1.09910072      -0.93283747
H        2.25853082      -0.89296155      -1.13796315
16
Frame=16 idx=006477 GeodesicLength=0.8600005486387494 rxn_smarts="[C:1]([C@@:2]([C:3]([O:4][H:14])([H:12])[H:13])([N:5]([C:6](=[O:7])[H:16])[H:15])[H:11])([H:8])([H:9])[H:10]>>[C:1]([C@@:2]1([H:11])[C:3]([H:12])([H:13])[O:4][C@@:6]([O:7][H:14])([H:16])[N:5]1[H:15])([H:8])([H:9])[H:10]"
C       -1.18317926       1.53716134      -0.30468261
C       -0.35008296       0.45291278       0.34848303
C       -0.86105926      -0.96166197       0.06064407
O        0.10920536      -1.86157201       0.51844868
N        1.03500175       0.49140027      -0.13007836
C        1.67991205      -0.74330338      -0.22802856
O        2.26871642      -1.21586806       0.83234086
H       -0.75375678       2.52349406      -0.11757501
H       -2.19935827       1.52466320       0.09060042
H       -1.24094344       1.39088764      -1.38685071
H       -0.34264356       0.59945562       1.43345828
H       -1.81177616      -1.13561009       0.56420975
H       -1.02479926      -1.10142943      -1.01906813
H        1.22783371      -1.74626555       1.39199032
H        1.21072287       1.12697431      -0.89010786
H        2.23620679      -0.88123872      -1.16378416
