14
Frame=0 idx=009255 GeodesicLength=0.0 rxn_smarts="[C:1]([C@@:2]([C:3](=[O:4])[H:12])([C:5](=[O:6])[N:7]([H:13])[H:14])[H:11])([H:8])([H:9])[H:10]>>[C:1]([C:2]([C:3](=[O:4])[H:12])=[C:5]=[O:6])([H:8])([H:9])[H:10].[N:7]([H:11])([H:13])[H:14]"
C       -1.13262726      -1.04250444       1.00172647
C       -0.33175807      -0.11538706       0.13158837
C       -1.00135669       1.11795659      -0.28965357
O       -2.17831119       1.34066612      -0.12426095
C        1.10435368      -0.06409917       0.29976073
O        1.87305784      -0.42908349       1.13288184
N        1.56277101       0.32141733      -1.11675959
H       -1.30144576      -0.61399908       1.99281172
H       -2.11023638      -1.20836973       0.55114816
H       -0.62707515      -2.00029522       1.12430314
H        0.33451290      -0.07038185      -1.21942402
H       -0.37337318       1.87387518      -0.81007887
H        2.22810454      -0.36290742      -1.45840412
H        1.95338375       1.25311229      -1.21563931
14
Frame=1 idx=009255 GeodesicLength=0.09593833822952852 rxn_smarts="[C:1]([C@@:2]([C:3](=[O:4])[H:12])([C:5](=[O:6])[N:7]([H:13])[H:14])[H:11])([H:8])([H:9])[H:10]>>[C:1]([C:2]([C:3](=[O:4])[H:12])=[C:5]=[O:6])([H:8])([H:9])[H:10].[N:7]([H:11])([H:13])[H:14]"
C       -1.13625158      -1.04962100       0.99479912
C       -0.33680817      -0.11634164       0.12813562
C       -1.00498267       1.12674090      -0.27210329
O       -2.18088884       1.34847566      -0.10065453
C        1.09600644      -0.05657895       0.30869579
O        1.86636364      -0.37651933       1.15711838
N        1.57466388       0.31153243      -1.12911013
H       -1.30678905      -0.62551347       1.98734559
H       -2.11305529      -1.21615406       0.54269833
H       -0.62744594      -2.00600713       1.11498428
H        0.33591971      -0.08067082      -1.23881589
H       -0.37534821       1.88540522      -0.78543574
H        2.23685847      -0.38218227      -1.45668092
H        1.97175761       1.23743445      -1.25097661
14
Frame=2 idx=009255 GeodesicLength=0.19190989135608982 rxn_smarts="[C:1]([C@@:2]([C:3](=[O:4])[H:12])([C:5](=[O:6])[N:7]([H:13])[H:14])[H:11])([H:8])([H:9])[H:10]>>[C:1]([C:2]([C:3](=[O:4])[H:12])=[C:5]=[O:6])([H:8])([H:9])[H:10].[N:7]([H:11])([H:13])[H:14]"
C       -1.13977123      -1.05650507       0.98791760
C       -0.34183582      -0.11685167       0.12490073
C       -1.00875874       1.13553085      -0.25418988
O       -2.18374151       1.35584294      -0.07708972
C        1.08756966      -0.04903471       0.31789005
O        1.85892116      -0.32387636       1.17960769
N        1.58689063       0.30168812      -1.14120417
H       -1.31217815      -0.63690914       1.98194006
H       -2.11571773      -1.22383298       0.53421443
H       -0.62770773      -2.01147496       1.10565453
H        0.33763425      -0.09127774      -1.25830807
H       -0.37756845       1.89678845      -0.76067541
H        2.24562355      -0.40123064      -1.45488340
H        1.99064011       1.22114291      -1.28577446
14
Frame=3 idx=009255 GeodesicLength=0.28789596319878463 rxn_smarts="[C:1]([C@@:2]([C:3](=[O:4])[H:12])([C:5](=[O:6])[N:7]([H:13])[H:14])[H:11])([H:8])([H:9])[H:10]>>[C:1]([C:2]([C:3](=[O:4])[H:12])=[C:5]=[O:6])([H:8])([H:9])[H:10].[N:7]([H:11])([H:13])[H:14]"
C       -1.14318118      -1.06315138       0.98106401
C       -0.34684880      -0.11690125       0.12187855
C       -1.01271271       1.14434152      -0.23589555
O       -2.18688668       1.36279075      -0.05353567
C        1.07902993      -0.04141380       0.32736826
O        1.85079033      -0.27118992       1.20038473
N        1.59945556       0.29188372      -1.15305189
H       -1.31759759      -0.64821090       1.97657461
H       -2.11821346      -1.23139164       0.52568420
H       -0.62786219      -2.01669534       1.09627559
H        0.33967536      -0.10226048      -1.27789665
H       -0.38009208       1.90806632      -0.73577736
H        2.25439301      -0.42007332      -1.45300206
H        2.01005048       1.20420572      -1.32007077
14
Frame=4 idx=009255 GeodesicLength=0.3839051650782366 rxn_smarts="[C:1]([C@@:2]([C:3](=[O:4])[H:12])([C:5](=[O:6])[N:7]([H:13])[H:14])[H:11])([H:8])([H:9])[H:10]>>[C:1]([C:2]([C:3](=[O:4])[H:12])=[C:5]=[O:6])([H:8])([H:9])[H:10].[N:7]([H:11])([H:13])[H:14]"
C       -1.14648161      -1.06955277       0.97422431
C       -0.35184797      -0.11646776       0.11907844
C       -1.01687455       1.15318839      -0.21719323
O       -2.19034604       1.36933692      -0.02997838
C        1.07038355      -0.03365026       0.33716962
O        1.84205640      -0.21854096       1.21949119
N        1.61235596       0.28212429      -1.16467068
H       -1.32305208      -0.65943304       1.97123714
H       -2.12053901      -1.23882224       0.51708472
H       -0.62790610      -2.02166321       1.08681393
H        0.34205806      -0.11368243      -1.29756742
H       -0.38297156       1.91927047      -0.71073523
H        2.26315864      -0.43872643      -1.45103716
H        2.03000631       1.18661903      -1.35391724
14
Frame=5 idx=009255 GeodesicLength=0.4799163301251209 rxn_smarts="[C:1]([C@@:2]([C:3](=[O:4])[H:12])([C:5](=[O:6])[N:7]([H:13])[H:14])[H:11])([H:8])([H:9])[H:10]>>[C:1]([C:2]([C:3](=[O:4])[H:12])=[C:5]=[O:6])([H:8])([H:9])[H:10].[N:7]([H:11])([H:13])[H:14]"
C       -1.14965949      -1.07569939       0.96737328
C       -0.35684209      -0.11552947       0.11649023
C       -1.02127283       1.16209211      -0.19805472
O       -2.19416884       1.37549183      -0.00639023
C        1.06160893      -0.02569386       0.34730909
O        1.83277407      -0.16595122       1.23694571
N        1.62560603       0.27239964      -1.17606672
H       -1.32852235      -0.67059444       1.96590097
H       -2.12267281      -1.24610829       0.50839487
H       -0.62783032      -2.02636422       1.07723335
H        0.34480607      -0.12560606      -1.31731725
H       -0.38626139       1.93045858      -0.68549782
H        2.27191523      -0.45721783      -1.44897458
H        2.05051979       1.16832263      -1.38734617
14
Frame=6 idx=009255 GeodesicLength=0.5759596651305019 rxn_smarts="[C:1]([C@@:2]([C:3](=[O:4])[H:12])([C:5](=[O:6])[N:7]([H:13])[H:14])[H:11])([H:8])([H:9])[H:10]>>[C:1]([C:2]([C:3](=[O:4])[H:12])=[C:5]=[O:6])([H:8])([H:9])[H:10].[N:7]([H:11])([H:13])[H:14]"
C       -1.15271854      -1.08158543       0.96049461
C       -0.36182748      -0.11405643       0.11413539
C       -1.02593552       1.17106920      -0.17844268
O       -2.19836745       1.38126951       0.01723534
C        1.05270927      -0.01747019       0.35783949
O        1.82303964      -0.11349403       1.25277763
N        1.63920650       0.26271685      -1.18725251
H       -1.33403399      -0.68171096       1.96055799
H       -2.12461448      -1.25324719       0.49957513
H       -0.62762446      -2.03079073       1.06749936
H        0.34793658      -0.13809501      -1.33712768
H       -0.39000503       1.94165948      -0.66005301
H        2.28065746      -0.47557271      -1.44681721
H        2.07157749       1.14930764      -1.42042183
14
Frame=7 idx=009255 GeodesicLength=0.6720256057705939 rxn_smarts="[C:1]([C@@:2]([C:3](=[O:4])[H:12])([C:5](=[O:6])[N:7]([H:13])[H:14])[H:11])([H:8])([H:9])[H:10]>>[C:1]([C:2]([C:3](=[O:4])[H:12])=[C:5]=[O:6])([H:8])([H:9])[H:10].[N:7]([H:11])([H:13])[H:14]"
C       -1.15564827      -1.08719851       0.95356758
C       -0.36681524      -0.11202272       0.11200625
C       -1.03089624       1.18013969      -0.15832703
O       -2.20298116       1.38667813       0.04091835
C        1.04365972      -0.00892773       0.36877220
O        1.81291700      -0.06119833       1.26699077
N        1.65316399       0.25305937      -1.19824926
H       -1.33957271      -0.69279820       1.95517900
H       -2.12634294      -1.26022512       0.49060490
H       -0.62727355      -2.03492391       1.05758263
H        0.35146805      -0.15122068      -1.35699066
H       -0.39426508       1.95292505      -0.63435006
H        2.28938103      -0.49381564      -1.44455698
H        2.09320538       1.12952858      -1.45314768
14
Frame=8 idx=009255 GeodesicLength=0.7681359687038939 rxn_smarts="[C:1]([C@@:2]([C:3](=[O:4])[H:12])([C:5](=[O:6])[N:7]([H:13])[H:14])[H:11])([H:8])([H:9])[H:10]>>[C:1]([C:2]([C:3](=[O:4])[H:12])=[C:5]=[O:6])([H:8])([H:9])[H:10].[N:7]([H:11])([H:13])[H:14]"
C       -1.15844593      -1.09252976       0.94657108
C       -0.37180895      -0.10939790       0.11011618
C       -1.03618730       1.18932276      -0.13766698
O       -2.20803756       1.39172840       0.06466564
C        1.03444781      -0.00000778       0.38014290
O        1.80249565      -0.00911272       1.27961461
N        1.66748588       0.24342191      -1.20907073
H       -1.34515349      -0.70386927       1.94974352
H       -2.12784640      -1.26703514       0.48144486
H       -0.62675908      -2.03875072       1.04744901
H        0.35542060      -0.16505052      -1.37688687
H       -0.39909041       1.96429680      -0.60834704
H        2.29808497      -0.51197241      -1.44219317
H        2.11539422       1.10895634      -1.48558301
14
Frame=9 idx=009255 GeodesicLength=0.864201733242846 rxn_smarts="[C:1]([C@@:2]([C:3](=[O:4])[H:12])([C:5](=[O:6])[N:7]([H:13])[H:14])[H:11])([H:8])([H:9])[H:10]>>[C:1]([C:2]([C:3](=[O:4])[H:12])=[C:5]=[O:6])([H:8])([H:9])[H:10].[N:7]([H:11])([H:13])[H:14]"
C       -1.16109439      -1.09755898       0.93946045
C       -0.37680649      -0.10612527       0.10842976
C       -1.04182525       1.19866248      -0.11638031
O       -2.21363740       1.39639851       0.08854377
C        1.02507727       0.00938829       0.39192059
O        1.79183023       0.04280205       1.29064182
N        1.68216006       0.23372759      -1.21978741
H       -1.35074268      -0.71493634       1.94427678
H       -2.12913949      -1.27367086       0.47205091
H       -0.62603303      -2.04223986       1.03699195
H        0.35979470      -0.17971813      -1.39679318
H       -0.40453131       1.97584208      -0.58203952
H        2.30676280      -0.53016294      -1.43972106
H        2.13818498       1.08759138      -1.51759454
14
Frame=10 idx=009255 GeodesicLength=0.9602999958564579 rxn_smarts="[C:1]([C@@:2]([C:3](=[O:4])[H:12])([C:5](=[O:6])[N:7]([H:13])[H:14])[H:11])([H:8])([H:9])[H:10]>>[C:1]([C:2]([C:3](=[O:4])[H:12])=[C:5]=[O:6])([H:8])([H:9])[H:10].[N:7]([H:11])([H:13])[H:14]"
C       -1.16359596      -1.10228470       0.93222475
C       -0.38182575      -0.10220497       0.10696523
C       -1.04785508       1.20814476      -0.09447162
O       -2.21972801       1.40072827       0.11253428
C        1.01550566       0.01925019       0.40415407
O        1.78099590       0.09450723       1.30013726
N        1.69720184       0.22400638      -1.23038050
H       -1.35636217      -0.72601936       1.93870198
H       -2.13018305      -1.28011450       0.46240292
H       -0.62510624      -2.04538574       1.02623595
H        0.36462123      -0.19525730      -1.41670996
H       -0.41062737       1.98759198      -0.55530061
H        2.31543097      -0.54831841      -1.43712236
H        2.16152804       1.06535618      -1.54937138
14
Frame=11 idx=009255 GeodesicLength=1.0564099445131319 rxn_smarts="[C:1]([C@@:2]([C:3](=[O:4])[H:12])([C:5](=[O:6])[N:7]([H:13])[H:14])[H:11])([H:8])([H:9])[H:10]>>[C:1]([C:2]([C:3](=[O:4])[H:12])=[C:5]=[O:6])([H:8])([H:9])[H:10].[N:7]([H:11])([H:13])[H:14]"
C       -1.16594096      -1.10669273       0.92482725
C       -0.38686937      -0.09760272       0.10571359
C       -1.05429347       1.21778740      -0.07189490
O       -2.22635859       1.40471684       0.13667775
C        1.00572309       0.02962290       0.41684955
O        1.77005042       0.14601407       1.30813543
N        1.71262446       0.21423481      -1.24086268
H       -1.36200464      -0.73713989       1.93299106
H       -2.13096349      -1.28635006       0.45245355
H       -0.62396025      -2.04816096       1.01513219
H        0.36992113      -0.21174983      -1.43663099
H       -0.41740813       1.99960025      -0.52805683
H        2.32410707      -0.56646274      -1.43436608
H        2.18537273       1.04218265      -1.58096889
14
Frame=12 idx=009255 GeodesicLength=1.1525485426010873 rxn_smarts="[C:1]([C@@:2]([C:3](=[O:4])[H:12])([C:5](=[O:6])[N:7]([H:13])[H:14])[H:11])([H:8])([H:9])[H:10]>>[C:1]([C:2]([C:3](=[O:4])[H:12])=[C:5]=[O:6])([H:8])([H:9])[H:10].[N:7]([H:11])([H:13])[H:14]"
C       -1.16812328      -1.11077081       0.91723894
C       -0.39193845      -0.09228936       0.10467116
C       -1.06116401       1.22759779      -0.04861389
O       -2.23354742       1.40837044       0.16098913
C        0.99571529       0.04054331       0.43002550
O        1.75905939       0.19733942       1.31466910
N        1.72842401       0.20438299      -1.25127374
H       -1.36767290      -0.74830384       1.92711909
H       -2.13146979      -1.29236837       0.44216002
H       -0.62256911      -2.05054601       1.00363804
H        0.37570192      -0.22928159      -1.45654918
H       -0.42490776       2.01190772      -0.50022130
H        2.33279813      -0.58462464      -1.43144220
H        2.20969396       1.01804297      -1.61241065
14
Frame=13 idx=009255 GeodesicLength=1.248704124365977 rxn_smarts="[C:1]([C@@:2]([C:3](=[O:4])[H:12])([C:5](=[O:6])[N:7]([H:13])[H:14])[H:11])([H:8])([H:9])[H:10]>>[C:1]([C:2]([C:3](=[O:4])[H:12])=[C:5]=[O:6])([H:8])([H:9])[H:10].[N:7]([H:11])([H:13])[H:14]"
C       -1.17013136      -1.11450139       0.90942034
C       -0.39704177      -0.08622794       0.10382651
C       -1.06849686       1.23758713      -0.02457655
O       -2.24133703       1.41168787       0.18550750
C        0.98545978       0.05204282       0.44368573
O        1.74806641       0.24852257       1.31974569
N        1.74460937       0.19441620      -1.26163467
H       -1.37335696      -0.75953036       1.92104542
H       -2.13168393      -1.29814739       0.43147536
H       -0.62090947      -2.05251124       0.99170380
H        0.38198599      -0.24795511      -1.47644306
H       -0.43315956       2.02457013      -0.47168635
H        2.34152869      -0.60281522      -1.42832216
H        2.23446669       0.99286192      -1.64374756
14
Frame=14 idx=009255 GeodesicLength=1.3448860640220235 rxn_smarts="[C:1]([C@@:2]([C:3](=[O:4])[H:12])([C:5](=[O:6])[N:7]([H:13])[H:14])[H:11])([H:8])([H:9])[H:10]>>[C:1]([C:2]([C:3](=[O:4])[H:12])=[C:5]=[O:6])([H:8])([H:9])[H:10].[N:7]([H:11])([H:13])[H:14]"
C       -1.17195598      -1.11786927       0.90133793
C       -0.40218073      -0.07938212       0.10318093
C       -1.07631417       1.24775993       0.00025479
O       -2.24974966       1.41466528       0.21024608
C        0.97494635       0.06415971       0.45784828
O        1.73712919       0.29959927       1.32337071
N        1.76118596       0.18430011      -1.27197311
H       -1.37906347      -0.77082959       1.91474202
H       -2.13158860      -1.30367587       0.42034652
H       -0.61895257      -2.05402968       0.97928612
H        0.38878220      -0.26785855      -1.49630441
H       -0.44219388       2.03763143      -0.44234087
H        2.35030523      -0.62107814      -1.42499315
H        2.25965014       0.96660750      -1.67500184
14
Frame=15 idx=009255 GeodesicLength=1.4410826905801075 rxn_smarts="[C:1]([C@@:2]([C:3](=[O:4])[H:12])([C:5](=[O:6])[N:7]([H:13])[H:14])[H:11])([H:8])([H:9])[H:10]>>[C:1]([C:2]([C:3](=[O:4])[H:12])=[C:5]=[O:6])([H:8])([H:9])[H:10].[N:7]([H:11])([H:13])[H:14]"
C       -1.17358330      -1.12085737       0.89294622
C       -0.40736268      -0.07170703       0.10272530
C       -1.08464581       1.25812383       0.02592886
O       -2.25883143       1.41729199       0.23525033
C        0.96415329       0.07692770       0.47252050
O        1.72627569       0.35064824       1.32550346
N        1.77816482       0.17399205      -1.28230970
H       -1.38478386      -0.78222488       1.90816962
H       -2.13116163      -1.30893361       0.40871667
H       -0.61666843      -2.05506910       0.96632447
H        0.39611087      -0.28909286      -1.51610427
H       -0.45204112       2.05115384      -0.41204271
H        2.35914579      -0.63943546      -1.42142027
H        2.28522781       0.93918266      -1.70620847
14
Frame=16 idx=009255 GeodesicLength=1.5373034419311216 rxn_smarts="[C:1]([C@@:2]([C:3](=[O:4])[H:12])([C:5](=[O:6])[N:7]([H:13])[H:14])[H:11])([H:8])([H:9])[H:10]>>[C:1]([C:2]([C:3](=[O:4])[H:12])=[C:5]=[O:6])([H:8])([H:9])[H:10].[N:7]([H:11])([H:13])[H:14]"
C       -1.17500108      -1.12344474       0.88420331
C       -0.41259004      -0.06315837       0.10245999
C       -1.09352515       1.26867444       0.05249085
O       -2.26860639       1.41956015       0.26054421
C        0.95306602       0.09038786       0.48772483
O        1.71554862       0.40172323       1.32611581
N        1.79554714       0.16344179      -1.29267382
H       -1.39052174      -0.79372772       1.90129028
H       -2.13038214      -1.31390084       0.39652275
H       -0.61402147      -2.05559506       0.95276341
H        0.40398055      -0.31176865      -1.53581933
H       -0.46272749       2.06518329      -0.38064901
H        2.36806836      -0.65792479      -1.41756908
H        2.31116481       0.91054941      -1.73740418
