13
Frame=0 idx=000733 GeodesicLength=0.0 rxn_smarts="[O:1]([C:2]([C:3]1([H:9])[C:4]([H:10])([H:11])[C:5]1([H:12])[H:13])([H:7])[H:8])[H:6]>>[C:3]1([H:9])=[C:5]([H:13])[C:4]1([H:10])[H:11].[H:6][H:12].[O:1]=[C:2]([H:7])[H:8]"
O        1.45432453      -0.67247506       1.23859253
C        1.56970588       0.32250920       0.50463083
C       -0.13322132       0.60158364      -0.72326149
C       -1.34141146       0.52059872       0.15788924
C       -0.86134866      -0.51500403      -0.78917991
H        0.36327196      -1.60504902       0.67429599
H        2.23482060       0.28439195      -0.37062848
H        1.35532111       1.32071268       0.90801146
H        0.29873366       1.28986461      -1.42875052
H       -1.17348123       0.35839119       1.22251495
H       -2.25286077       1.06435464      -0.07899179
H       -0.26765734      -1.73240237       0.17353528
H       -1.24619690      -1.23747610      -1.48865812
13
Frame=1 idx=000733 GeodesicLength=0.0877597295815209 rxn_smarts="[O:1]([C:2]([C:3]1([H:9])[C:4]([H:10])([H:11])[C:5]1([H:12])[H:13])([H:7])[H:8])[H:6]>>[C:3]1([H:9])=[C:5]([H:13])[C:4]1([H:10])[H:11].[H:6][H:12].[O:1]=[C:2]([H:7])[H:8]"
O        1.49140352      -0.70000141       1.21569832
C        1.56562062       0.31855127       0.50279074
C       -0.13216678       0.59519877      -0.72645344
C       -1.34540656       0.53463050       0.14954580
C       -0.86868029      -0.52079045      -0.77860209
H        0.38658077      -1.62176284       0.68143032
H        2.24537079       0.33485298      -0.36142771
H        1.33212810       1.29416108       0.94979451
H        0.29044646       1.27169565      -1.44921532
H       -1.18247375       0.39117389       1.21747130
H       -2.24925394       1.08504529      -0.09992525
H       -0.26286983      -1.74673749       0.17483096
H       -1.27069910      -1.23601723      -1.47593814
13
Frame=2 idx=000733 GeodesicLength=0.17538368045550468 rxn_smarts="[O:1]([C:2]([C:3]1([H:9])[C:4]([H:10])([H:11])[C:5]1([H:12])[H:13])([H:7])[H:8])[H:6]>>[C:3]1([H:9])=[C:5]([H:13])[C:4]1([H:10])[H:11].[H:6][H:12].[O:1]=[C:2]([H:7])[H:8]"
O        1.53014143      -0.72758045       1.18952272
C        1.56150107       0.31429266       0.50098468
C       -0.13123777       0.58867461      -0.72966576
C       -1.34943443       0.54947974       0.14079146
C       -0.87640571      -0.52641723      -0.76704160
H        0.41114428      -1.63875037       0.68846423
H        2.25395512       0.38812250      -0.34967908
H        1.30849586       1.26391440       0.99236766
H        0.28232070       1.25200389      -1.47008989
H       -1.19172796       0.42575046       1.21179651
H       -2.24545097       1.10611920      -0.12199532
H       -0.25807657      -1.76111374       0.17642798
H       -1.29522504      -1.23449568      -1.46188362
13
Frame=3 idx=000733 GeodesicLength=0.2628162061569427 rxn_smarts="[O:1]([C:2]([C:3]1([H:9])[C:4]([H:10])([H:11])[C:5]1([H:12])[H:13])([H:7])[H:8])[H:6]>>[C:3]1([H:9])=[C:5]([H:13])[C:4]1([H:10])[H:11].[H:6][H:12].[O:1]=[C:2]([H:7])[H:8]"
O        1.57046915      -0.75500362       1.15972700
C        1.55735160       0.30975564       0.49924433
C       -0.13044136       0.58201401      -0.73291040
C       -1.35345439       0.56520918       0.13159072
C       -0.88453349      -0.53183646      -0.75439487
H        0.43717897      -1.65597944       0.69530703
H        2.26018350       0.44409653      -0.33501145
H        1.28442773       1.22961652       1.03566527
H        0.27441932       1.23067452      -1.49135530
H       -1.20119466       0.46229118       1.20540680
H       -2.24141931       1.12756315      -0.14527279
H       -0.25320628      -1.77548211       0.17836307
H       -1.31978079      -1.23291912      -1.44635942
13
Frame=4 idx=000733 GeodesicLength=0.3500178314190758 rxn_smarts="[O:1]([C:2]([C:3]1([H:9])[C:4]([H:10])([H:11])[C:5]1([H:12])[H:13])([H:7])[H:8])[H:6]>>[C:3]1([H:9])=[C:5]([H:13])[C:4]1([H:10])[H:11].[H:6][H:12].[O:1]=[C:2]([H:7])[H:8]"
O        1.61223603      -0.78197942       1.12602525
C        1.55316928       0.30498882       0.49763043
C       -0.12978395       0.57522090      -0.73620146
C       -1.35742423       0.58188640       0.12191501
C       -0.89307704      -0.53699614      -0.74054800
H        0.46497957      -1.67344329       0.70177123
H        2.26364811       0.50255415      -0.31702691
H        1.25993856       1.19092832       1.07957222
H        0.26682154       1.20758468      -1.51298698
H       -1.21080930       0.50099079       1.19821656
H       -2.23713221       1.14936285      -0.16981482
H       -0.24817745      -1.78979743       0.18066189
H       -1.34438890      -1.23130061      -1.42921443
13
Frame=5 idx=000733 GeodesicLength=0.4368881756532186 rxn_smarts="[O:1]([C:2]([C:3]1([H:9])[C:4]([H:10])([H:11])[C:5]1([H:12])[H:13])([H:7])[H:8])[H:6]>>[C:3]1([H:9])=[C:5]([H:13])[C:4]1([H:10])[H:11].[H:6][H:12].[O:1]=[C:2]([H:7])[H:8]"
O        1.65509691      -0.80811977       1.08823478
C        1.54889685       0.30005398       0.49623079
C       -0.12928011       0.56829488      -0.73954941
C       -1.36127636       0.59955915       0.11175544
C       -0.90204233      -0.54182841      -0.72535854
H        0.49491321      -1.69115326       0.70755637
H        2.26391995       0.56312843      -0.29531692
H        1.23506287       1.14755314       1.12386731
H        0.25959244       1.18260417      -1.53494879
H       -1.22044860       0.54206861       1.19014168
H       -2.23252580       1.17147977      -0.19565065
H       -0.24286809      -1.80401153       0.18331345
H       -1.36904094      -1.22962917      -1.41027550
13
Frame=6 idx=000733 GeodesicLength=0.5234482800499143 rxn_smarts="[O:1]([C:2]([C:3]1([H:9])[C:4]([H:10])([H:11])[C:5]1([H:12])[H:13])([H:7])[H:8])[H:6]>>[C:3]1([H:9])=[C:5]([H:13])[C:4]1([H:10])[H:11].[H:6][H:12].[O:1]=[C:2]([H:7])[H:8]"
O        1.69867233      -0.83290192       1.04648337
C        1.54447751       0.29505201       0.49521685
C       -0.12895361       0.56123050      -0.74296659
C       -1.36495658       0.61830130       0.10110443
C       -0.91145851      -0.54626049      -0.70868560
H        0.52756257      -1.70924354       0.71204553
H        2.26059428       0.62519550      -0.26948153
H        1.20980783       1.09934546       1.16823698
H        0.25279940       1.15558471      -1.55718901
H       -1.22996603       0.58576811       1.18108858
H       -2.22757811       1.19390496      -0.22279723
H       -0.23716883      -1.81809000       0.18629115
H       -1.39383224      -1.22788661      -1.38934693
13
Frame=7 idx=000733 GeodesicLength=0.6096156095406791 rxn_smarts="[O:1]([C:2]([C:3]1([H:9])[C:4]([H:10])([H:11])[C:5]1([H:12])[H:13])([H:7])[H:8])[H:6]>>[C:3]1([H:9])=[C:5]([H:13])[C:4]1([H:10])[H:11].[H:6][H:12].[O:1]=[C:2]([H:7])[H:8]"
O        1.74241617      -0.85567383       1.00122218
C        1.53978535       0.29010263       0.49479643
C       -0.12881560       0.55401100      -0.74643627
C       -1.36838226       0.63814310       0.08997975
C       -0.92134496      -0.55020582      -0.69034943
H        0.56353293      -1.72790258       0.71437937
H        2.25329915       0.68792878      -0.23922290
H        1.18418090       1.04634609       1.21219626
H        0.24652230       1.12638617      -1.57959145
H       -1.23915503       0.63230723       1.17094108
H       -2.22221702       1.21657047      -0.25122064
H       -0.23097373      -1.83200156       0.18948680
H       -1.41884819      -1.22601168      -1.36618118
13
Frame=8 idx=000733 GeodesicLength=0.6953944242584084 rxn_smarts="[O:1]([C:2]([C:3]1([H:9])[C:4]([H:10])([H:11])[C:5]1([H:12])[H:13])([H:7])[H:8])[H:6]>>[C:3]1([H:9])=[C:5]([H:13])[C:4]1([H:10])[H:11].[H:6][H:12].[O:1]=[C:2]([H:7])[H:8]"
O        1.78577454      -0.87575453       0.95327181
C        1.53468465       0.28530898       0.49522348
C       -0.12888373       0.54660333      -0.74992842
C       -1.37150586       0.65910271       0.07841632
C       -0.93173120      -0.55357715      -0.67016448
H        0.60340312      -1.74736696       0.71355708
H        2.24178553       0.75033820      -0.20440280
H        1.15821823       0.98882798       1.25518318
H        0.24079845       1.09489502      -1.60199846
H       -1.24778870       0.68190928       1.15957462
H       -2.21642800       1.23940611      -0.28086115
H       -0.22413251      -1.84576651       0.19266578
H       -1.44419454      -1.22392647      -1.34053695
13
Frame=9 idx=000733 GeodesicLength=0.780830249168724 rxn_smarts="[O:1]([C:2]([C:3]1([H:9])[C:4]([H:10])([H:11])[C:5]1([H:12])[H:13])([H:7])[H:8])[H:6]>>[C:3]1([H:9])=[C:5]([H:13])[C:4]1([H:10])[H:11].[H:6][H:12].[O:1]=[C:2]([H:7])[H:8]"
O        1.82826289      -0.89262648       0.90345628
C        1.52896055       0.28070673       0.49676442
C       -0.12924247       0.53893473      -0.75344474
C       -1.37421468       0.68117769       0.06645715
C       -0.94263342      -0.55627887      -0.64794817
H        0.64753312      -1.76774769       0.70877425
H        2.22582087       0.81160738      -0.16489037
H        1.13188521       0.92707097       1.29673592
H        0.23548167       1.06091642      -1.62434866
H       -1.25541897       0.73488013       1.14687674
H       -2.21011941       1.26233291      -0.31167300
H       -0.21638426      -1.85944340       0.19546711
H       -1.46993110      -1.22153052      -1.31222692
13
Frame=10 idx=000733 GeodesicLength=0.8659407333051452 rxn_smarts="[O:1]([C:2]([C:3]1([H:9])[C:4]([H:10])([H:11])[C:5]1([H:12])[H:13])([H:7])[H:8])[H:6]>>[C:3]1([H:9])=[C:5]([H:13])[C:4]1([H:10])[H:11].[H:6][H:12].[O:1]=[C:2]([H:7])[H:8]"
O        1.86952952      -0.90571686       0.85310198
C        1.52248090       0.27634799       0.49967853
C       -0.12987708       0.53095364      -0.75690195
C       -1.37646428       0.70430669       0.05414731
C       -0.95406287      -0.55821757      -0.62352999
H        0.69612371      -1.78913347       0.69899875
H        2.20538890       0.87068679      -0.12092010
H        1.10517748       0.86174253       1.33622514
H        0.23058403       1.02440285      -1.64635479
H       -1.26175104       0.79126339       1.13262935
H       -2.20330690       1.28517141      -0.34351207
H       -0.20763704      -1.87308890       0.19742427
H       -1.49618533      -1.21871850      -1.28098642
13
Frame=11 idx=000733 GeodesicLength=0.950750774837437 rxn_smarts="[O:1]([C:2]([C:3]1([H:9])[C:4]([H:10])([H:11])[C:5]1([H:12])[H:13])([H:7])[H:8])[H:6]>>[C:3]1([H:9])=[C:5]([H:13])[C:4]1([H:10])[H:11].[H:6][H:12].[O:1]=[C:2]([H:7])[H:8]"
O        1.90934479      -0.91470058       0.80329108
C        1.51508581       0.27220102       0.50416308
C       -0.13079737       0.52258074      -0.76024182
C       -1.37815635       0.72837965       0.04153389
C       -0.96598928      -0.55929629      -0.59676727
H        0.74904108      -1.81132806       0.68362347
H        2.18049479       0.92685214      -0.07275415
H        1.07803762       0.79339433       1.37318943
H        0.22599348       0.98527537      -1.66780033
H       -1.26635332       0.85106706       1.11660588
H       -2.19593478       1.30770644      -0.37623762
H       -0.19776847      -1.88675659       0.19799726
H       -1.52299800      -1.21537523      -1.24660291
13
Frame=12 idx=000733 GeodesicLength=1.0354310590426765 rxn_smarts="[O:1]([C:2]([C:3]1([H:9])[C:4]([H:10])([H:11])[C:5]1([H:12])[H:13])([H:7])[H:8])[H:6]>>[C:3]1([H:9])=[C:5]([H:13])[C:4]1([H:10])[H:11].[H:6][H:12].[O:1]=[C:2]([H:7])[H:8]"
O        1.94762608      -0.91944957       0.75509834
C        1.50671096       0.26818342       0.51036092
C       -0.13201132       0.51376007      -0.76341716
C       -1.37924131       0.75324899       0.02867389
C       -0.97835650      -0.55942146      -0.56763125
H        0.80591998      -1.83390970       0.66246578
H        2.15129687       0.97943624      -0.02082634
H        1.05050532       0.72268180       1.40726030
H        0.22153435       0.94356193      -1.68846879
H       -1.26884832       0.91410817       1.09859686
H       -2.18805895       1.32971046      -0.40964931
H       -0.18669388      -1.90051978       0.19654092
H       -1.55038328      -1.21139057      -1.20900417
13
Frame=13 idx=000733 GeodesicLength=1.1199963907417048 rxn_smarts="[O:1]([C:2]([C:3]1([H:9])[C:4]([H:10])([H:11])[C:5]1([H:12])[H:13])([H:7])[H:8])[H:6]>>[C:3]1([H:9])=[C:5]([H:13])[C:4]1([H:10])[H:11].[H:6][H:12].[O:1]=[C:2]([H:7])[H:8]"
O        1.98417512      -0.92011637       0.70920910
C        1.49728017       0.26412533       0.51821316
C       -0.13357169       0.50451174      -0.76646157
C       -1.37960555       0.77866020       0.01570448
C       -0.99095522      -0.55852322      -0.53620473
H        0.86584790      -1.85612335       0.63657271
H        2.11789378       1.02803827       0.03434760
H        1.02274099       0.65015435       1.43812672
H        0.21679588       0.89953130      -1.70831884
H       -1.26869156       0.98001063       1.07850294
H       -2.17967056       1.35094371      -0.44342658
H       -0.17420077      -1.91459523       0.19209121
H       -1.57803848      -1.20661735      -1.16835621
13
Frame=14 idx=000733 GeodesicLength=1.2045478506923593 rxn_smarts="[O:1]([C:2]([C:3]1([H:9])[C:4]([H:10])([H:11])[C:5]1([H:12])[H:13])([H:7])[H:8])[H:6]>>[C:3]1([H:9])=[C:5]([H:13])[C:4]1([H:10])[H:11].[H:6][H:12].[O:1]=[C:2]([H:7])[H:8]"
O        2.01892910      -0.91683356       0.66675401
C        1.48693398       0.25995093       0.52759580
C       -0.13541297       0.49489403      -0.76927365
C       -1.37921128       0.80419407       0.00275063
C       -1.00364224      -0.55651518      -0.50288002
H        0.92801376      -1.87714193       0.60693894
H        2.08098055       1.07188638       0.09174680
H        0.99507159       0.57701257       1.46533639
H        0.21158353       0.85366238      -1.72693021
H       -1.26574009       1.04765027       1.05622735
H       -2.17091369       1.37095673      -0.47701462
H       -0.16069575      -1.92885149       0.18383761
H       -1.60589649      -1.20086519      -1.12508904
13
Frame=15 idx=000733 GeodesicLength=1.2891048235209441 rxn_smarts="[O:1]([C:2]([C:3]1([H:9])[C:4]([H:10])([H:11])[C:5]1([H:12])[H:13])([H:7])[H:8])[H:6]>>[C:3]1([H:9])=[C:5]([H:13])[C:4]1([H:10])[H:11].[H:6][H:12].[O:1]=[C:2]([H:7])[H:8]"
O        2.05184779      -0.90999404       0.62803663
C        1.47578370       0.25554111       0.53821979
C       -0.13751670       0.48500881      -0.77187283
C       -1.37800164       0.82947045      -0.01004381
C       -1.01618050      -0.55337157      -0.46810777
H        0.99154673      -1.89623010       0.57538789
H        2.04105815       1.11078936       0.15057195
H        0.96784790       0.50396849       1.48872892
H        0.20554956       0.80652648      -1.74419148
H       -1.25982676       1.11600678       1.03182002
H       -2.16185196       1.38948276      -0.50994313
H       -0.14661353      -1.94320268       0.17117958
H       -1.63364274      -1.19399585      -1.07978575
13
Frame=16 idx=000733 GeodesicLength=1.3737653771065244 rxn_smarts="[O:1]([C:2]([C:3]1([H:9])[C:4]([H:10])([H:11])[C:5]1([H:12])[H:13])([H:7])[H:8])[H:6]>>[C:3]1([H:9])=[C:5]([H:13])[C:4]1([H:10])[H:11].[H:6][H:12].[O:1]=[C:2]([H:7])[H:8]"
O        2.08301622      -0.90006083       0.59308526
C        1.46399661       0.25080641       0.54974247
C       -0.13983644       0.47499903      -0.77431226
C       -1.37599344       0.85417604      -0.02255858
C       -1.02835875      -0.54910622      -0.43244707
H        1.05588859      -1.91296929       0.54366160
H        1.99869477       1.14472182       0.21005134
H        0.94143467       0.43163385       1.50828951
H        0.19844639       0.75877178      -1.76007342
H       -1.25106022       1.18400963       1.00544604
H       -2.15261130       1.40639863      -0.54178098
H       -0.13265135      -1.95743897       0.15405544
H       -1.66096574      -1.18594190      -1.03315935
