13
Frame=0 idx=008829 GeodesicLength=0.0 rxn_smarts="[C:1]([c:2]1[c:3]([H:11])[c:4]([O:5][H:12])[n:6][n:7]1[H:13])([H:8])([H:9])[H:10]>>[C:1]([C:2]([C:3](=[C:4]=[N:6][O:5][H:12])[H:11])=[N:7][H:13])([H:8])([H:9])[H:10]"
C       -2.01646156       0.04710621      -0.19332458
C       -0.64676939       0.08012689       0.43610819
C        0.43378974      -0.41639896      -0.41163258
C        1.68423641      -0.41231799       0.04684282
O        3.07953182      -0.24594062      -0.82138391
N        2.75180992      -0.33823209       0.70827004
N       -0.39092748       0.49728259       1.61307490
H       -2.76892177       0.44086583       0.48923257
H       -2.28590465      -0.97799987      -0.45800849
H       -2.02997093       0.63595506      -1.11318071
H        0.25320974      -0.84437827      -1.38716109
H        3.17144632       0.70633770      -0.98044475
H       -1.23506822       0.82759349       2.07160753
13
Frame=1 idx=008829 GeodesicLength=0.09269298748202655 rxn_smarts="[C:1]([c:2]1[c:3]([H:11])[c:4]([O:5][H:12])[n:6][n:7]1[H:13])([H:8])([H:9])[H:10]>>[C:1]([C:2]([C:3](=[C:4]=[N:6][O:5][H:12])[H:11])=[N:7][H:13])([H:8])([H:9])[H:10]"
C       -2.02879393       0.03821028      -0.18181372
C       -0.64062521       0.09593836       0.40056809
C        0.42380731      -0.39765761      -0.46566496
C        1.66708852      -0.45044007       0.01256123
O        3.10025090      -0.24272483      -0.77766255
N        2.68044509      -0.30682285       0.74421111
N       -0.34790271       0.49348740       1.57821885
H       -2.76163942       0.44435951       0.51471966
H       -2.29979581      -0.99415951      -0.41486059
H       -2.07484118       0.60505180      -1.11430951
H        0.23409150      -0.82658084      -1.43869330
H        3.22008526       0.70805754      -0.92210170
H       -1.17217033       0.83328083       2.06482740
13
Frame=2 idx=008829 GeodesicLength=0.18588861627476927 rxn_smarts="[C:1]([c:2]1[c:3]([H:11])[c:4]([O:5][H:12])[n:6][n:7]1[H:13])([H:8])([H:9])[H:10]>>[C:1]([C:2]([C:3](=[C:4]=[N:6][O:5][H:12])[H:11])=[N:7][H:13])([H:8])([H:9])[H:10]"
C       -2.03886143       0.03205800      -0.17180391
C       -0.63526365       0.11594121       0.36578448
C        0.41480410      -0.37820475      -0.51452489
C        1.65102320      -0.47460119      -0.02036159
O        3.11567081      -0.24121473      -0.73932392
N        2.60988121      -0.27785647       0.77059458
N       -0.30803084       0.49980296       1.54137304
H       -2.75349494       0.45465959       0.53382572
H       -2.31010231      -1.00778899      -0.36837997
H       -2.11523072       0.57170066      -1.11824708
H        0.21515863      -0.81741579      -1.48067973
H        3.27182054       0.70630570      -0.86421396
H       -1.11737460       0.81661381       2.06595722
13
Frame=3 idx=008829 GeodesicLength=0.2791965379480463 rxn_smarts="[C:1]([c:2]1[c:3]([H:11])[c:4]([O:5][H:12])[n:6][n:7]1[H:13])([H:8])([H:9])[H:10]>>[C:1]([C:2]([C:3](=[C:4]=[N:6][O:5][H:12])[H:11])=[N:7][H:13])([H:8])([H:9])[H:10]"
C       -2.04770977       0.02455606      -0.16127205
C       -0.63120261       0.13099427       0.33398845
C        0.40570671      -0.36105972      -0.56018124
C        1.63581452      -0.49193661      -0.05386122
O        3.12643523      -0.23589577      -0.70601872
N        2.54153250      -0.25936059       0.78907482
N       -0.27153919       0.49846762       1.50792349
H       -2.74527746       0.46259442       0.55200575
H       -2.31851772      -1.02116533      -0.32441338
H       -2.15225704       0.53898450      -1.11892413
H        0.19612896      -0.80905045      -1.52001441
H        3.32274836       0.70717129      -0.79809283
H       -1.06186250       0.81570030       2.05978547
13
Frame=4 idx=008829 GeodesicLength=0.372752404287897 rxn_smarts="[C:1]([c:2]1[c:3]([H:11])[c:4]([O:5][H:12])[n:6][n:7]1[H:13])([H:8])([H:9])[H:10]>>[C:1]([C:2]([C:3](=[C:4]=[N:6][O:5][H:12])[H:11])=[N:7][H:13])([H:8])([H:9])[H:10]"
C       -2.05530358       0.01741340      -0.15086007
C       -0.62785014       0.14385747       0.30384518
C        0.39638564      -0.34683547      -0.60292728
C        1.62176537      -0.50384576      -0.08764539
O        3.13372058      -0.22708836      -0.67710788
N        2.47600470      -0.24712124       0.80157665
N       -0.23698462       0.49727374       1.47472747
H       -2.73653628       0.47205642       0.56782887
H       -2.32567601      -1.03309423      -0.28048265
H       -2.18606582       0.50607585      -1.11865003
H        0.17681135      -0.80399463      -1.55605987
H        3.37151840       0.70892832      -0.72623303
H       -1.00778959       0.81637448       2.05198804
13
Frame=5 idx=008829 GeodesicLength=0.4662656688706828 rxn_smarts="[C:1]([c:2]1[c:3]([H:11])[c:4]([O:5][H:12])[n:6][n:7]1[H:13])([H:8])([H:9])[H:10]>>[C:1]([C:2]([C:3](=[C:4]=[N:6][O:5][H:12])[H:11])=[N:7][H:13])([H:8])([H:9])[H:10]"
C       -2.06185678       0.01139713      -0.14101685
C       -0.62523840       0.15616397       0.27494935
C        0.38697058      -0.33475644      -0.64254959
C        1.60894087      -0.51021838      -0.12025652
O        3.13850958      -0.21709974      -0.65184174
N        2.41367735      -0.23519086       0.80946811
N       -0.20432678       0.50087129       1.44062127
H       -2.72771419       0.48379425       0.58066246
H       -2.33145575      -1.04296143      -0.23640506
H       -2.21703169       0.47314664      -1.11828846
H        0.15783357      -0.80199777      -1.58843731
H        3.41865670       0.70765241      -0.65309542
H       -0.95696504       0.80919892       2.04618977
13
Frame=6 idx=008829 GeodesicLength=0.559884129562319 rxn_smarts="[C:1]([c:2]1[c:3]([H:11])[c:4]([O:5][H:12])[n:6][n:7]1[H:13])([H:8])([H:9])[H:10]>>[C:1]([C:2]([C:3](=[C:4]=[N:6][O:5][H:12])[H:11])=[N:7][H:13])([H:8])([H:9])[H:10]"
C       -2.06777469       0.00385258      -0.13020768
C       -0.62319098       0.16537045       0.24737544
C        0.37707718      -0.32351600      -0.68163992
C        1.59693025      -0.51394778      -0.15491031
O        3.14097012      -0.20216964      -0.62989457
N        2.35372161      -0.23337120       0.81334167
N       -0.17278392       0.50204456       1.40699974
H       -2.71870267       0.49336079       0.59372963
H       -2.33569474      -1.05340168      -0.19246954
H       -2.24710977       0.43937786      -1.11527195
H        0.13834321      -0.79819875      -1.62137672
H        3.46303783       0.70617892      -0.57036488
H       -0.90482343       0.81441990       2.03468910
13
Frame=7 idx=008829 GeodesicLength=0.6531261649514302 rxn_smarts="[C:1]([c:2]1[c:3]([H:11])[c:4]([O:5][H:12])[n:6][n:7]1[H:13])([H:8])([H:9])[H:10]>>[C:1]([C:2]([C:3](=[C:4]=[N:6][O:5][H:12])[H:11])=[N:7][H:13])([H:8])([H:9])[H:10]"
C       -2.07326549      -0.00366359      -0.11986387
C       -0.62239663       0.17355954       0.22191985
C        0.36731417      -0.31150104      -0.71775787
C        1.58606719      -0.51151863      -0.18739235
O        3.14256513      -0.18890391      -0.61081701
N        2.29707568      -0.22537836       0.81401223
N       -0.14469704       0.50351565       1.37518251
H       -2.71088098       0.50221223       0.60471446
H       -2.33842171      -1.06300142      -0.15031937
H       -2.27505370       0.40618156      -1.11149635
H        0.12025219      -0.79306940      -1.65179114
H        3.50843911       0.69584112      -0.49103871
H       -0.85699793       0.81572624       2.02464762
13
Frame=8 idx=008829 GeodesicLength=0.7461150667178713 rxn_smarts="[C:1]([c:2]1[c:3]([H:11])[c:4]([O:5][H:12])[n:6][n:7]1[H:13])([H:8])([H:9])[H:10]>>[C:1]([C:2]([C:3](=[C:4]=[N:6][O:5][H:12])[H:11])=[N:7][H:13])([H:8])([H:9])[H:10]"
C       -2.07837243      -0.01145216      -0.10964618
C       -0.62248816       0.18011434       0.19825968
C        0.35746119      -0.29951574      -0.75176211
C        1.57625617      -0.50479380      -0.21898083
O        3.14319989      -0.17421155      -0.59474171
N        2.24350505      -0.21551507       0.81183175
N       -0.11907297       0.50422875       1.34486997
H       -2.70378909       0.51041300       0.61427552
H       -2.34017875      -1.07205473      -0.10931910
H       -2.30122034       0.37314941      -1.10677898
H        0.10295643      -0.78695926      -1.68071778
H        3.55334064       0.67894188      -0.41150446
H       -0.81159763       0.81765493       2.01421424
13
Frame=9 idx=008829 GeodesicLength=0.8387095911523281 rxn_smarts="[C:1]([c:2]1[c:3]([H:11])[c:4]([O:5][H:12])[n:6][n:7]1[H:13])([H:8])([H:9])[H:10]>>[C:1]([C:2]([C:3](=[C:4]=[N:6][O:5][H:12])[H:11])=[N:7][H:13])([H:8])([H:9])[H:10]"
C       -2.08326403      -0.01919927      -0.09989131
C       -0.62351629       0.18488813       0.17671122
C        0.34760430      -0.28779784      -0.78314425
C        1.56760515      -0.49358907      -0.24890940
O        3.14324658      -0.15813265      -0.58185981
N        2.19337201      -0.20055939       0.80715101
N       -0.09628628       0.50342908       1.31680528
H       -2.69769717       0.51824181       0.62209169
H       -2.34163293      -1.08022400      -0.07022285
H       -2.32525468       0.34098499      -1.10158312
H        0.08678280      -0.78069633      -1.70744692
H        3.59838210       0.65415897      -0.33408536
H       -0.76934156       0.81849557       2.00438380
13
Frame=10 idx=008829 GeodesicLength=0.9308928039121944 rxn_smarts="[C:1]([c:2]1[c:3]([H:11])[c:4]([O:5][H:12])[n:6][n:7]1[H:13])([H:8])([H:9])[H:10]>>[C:1]([C:2]([C:3](=[C:4]=[N:6][O:5][H:12])[H:11])=[N:7][H:13])([H:8])([H:9])[H:10]"
C       -2.08804454      -0.02660406      -0.09081757
C       -0.62538383       0.18820676       0.15713164
C        0.33783180      -0.27657339      -0.81180241
C        1.56011622      -0.47806067      -0.27682588
O        3.14303090      -0.14024121      -0.57211722
N        2.14670649      -0.17874912       0.80034188
N       -0.07621498       0.50220868       1.29073760
H       -2.69266780       0.52627081       0.62784861
H       -2.34314879      -1.08724890      -0.03288595
H       -2.34714648       0.30975891      -1.09641792
H        0.07187687      -0.77520510      -1.73155316
H        3.64366295       0.62068581      -0.25991624
H       -0.73061881       0.81555149       1.99627662
13
Frame=11 idx=008829 GeodesicLength=1.0225923654310614 rxn_smarts="[C:1]([c:2]1[c:3]([H:11])[c:4]([O:5][H:12])[n:6][n:7]1[H:13])([H:8])([H:9])[H:10]>>[C:1]([C:2]([C:3](=[C:4]=[N:6][O:5][H:12])[H:11])=[N:7][H:13])([H:8])([H:9])[H:10]"
C       -2.09233708      -0.03344139      -0.08191556
C       -0.62717454       0.18916158       0.13879410
C        0.32795536      -0.26789252      -0.83899427
C        1.55400176      -0.46050147      -0.30517443
O        3.14189372      -0.11433143      -0.56495741
N        2.10288894      -0.15940831       0.79172618
N       -0.05680524       0.49957025       1.26550287
H       -2.68724765       0.53560429       0.63228880
H       -2.34535881      -1.09268874       0.00390851
H       -2.36704257       0.27946382      -1.09085151
H        0.05720075      -0.77240911      -1.75410741
H        3.68415939       0.58303803      -0.18352119
H       -0.69213404       0.81383499       1.98730132
13
Frame=12 idx=008829 GeodesicLength=1.1134843010781381 rxn_smarts="[C:1]([c:2]1[c:3]([H:11])[c:4]([O:5][H:12])[n:6][n:7]1[H:13])([H:8])([H:9])[H:10]>>[C:1]([C:2]([C:3](=[C:4]=[N:6][O:5][H:12])[H:11])=[N:7][H:13])([H:8])([H:9])[H:10]"
C       -2.09665364      -0.03969144      -0.07441961
C       -0.62978973       0.18905582       0.12293248
C        0.31892944      -0.25975251      -0.86204432
C        1.54900667      -0.43914868      -0.32869226
O        3.14156292      -0.08943433      -0.56027476
N        2.06293222      -0.12626020       0.78263369
N       -0.04095349       0.49746411       1.24323490
H       -2.68362939       0.54402973       0.63454869
H       -2.34783977      -1.09702086       0.03665947
H       -2.38428901       0.25173386      -1.08609446
H        0.04538028      -0.77022289      -1.77299698
H        3.72444199       0.53455240      -0.11770478
H       -0.65909850       0.80469499       1.98221795
13
Frame=13 idx=008829 GeodesicLength=1.2039160189817593 rxn_smarts="[C:1]([c:2]1[c:3]([H:11])[c:4]([O:5][H:12])[n:6][n:7]1[H:13])([H:8])([H:9])[H:10]>>[C:1]([C:2]([C:3](=[C:4]=[N:6][O:5][H:12])[H:11])=[N:7][H:13])([H:8])([H:9])[H:10]"
C       -2.10083664      -0.04445463      -0.06762894
C       -0.63215945       0.18518541       0.10893536
C        0.30994484      -0.25564958      -0.88302328
C        1.54595774      -0.41422981      -0.35276938
O        3.14039646      -0.05173111      -0.55862038
N        2.02607743      -0.09149339       0.77101457
N       -0.02597378       0.49023781       1.22342214
H       -2.67926322       0.55621845       0.63424738
H       -2.35354161      -1.09844193       0.06880493
H       -2.39884304       0.22591579      -1.08205477
H        0.03415051      -0.77448168      -1.78851707
H        3.76066834       0.47894656      -0.05138876
H       -0.62657758       0.79397811       1.97757822
13
Frame=14 idx=008829 GeodesicLength=1.2932978825334231 rxn_smarts="[C:1]([c:2]1[c:3]([H:11])[c:4]([O:5][H:12])[n:6][n:7]1[H:13])([H:8])([H:9])[H:10]>>[C:1]([C:2]([C:3](=[C:4]=[N:6][O:5][H:12])[H:11])=[N:7][H:13])([H:8])([H:9])[H:10]"
C       -2.10540723      -0.04654943      -0.06352272
C       -0.63488456       0.17723892       0.09892944
C        0.30240167      -0.25629403      -0.89776464
C        1.54492874      -0.38539655      -0.37067233
O        3.14017148      -0.00980079      -0.56108276
N        1.99409723      -0.03537831       0.75838889
N       -0.01500636       0.47643316       1.20995591
H       -2.67585215       0.57188681       0.62949813
H       -2.36424627      -1.09588613       0.09536868
H       -2.40856140       0.20575128      -1.08099338
H        0.02692451      -0.78625260      -1.79685691
H        3.79562134       0.41285751      -0.00027406
H       -0.60018700       0.77139016       1.97902574
13
Frame=15 idx=008829 GeodesicLength=1.3820294458879796 rxn_smarts="[C:1]([c:2]1[c:3]([H:11])[c:4]([O:5][H:12])[n:6][n:7]1[H:13])([H:8])([H:9])[H:10]>>[C:1]([C:2]([C:3](=[C:4]=[N:6][O:5][H:12])[H:11])=[N:7][H:13])([H:8])([H:9])[H:10]"
C       -2.10927525      -0.04754690      -0.06039817
C       -0.63688788       0.16737815       0.09056882
C        0.29627955      -0.25917633      -0.90990603
C        1.54522572      -0.35416703      -0.38674580
O        3.14051351       0.03904817      -0.56311151
N        1.96370461       0.02472850       0.74538254
N       -0.00475935       0.45998265       1.19891170
H       -2.67163125       0.58929061       0.62258879
H       -2.37627535      -1.09129038       0.12028267
H       -2.41561397       0.18741028      -1.08097476
H        0.02241547      -0.80146637      -1.80204060
H        3.82134161       0.34012794       0.04343310
H       -0.57503741       0.74568071       1.98200925
13
Frame=16 idx=008829 GeodesicLength=1.470391585454175 rxn_smarts="[C:1]([c:2]1[c:3]([H:11])[c:4]([O:5][H:12])[n:6][n:7]1[H:13])([H:8])([H:9])[H:10]>>[C:1]([C:2]([C:3](=[C:4]=[N:6][O:5][H:12])[H:11])=[N:7][H:13])([H:8])([H:9])[H:10]"
C       -2.11218650      -0.04959071      -0.05760320
C       -0.63838273       0.15750287       0.08345439
C        0.29189651      -0.26018296      -0.92033279
C        1.54602906      -0.32006824      -0.40039785
O        3.14237442       0.08852879      -0.56226608
N        1.93382908       0.09020418       0.73245419
N        0.00461161       0.44356824       1.18970480
H       -2.66752196       0.60444786       0.61486251
H       -2.38645399      -1.08761696       0.14387468
H       -2.42111995       0.16834638      -1.08107726
H        0.02125387      -0.81378590      -1.80639909
H        3.83707733       0.25723520       0.07847475
H       -0.55140676       0.72141124       1.98525093
