16
Frame=0 idx=004273 GeodesicLength=0.0 rxn_smarts="[C:1]([C:2]([C:3]([C:4]([C:5]#[C:6][H:16])([H:14])[H:15])([H:12])[H:13])([H:10])[H:11])([H:7])([H:8])[H:9]>>[C:1]([C:2]([C:3]([C:4](=[C:5]=[C:6]([H:14])[H:16])[H:15])([H:12])[H:13])([H:10])[H:11])([H:7])([H:8])[H:9]"
C       -2.34215133      -0.20527007       0.29902941
C       -0.98493848      -0.22829325      -0.38883352
C       -0.00798206       0.78970948       0.21030908
C        1.35184634       0.75423609      -0.41609404
C        2.27865062      -0.22047366      -0.11452887
C        2.72454409      -1.30140709       0.45783524
H       -2.24628642      -0.43405334       1.36305789
H       -3.01854777      -0.94087662      -0.13889883
H       -2.81594817       0.77566758       0.21235265
H       -0.53923912      -1.22375254      -0.30791037
H       -1.10368125      -0.02561899      -1.45772142
H       -0.42157555       1.79716390       0.10363393
H        0.10631739       0.58309646       1.28027351
H        2.16686159      -0.32579557      -1.27866194
H        1.57376291       1.45066272      -1.21799717
H        3.27836717      -1.24499507       1.39415448
16
Frame=1 idx=004273 GeodesicLength=0.10191971991650813 rxn_smarts="[C:1]([C:2]([C:3]([C:4]([C:5]#[C:6][H:16])([H:14])[H:15])([H:12])[H:13])([H:10])[H:11])([H:7])([H:8])[H:9]>>[C:1]([C:2]([C:3]([C:4](=[C:5]=[C:6]([H:14])[H:16])[H:15])([H:12])[H:13])([H:10])[H:11])([H:7])([H:8])[H:9]"
C       -2.35162829      -0.19839921       0.29564267
C       -0.99711527      -0.22309641      -0.39771739
C       -0.00874772       0.77615404       0.21276890
C        1.34391840       0.73890213      -0.43002702
C        2.30883417      -0.18031273      -0.08073577
C        2.75092499      -1.26859958       0.47355273
H       -2.25436846      -0.44913425       1.35458635
H       -3.03859371      -0.91669021      -0.15441833
H       -2.81437368       0.78948171       0.23061147
H       -0.55979375      -1.22361418      -0.33469369
H       -1.11982281      -0.00262837      -1.46272353
H       -0.41378078       1.78900161       0.12612800
H        0.10751298       0.55343091       1.27906781
H        2.16685076      -0.37005808      -1.25927427
H        1.54994805       1.42259302      -1.24712048
H        3.33023513      -1.23703040       1.39435255
16
Frame=2 idx=004273 GeodesicLength=0.20472996939253285 rxn_smarts="[C:1]([C:2]([C:3]([C:4]([C:5]#[C:6][H:16])([H:14])[H:15])([H:12])[H:13])([H:10])[H:11])([H:7])([H:8])[H:9]>>[C:1]([C:2]([C:3]([C:4](=[C:5]=[C:6]([H:14])[H:16])[H:15])([H:12])[H:13])([H:10])[H:11])([H:7])([H:8])[H:9]"
C       -2.36342632      -0.18944403       0.29113518
C       -1.01164021      -0.21750449      -0.40765394
C       -0.00965638       0.75892115       0.21608189
C        1.33591173       0.71846272      -0.44257914
C        2.33637026      -0.14227351      -0.04897610
C        2.78369795      -1.23165800       0.49197538
H       -2.26582430      -0.46436162       1.34402945
H       -3.06239707      -0.88750148      -0.17209595
H       -2.81257813       0.80597364       0.24974143
H       -0.58537247      -1.22389981      -0.36469087
H       -1.13737066       0.02332308      -1.46798089
H       -0.40356080       1.77781239       0.15162038
H        0.10776749       0.51740198       1.27794516
H        2.16659749      -0.41888826      -1.23680958
H        1.52696517       1.39034857      -1.27316870
H        3.39451624      -1.21671233       1.39142629
16
Frame=3 idx=004273 GeodesicLength=0.30803373046029997 rxn_smarts="[C:1]([C:2]([C:3]([C:4]([C:5]#[C:6][H:16])([H:14])[H:15])([H:12])[H:13])([H:10])[H:11])([H:7])([H:8])[H:9]>>[C:1]([C:2]([C:3]([C:4](=[C:5]=[C:6]([H:14])[H:16])[H:15])([H:12])[H:13])([H:10])[H:11])([H:7])([H:8])[H:9]"
C       -2.37689862      -0.17874488       0.28577243
C       -1.02782884      -0.21164010      -0.41828601
C       -0.01064598       0.73848143       0.22001743
C        1.32797657       0.69374263      -0.45385438
C        2.36182254      -0.10509130      -0.01912708
C        2.82093687      -1.19100789       0.51201106
H       -2.28008994      -0.47925892       1.33172419
H       -3.08876701      -0.85422859      -0.19109674
H       -2.81038034       0.82432915       0.26931437
H       -0.61492696      -1.22433823      -0.39702320
H       -1.15552793       0.05148062      -1.47315497
H       -0.39129366       1.76364511       0.17942575
H        0.10722227       0.47597643       1.27663754
H        2.16657641      -0.47136757      -1.21098330
H        1.50455384       1.35469001      -1.29655855
H        3.46727078      -1.18666790       1.38518143
16
Frame=4 idx=004273 GeodesicLength=0.4114165177721649 rxn_smarts="[C:1]([C:2]([C:3]([C:4]([C:5]#[C:6][H:16])([H:14])[H:15])([H:12])[H:13])([H:10])[H:11])([H:7])([H:8])[H:9]>>[C:1]([C:2]([C:3]([C:4](=[C:5]=[C:6]([H:14])[H:16])[H:15])([H:12])[H:13])([H:10])[H:11])([H:7])([H:8])[H:9]"
C       -2.39147904      -0.16664030       0.27978859
C       -1.04510868      -0.20552188      -0.42938370
C       -0.01166960       0.71527106       0.22437035
C        1.32032212       0.66544159      -0.46385850
C        2.38537630      -0.06805412       0.00886859
C        2.86121683      -1.14695116       0.53277932
H       -2.29659823      -0.49363946       1.31795623
H       -3.11672564      -0.81761739      -0.21082029
H       -2.80761551       0.84386438       0.28915743
H       -0.64757282      -1.22463596      -0.43115819
H       -1.17364476       0.08138514      -1.47802724
H       -0.37729920       1.74660866       0.20895263
H        0.10593597       0.43001756       1.27492704
H        2.16686814      -0.52701067      -1.18145048
H        1.48271753       1.31620400      -1.31756336
H        3.54527659      -1.14872144       1.37546158
16
Frame=5 idx=004273 GeodesicLength=0.5139358032028853 rxn_smarts="[C:1]([C:2]([C:3]([C:4]([C:5]#[C:6][H:16])([H:14])[H:15])([H:12])[H:13])([H:10])[H:11])([H:7])([H:8])[H:9]>>[C:1]([C:2]([C:3]([C:4](=[C:5]=[C:6]([H:14])[H:16])[H:15])([H:12])[H:13])([H:10])[H:11])([H:7])([H:8])[H:9]"
C       -2.40550444      -0.15419543       0.27449614
C       -1.06229738      -0.19946797      -0.44051899
C       -0.01206656       0.69019622       0.22821335
C        1.31342216       0.63488114      -0.47393235
C        2.40725001      -0.03024783       0.03347644
C        2.90339875      -1.10026294       0.55000243
H       -2.31288185      -0.50786619       1.30409234
H       -3.14429832      -0.77952993      -0.22909738
H       -2.80342424       0.86304406       0.31026058
H       -0.68144078      -1.22466755      -0.46619050
H       -1.19122431       0.11189051      -1.48219236
H       -0.36170654       1.72715993       0.23856863
H        0.10517374       0.38148945       1.27197886
H        2.16928322      -0.58255369      -1.15083707
H        1.46172524       1.27718211      -1.33689009
H        3.61459130      -1.10705190       1.36856998
16
Frame=6 idx=004273 GeodesicLength=0.616176976062538 rxn_smarts="[C:1]([C:2]([C:3]([C:4]([C:5]#[C:6][H:16])([H:14])[H:15])([H:12])[H:13])([H:10])[H:11])([H:7])([H:8])[H:9]>>[C:1]([C:2]([C:3]([C:4](=[C:5]=[C:6]([H:14])[H:16])[H:15])([H:12])[H:13])([H:10])[H:11])([H:7])([H:8])[H:9]"
C       -2.42031881      -0.14046994       0.26839007
C       -1.07999960      -0.19322854      -0.45172697
C       -0.01276768       0.66289408       0.23253951
C        1.30691135       0.60144004      -0.48204598
C        2.42683395       0.00783676       0.05719733
C        2.94648146      -1.05079506       0.56735712
H       -2.33149979      -0.52075086       1.28879297
H       -3.17246861      -0.73889555      -0.24798085
H       -2.79878784       0.88290814       0.33046838
H       -0.71751332      -1.22421282      -0.50190488
H       -1.20766243       0.14329650      -1.48576728
H       -0.34509980       1.70497095       0.26931556
H        0.10315807       0.32960271       1.26868622
H        2.17182813      -0.64078518      -1.11534501
H        1.44125090       1.23570189      -1.35359396
H        3.68965402      -1.05951313       1.35561777
16
Frame=7 idx=004273 GeodesicLength=0.7176196556931428 rxn_smarts="[C:1]([C:2]([C:3]([C:4]([C:5]#[C:6][H:16])([H:14])[H:15])([H:12])[H:13])([H:10])[H:11])([H:7])([H:8])[H:9]>>[C:1]([C:2]([C:3]([C:4](=[C:5]=[C:6]([H:14])[H:16])[H:15])([H:12])[H:13])([H:10])[H:11])([H:7])([H:8])[H:9]"
C       -2.43478330      -0.12622524       0.26238768
C       -1.09738422      -0.18700746      -0.46273605
C       -0.01334998       0.63413132       0.23670802
C        1.30116214       0.56612731      -0.48910325
C        2.44410269       0.04657676       0.07911903
C        2.98980483      -0.99927691       0.58179131
H       -2.35069999      -0.53264751       1.27307629
H       -3.19990302      -0.69704768      -0.26605641
H       -2.79319998       0.90244918       0.35053774
H       -0.75436113      -1.22318863      -0.53766989
H       -1.22264206       0.17481186      -1.48856446
H       -0.32770753       1.68055313       0.29997506
H        0.10069696       0.27595664       1.26456930
H        2.17560966      -0.69944410      -1.07694234
H        1.42157697       1.19333211      -1.36823861
H        3.76107795      -1.00910076       1.34114657
16
Frame=8 idx=004273 GeodesicLength=0.818251200266142 rxn_smarts="[C:1]([C:2]([C:3]([C:4]([C:5]#[C:6][H:16])([H:14])[H:15])([H:12])[H:13])([H:10])[H:11])([H:7])([H:8])[H:9]>>[C:1]([C:2]([C:3]([C:4](=[C:5]=[C:6]([H:14])[H:16])[H:15])([H:12])[H:13])([H:10])[H:11])([H:7])([H:8])[H:9]"
C       -2.44869235      -0.11161278       0.25645968
C       -1.11418792      -0.18078325      -0.47344611
C       -0.01385410       0.60426316       0.24074484
C        1.29626377       0.52937262      -0.49490776
C        2.45884039       0.08593654       0.09951086
C        3.03287619      -0.94603303       0.59271106
H       -2.37027469      -0.54352054       1.25699414
H       -3.22620675      -0.65438430      -0.28334715
H       -2.78669261       0.92144753       0.37026071
H       -0.79147501      -1.22143700      -0.57321228
H       -1.23584630       0.20623177      -1.49053745
H       -0.30983177       1.65417266       0.33034286
H        0.09770953       0.22118366       1.25971276
H        2.18011500      -0.75846484      -1.03542002
H        1.40273332       1.15022995      -1.38087280
H        3.82852331      -0.95660214       1.32500666
16
Frame=9 idx=004273 GeodesicLength=0.9179867155825717 rxn_smarts="[C:1]([C:2]([C:3]([C:4]([C:5]#[C:6][H:16])([H:14])[H:15])([H:12])[H:13])([H:10])[H:11])([H:7])([H:8])[H:9]>>[C:1]([C:2]([C:3]([C:4](=[C:5]=[C:6]([H:14])[H:16])[H:15])([H:12])[H:13])([H:10])[H:11])([H:7])([H:8])[H:9]"
C       -2.46166668      -0.09697440       0.25077753
C       -1.13002332      -0.17463031      -0.48369239
C       -0.01424318       0.57391948       0.24452284
C        1.29235811       0.49187828      -0.49948673
C        2.47083482       0.12586236       0.11852643
C        3.07510533      -0.89171113       0.59889394
H       -2.38966279      -0.55338732       1.24087564
H       -3.25079325      -0.61171694      -0.29955478
H       -2.77930056       0.93949401       0.38951894
H       -0.82803926      -1.21890810      -0.60798927
H       -1.24700395       0.23705395      -1.49166283
H       -0.29186769       1.62639801       0.35981726
H        0.09427487       0.16648506       1.25419284
H        2.18515451      -0.81710626      -0.99135953
H        1.38489644       1.10706243      -1.39157397
H        3.88997662      -0.90371911       1.30819408
16
Frame=10 idx=004273 GeodesicLength=1.017049406779781 rxn_smarts="[C:1]([C:2]([C:3]([C:4]([C:5]#[C:6][H:16])([H:14])[H:15])([H:12])[H:13])([H:10])[H:11])([H:7])([H:8])[H:9]>>[C:1]([C:2]([C:3]([C:4](=[C:5]=[C:6]([H:14])[H:16])[H:15])([H:12])[H:13])([H:10])[H:11])([H:7])([H:8])[H:9]"
C       -2.47405291      -0.08216172       0.24471931
C       -1.14486368      -0.16852689      -0.49339058
C       -0.01486226       0.54329280       0.24856096
C        1.28937228       0.45387303      -0.50187295
C        2.47982243       0.16610883       0.13732141
C        3.11661278      -0.83639287       0.60061338
H       -2.40960819      -0.56185898       1.22429061
H       -3.27373795      -0.56909048      -0.31561422
H       -2.77149658       0.95682679       0.40730926
H       -0.86386552      -1.21558060      -0.64165183
H       -1.25566917       0.26707479      -1.49201570
H       -0.27434906       1.59745320       0.38876429
H        0.08973854       0.11216560       1.24862728
H        2.18945005      -0.87624976      -0.94302910
H        1.36810554       1.06342795      -1.39982073
H        3.94940369      -0.85036169       1.28718863
16
Frame=11 idx=004273 GeodesicLength=1.1152530650051067 rxn_smarts="[C:1]([C:2]([C:3]([C:4]([C:5]#[C:6][H:16])([H:14])[H:15])([H:12])[H:13])([H:10])[H:11])([H:7])([H:8])[H:9]>>[C:1]([C:2]([C:3]([C:4](=[C:5]=[C:6]([H:14])[H:16])[H:15])([H:12])[H:13])([H:10])[H:11])([H:7])([H:8])[H:9]"
C       -2.48500372      -0.06787364       0.23905101
C       -1.15814637      -0.16264818      -0.50237391
C       -0.01528953       0.51331302       0.25230556
C        1.28756602       0.41642746      -0.50300652
C        2.48592438       0.20686442       0.15518685
C        3.15702747      -0.78077244       0.59494172
H       -2.42852225      -0.56931763       1.20818406
H       -3.29415234      -0.52793734      -0.33034524
H       -2.76306810       0.97269813       0.42420729
H       -0.89773615      -1.21155953      -0.67363470
H       -1.26195855       0.29565612      -1.49158855
H       -0.25745347       1.56828590       0.41607052
H        0.08494427       0.05991605       1.24279661
H        2.19338196      -0.93419730      -0.89289492
H        1.35255460       1.02086833      -1.40624414
H        3.99993180      -0.79972337       1.26734437
16
Frame=12 idx=004273 GeodesicLength=1.212876831601015 rxn_smarts="[C:1]([C:2]([C:3]([C:4]([C:5]#[C:6][H:16])([H:14])[H:15])([H:12])[H:13])([H:10])[H:11])([H:7])([H:8])[H:9]>>[C:1]([C:2]([C:3]([C:4](=[C:5]=[C:6]([H:14])[H:16])[H:15])([H:12])[H:13])([H:10])[H:11])([H:7])([H:8])[H:9]"
C       -2.49473210      -0.05406845       0.23340437
C       -1.16987543      -0.15691787      -0.51065275
C       -0.01561679       0.48404000       0.25614293
C        1.28690497       0.37981337      -0.50243049
C        2.48928220       0.24819224       0.17255763
C        3.19776807      -0.72402334       0.58040701
H       -2.44676289      -0.57589478       1.19220070
H       -3.31222586      -0.48810619      -0.34446255
H       -2.75422113       0.98726568       0.43996384
H       -0.92954901      -1.20681977      -0.70405559
H       -1.26577149       0.32292843      -1.49044714
H       -0.24139080       1.53903833       0.44229576
H        0.07973325       0.00964839       1.23711325
H        2.19553202      -0.99207053      -0.83929029
H        1.33805538       0.97895905      -1.41087711
H        4.04286961      -0.75198455       1.24813043
16
Frame=13 idx=004273 GeodesicLength=1.309988479618762 rxn_smarts="[C:1]([C:2]([C:3]([C:4]([C:5]#[C:6][H:16])([H:14])[H:15])([H:12])[H:13])([H:10])[H:11])([H:7])([H:8])[H:9]>>[C:1]([C:2]([C:3]([C:4](=[C:5]=[C:6]([H:14])[H:16])[H:15])([H:12])[H:13])([H:10])[H:11])([H:7])([H:8])[H:9]"
C       -2.50308801      -0.04099814       0.22789292
C       -1.17992257      -0.15144443      -0.51820383
C       -0.01577344       0.45590540       0.25997589
C        1.28746501       0.34441943      -0.50027914
C        2.48989416       0.29064159       0.18990668
C        3.23919241      -0.66503245       0.55519633
H       -2.46394842      -0.58177480       1.17655964
H       -3.32780624      -0.45014204      -0.35783690
H       -2.74506993       1.00034629       0.45462683
H       -0.95883909      -1.20152983      -0.73266375
H       -1.26722850       0.34861066      -1.48868842
H       -0.22638433       1.51026309       0.46703739
H        0.07422690      -0.03786453       1.23172618
H        2.19624355      -1.04944295      -0.78169872
H        1.32468038       0.93795500      -1.41393020
H        4.07635812      -0.70991229       1.23037911
16
Frame=14 idx=004273 GeodesicLength=1.4067808158865376 rxn_smarts="[C:1]([C:2]([C:3]([C:4]([C:5]#[C:6][H:16])([H:14])[H:15])([H:12])[H:13])([H:10])[H:11])([H:7])([H:8])[H:9]>>[C:1]([C:2]([C:3]([C:4](=[C:5]=[C:6]([H:14])[H:16])[H:15])([H:12])[H:13])([H:10])[H:11])([H:7])([H:8])[H:9]"
C       -2.51095927      -0.02844879       0.22110219
C       -1.18837719      -0.14626808      -0.52500252
C       -0.01654735       0.42916971       0.26492440
C        1.28914564       0.31022326      -0.49420109
C        2.48718279       0.33396831       0.21065037
C        3.28121587      -0.60271825       0.51984171
H       -2.48187220      -0.58658192       1.16005477
H       -3.34127144      -0.41393521      -0.37273663
H       -2.73669105       1.01234372       0.46634208
H       -0.98543572      -1.19590259      -0.75894548
H       -1.26554561       0.37235020      -1.48659769
H       -0.21344971       1.48243335       0.49088525
H        0.06669611      -0.08200751       1.22811997
H        2.19422062      -1.10771009      -0.71427845
H        1.31311535       0.89712606      -1.41347132
H        4.10857316      -0.67404217       1.20331244
16
Frame=15 idx=004273 GeodesicLength=1.5030178284534987 rxn_smarts="[C:1]([C:2]([C:3]([C:4]([C:5]#[C:6][H:16])([H:14])[H:15])([H:12])[H:13])([H:10])[H:11])([H:7])([H:8])[H:9]>>[C:1]([C:2]([C:3]([C:4](=[C:5]=[C:6]([H:14])[H:16])[H:15])([H:12])[H:13])([H:10])[H:11])([H:7])([H:8])[H:9]"
C       -2.51867983      -0.01632740       0.21225734
C       -1.19513742      -0.14171112      -0.53099942
C       -0.01833427       0.40409993       0.27160066
C        1.29200385       0.27712390      -0.48276049
C        2.48069954       0.37762535       0.23756536
C        3.32100010      -0.53728184       0.47541965
H       -2.50129604      -0.58966597       1.14232684
H       -3.35260971      -0.37991886      -0.39027382
H       -2.72975234       1.02360747       0.47362505
H       -1.00890732      -1.19051115      -0.78214735
H       -1.26016206       0.39337986      -1.48446360
H       -0.20325761       1.45605730       0.51389714
H        0.05617390      -0.12204720       1.22730802
H        2.19082435      -1.16603213      -0.63448688
H        1.30413995       0.85691670      -1.40772202
H        4.14329491      -0.64531484       1.15885353
16
Frame=16 idx=004273 GeodesicLength=1.5987454044438119 rxn_smarts="[C:1]([C:2]([C:3]([C:4]([C:5]#[C:6][H:16])([H:14])[H:15])([H:12])[H:13])([H:10])[H:11])([H:7])([H:8])[H:9]>>[C:1]([C:2]([C:3]([C:4](=[C:5]=[C:6]([H:14])[H:16])[H:15])([H:12])[H:13])([H:10])[H:11])([H:7])([H:8])[H:9]"
C       -2.52693029      -0.00442032       0.19961597
C       -1.19995442      -0.13774514      -0.53617448
C       -0.02186194       0.38096835       0.28151110
C        1.29598733       0.24523212      -0.46304896
C        2.47056168       0.41876991       0.27432485
C        3.35361107      -0.47283000       0.42521499
H       -2.52391404      -0.59060998       1.12183206
H       -3.36175619      -0.34815276      -0.41324671
H       -2.72532197       1.03458650       0.47421259
H       -1.02866870      -1.18554528      -0.80188024
H       -1.24981129       0.41144516      -1.48253553
H       -0.19665442       1.43162284       0.53727208
H        0.04092139      -0.15754022       1.23104088
H        2.18419183      -1.22541796      -0.53679328
H        1.29896785       0.81806383      -1.39342443
H        4.19063211      -0.61842707       1.08207911
