15
Frame=0 idx=011739 GeodesicLength=0.0 rxn_smarts="[C:1]([C@:2]12[C:3]([H:11])([H:12])[O:4][C@@:5]1([H:13])[C@:6]2([O:7][H:15])[H:14])([H:8])([H:9])[H:10]>>[C:1]([C@@:2]1([H:13])[C:3]([H:11])([H:12])[O+:4]=[C-:5][C@:6]1([O:7][H:15])[H:14])([H:8])([H:9])[H:10]"
C       -1.32835598       1.17599650      -0.32740216
C       -0.14138685       0.31521762      -0.01505983
C        0.12683954      -0.36657582       1.31477484
O        1.52253747      -0.58587795       1.09999535
C        1.70589641       0.05980700      -0.15066780
C        0.58594278      -0.53705898      -1.00267060
O        0.40319587      -1.91459222      -0.99137169
H       -1.49690720       1.93856385       0.43468346
H       -1.21691859       1.66800296      -1.29374358
H       -2.21702111       0.54074930      -0.38053253
H       -0.45081660      -1.28344693       1.47419554
H        0.00944323       0.29441471       2.17682062
H        0.90320892       1.12969080       0.04297790
H        0.56468983      -0.14342533      -2.01664199
H        1.02965231      -2.29146555      -0.36535758
15
Frame=1 idx=011739 GeodesicLength=0.05357992444154596 rxn_smarts="[C:1]([C@:2]12[C:3]([H:11])([H:12])[O:4][C@@:5]1([H:13])[C@:6]2([O:7][H:15])[H:14])([H:8])([H:9])[H:10]>>[C:1]([C@@:2]1([H:13])[C:3]([H:11])([H:12])[O+:4]=[C-:5][C@:6]1([O:7][H:15])[H:14])([H:8])([H:9])[H:10]"
C       -1.33087461       1.16882974      -0.32764156
C       -0.13358722       0.32375455      -0.01218876
C        0.12649318      -0.35925852       1.31870226
O        1.52216959      -0.59170251       1.10473809
C        1.70915013       0.04631978      -0.14440654
C        0.58738877      -0.53404316      -1.00181268
O        0.38728858      -1.90955781      -0.99452381
H       -1.50891347       1.92972709       0.43404458
H       -1.22265108       1.66314646      -1.29324408
H       -2.21264878       0.52447320      -0.38323587
H       -0.45546111      -1.27283616       1.47936960
H        0.01393603       0.30232291       2.18073801
H        0.92029130       1.14385588       0.03824027
H        0.57530448      -0.13750745      -2.01490490
H        1.02211420      -2.29752400      -0.38387459
15
Frame=2 idx=011739 GeodesicLength=0.10715953711715953 rxn_smarts="[C:1]([C@:2]12[C:3]([H:11])([H:12])[O:4][C@@:5]1([H:13])[C@:6]2([O:7][H:15])[H:14])([H:8])([H:9])[H:10]>>[C:1]([C@@:2]1([H:13])[C:3]([H:11])([H:12])[O+:4]=[C-:5][C@:6]1([O:7][H:15])[H:14])([H:8])([H:9])[H:10]"
C       -1.33329659       1.16158528      -0.32783218
C       -0.12586536       0.33228444      -0.00930806
C        0.12606261      -0.35189415       1.32265242
O        1.52161892      -0.59745623       1.10957166
C        1.71207320       0.03287576      -0.13807951
C        0.58878466      -0.53105064      -1.00088518
O        0.37157277      -1.90435620      -0.99759822
H       -1.52070355       1.92078322       0.43339049
H       -1.22834820       1.65813692      -1.29272489
H       -2.20812203       0.50824460      -0.38578817
H       -0.46013027      -1.26218225       1.48457543
H        0.01831253       0.31025137       2.18466803
H        0.93754484       1.15794592       0.03325409
H        0.58590426      -0.13177675      -2.01307136
H        1.01459220      -2.30339129      -0.40282455
15
Frame=3 idx=011739 GeodesicLength=0.16073935649936005 rxn_smarts="[C:1]([C@:2]12[C:3]([H:11])([H:12])[O:4][C@@:5]1([H:13])[C@:6]2([O:7][H:15])[H:14])([H:8])([H:9])[H:10]>>[C:1]([C@@:2]1([H:13])[C:3]([H:11])([H:12])[O+:4]=[C-:5][C@:6]1([O:7][H:15])[H:14])([H:8])([H:9])[H:10]"
C       -1.33562176       1.15426727      -0.32797264
C       -0.11822584       0.34080115      -0.00641808
C        0.12554602      -0.34448451       1.32662624
O        1.52088534      -0.60313514       1.11449837
C        1.71466495       0.01947613      -0.13168569
C        0.59012947      -0.52808495      -0.99988746
O        0.35606096      -1.89900160      -1.00059258
H       -1.53227364       1.91174119       0.43272279
H       -1.23400698       1.65297566      -1.29218576
H       -2.20344801       0.49207259      -0.38818608
H       -0.46482380      -1.25148895       1.48981549
H        0.02256849       0.31819971       2.18861083
H        0.95496555       1.17195810       0.02801380
H        0.59648443      -0.12623711      -2.01114117
H        1.00709481      -2.30905952      -0.42221806
15
Frame=4 idx=011739 GeodesicLength=0.21431962621518807 rxn_smarts="[C:1]([C@:2]12[C:3]([H:11])([H:12])[O:4][C@@:5]1([H:13])[C@:6]2([O:7][H:15])[H:14])([H:8])([H:9])[H:10]>>[C:1]([C@@:2]1([H:13])[C:3]([H:11])([H:12])[O+:4]=[C-:5][C@:6]1([O:7][H:15])[H:14])([H:8])([H:9])[H:10]"
C       -1.33785006       1.14688021      -0.32806158
C       -0.11067342       0.34929809      -0.00351909
C        0.12494145      -0.33703175       1.33062469
O        1.51996892      -0.60873511       1.11952073
C        1.71692466       0.00612205      -0.12522394
C        0.59142220      -0.52514988      -0.99881885
O        0.34076588      -1.89350907      -1.00350420
H       -1.54361913       1.90261115       0.43204271
H       -1.23962450       1.64766386      -1.29162673
H       -2.19863451       0.47596682      -0.39042546
H       -0.46954151      -1.24076048       1.49509217
H        0.02669925       0.32616719       2.19256662
H        0.97254898       1.18588965       0.02251352
H        0.60704017      -0.12089256      -2.00911414
H        0.99963163      -2.31452018      -0.44206644
15
Frame=5 idx=011739 GeodesicLength=0.26790129509947186 rxn_smarts="[C:1]([C@:2]12[C:3]([H:11])([H:12])[O:4][C@@:5]1([H:13])[C@:6]2([O:7][H:15])[H:14])([H:8])([H:9])[H:10]>>[C:1]([C@@:2]1([H:13])[C:3]([H:11])([H:12])[O+:4]=[C-:5][C@:6]1([O:7][H:15])[H:14])([H:8])([H:9])[H:10]"
C       -1.33998177       1.13942843      -0.32809767
C       -0.10321249       0.35776886      -0.00061120
C        0.12424736      -0.32953776       1.33464900
O        1.51887030      -0.61425245       1.12464129
C        1.71885218      -0.00718558      -0.11869287
C        0.59266220      -0.52224913      -0.99767877
O        0.32569935      -1.88789404      -1.00633071
H       -1.55473692       1.89340255       0.43135178
H       -1.24519787       1.64220311      -1.29104760
H       -2.19368928       0.45993580      -0.39250330
H       -0.47428326      -1.23000060       1.50040821
H        0.03070104       0.33415381       2.19653570
H        0.99029119       1.19973810       0.01674716
H        0.61756746      -0.11574644      -2.00698996
H        0.99221049      -2.31976464      -0.46238106
15
Frame=6 idx=011739 GeodesicLength=0.3214955126539282 rxn_smarts="[C:1]([C@:2]12[C:3]([H:11])([H:12])[O:4][C@@:5]1([H:13])[C@:6]2([O:7][H:15])[H:14])([H:8])([H:9])[H:10]>>[C:1]([C@@:2]1([H:13])[C:3]([H:11])([H:12])[O+:4]=[C-:5][C@:6]1([O:7][H:15])[H:14])([H:8])([H:9])[H:10]"
C       -1.34202078       1.13191884      -0.32808055
C       -0.09584752       0.36620829       0.00230577
C        0.12346413      -0.32200395       1.33870209
O        1.51759492      -0.61968521       1.12986546
C        1.72045107      -0.02044745      -0.11208893
C        0.59384971      -0.51938830      -0.99646803
O        0.31087352      -1.88217685      -1.00907404
H       -1.56562992       1.88412795       0.43065306
H       -1.25072807       1.63659950      -1.29044898
H       -2.18862374       0.44398856      -0.39442133
H       -0.47904789      -1.21921366       1.50576642
H        0.03457247       0.34216234       2.20052188
H        1.00819001       1.21350315       0.01071107
H        0.62806262      -0.11080317      -2.00477024
H        0.98483946      -2.32479003      -0.48317366
15
Frame=7 idx=011739 GeodesicLength=0.3750669016056317 rxn_smarts="[C:1]([C@:2]12[C:3]([H:11])([H:12])[O:4][C@@:5]1([H:13])[C@:6]2([O:7][H:15])[H:14])([H:8])([H:9])[H:10]>>[C:1]([C@@:2]1([H:13])[C:3]([H:11])([H:12])[O+:4]=[C-:5][C@:6]1([O:7][H:15])[H:14])([H:8])([H:9])[H:10]"
C       -1.34395682       1.12434737      -0.32800628
C       -0.08858073       0.37460517       0.00523115
C        0.12258564      -0.31443382       1.34278091
O        1.51612947      -0.62502470       1.13518739
C        1.72170952      -0.03365963      -0.10541786
C        0.59498166      -0.51656533      -0.99518199
O        0.29629813      -1.87635846      -1.01171815
H       -1.57628151       1.87478413       0.42994522
H       -1.25619808       1.63084490      -1.28982645
H       -2.18343363       0.42812840      -0.39616670
H       -0.48383774      -1.20840037       1.51117102
H        0.03830461       0.35018412       2.20451524
H        1.02623690       1.22717474       0.00438765
H        0.63852208      -0.10606152      -2.00244890
H        0.97752049      -2.32956499      -0.50445222
15
Frame=8 idx=011739 GeodesicLength=0.42866976741613116 rxn_smarts="[C:1]([C@:2]12[C:3]([H:11])([H:12])[O:4][C@@:5]1([H:13])[C@:6]2([O:7][H:15])[H:14])([H:8])([H:9])[H:10]>>[C:1]([C@@:2]1([H:13])[C:3]([H:11])([H:12])[O+:4]=[C-:5][C@:6]1([O:7][H:15])[H:14])([H:8])([H:9])[H:10]"
C       -1.34580433       1.11671820      -0.32787722
C       -0.08140782       0.38296783       0.00816893
C        0.12162183      -0.30681756       1.34689754
O        1.51449274      -0.63028432       1.14062138
C        1.72264827      -0.04683382      -0.09866602
C        0.59606506      -0.51378507      -0.99382456
O        0.28196502      -1.87046049      -1.01428014
H       -1.58673592       1.86536572       0.42924300
H       -1.26162289       1.62495593      -1.28917854
H       -2.17812483       0.41234031      -0.39777386
H       -0.48865537      -1.19754843       1.51663302
H        0.04191732       0.35824426       2.20853130
H        1.04444991       1.24075925      -0.00222294
H        0.64895787      -0.10151961      -2.00003161
H        0.97023313      -2.33410219      -0.52624028
15
Frame=9 idx=011739 GeodesicLength=0.48229717324439564 rxn_smarts="[C:1]([C@:2]12[C:3]([H:11])([H:12])[O:4][C@@:5]1([H:13])[C@:6]2([O:7][H:15])[H:14])([H:8])([H:9])[H:10]>>[C:1]([C@@:2]1([H:13])[C:3]([H:11])([H:12])[O+:4]=[C-:5][C@:6]1([O:7][H:15])[H:14])([H:8])([H:9])[H:10]"
C       -1.34755678       1.10902104      -0.32769110
C       -0.07432011       0.39130080       0.01111970
C        0.12057533      -0.29914396       1.35105048
O        1.51267460      -0.63546749       1.14616222
C        1.72326444      -0.05997643      -0.09183562
C        0.59709787      -0.51104250      -0.99239112
O        0.26785349      -1.86447864      -1.01674929
H       -1.59702093       1.85583611       0.42855822
H       -1.26698952       1.61893630      -1.28849303
H       -2.17267634       0.39659639      -0.39926212
H       -0.49350811      -1.18663689       1.52216120
H        0.04542329       0.36635795       2.21255974
H        1.06284608       1.25424991      -0.00912828
H        0.65938065      -0.09716879      -1.99750546
H        0.96295605      -2.33838380      -0.54855554
15
Frame=10 idx=011739 GeodesicLength=0.5359377383634484 rxn_smarts="[C:1]([C@:2]12[C:3]([H:11])([H:12])[O:4][C@@:5]1([H:13])[C@:6]2([O:7][H:15])[H:14])([H:8])([H:9])[H:10]>>[C:1]([C@@:2]1([H:13])[C:3]([H:11])([H:12])[O+:4]=[C-:5][C@:6]1([O:7][H:15])[H:14])([H:8])([H:9])[H:10]"
C       -1.34921369       1.10126581      -0.32744573
C       -0.06733260       0.39958223       0.01408246
C        0.11943796      -0.29142902       1.35523876
O        1.51067748      -0.64055915       1.15181475
C        1.72355254      -0.07307554      -0.08492143
C        0.59808040      -0.50834617      -0.99087867
O        0.25400488      -1.85844068      -1.01911948
H       -1.60709047       1.84623818       0.42787826
H       -1.27229344       1.61277725      -1.28777474
H       -2.16711520       0.38093207      -0.40060015
H       -0.49839324      -1.17569124       1.52775032
H        0.04880188       0.37450512       2.21659983
H        1.08139814       1.26764687      -0.01634709
H        0.66977328      -0.09301937      -1.99487181
H        0.95571208      -2.34238637      -0.57140528
15
Frame=11 idx=011739 GeodesicLength=0.5896106145971775 rxn_smarts="[C:1]([C@:2]12[C:3]([H:11])([H:12])[O:4][C@@:5]1([H:13])[C@:6]2([O:7][H:15])[H:14])([H:8])([H:9])[H:10]>>[C:1]([C@@:2]1([H:13])[C:3]([H:11])([H:12])[O+:4]=[C-:5][C@:6]1([O:7][H:15])[H:14])([H:8])([H:9])[H:10]"
C       -1.35078134       1.09345563      -0.32714241
C       -0.06044098       0.40781787       0.01706108
C        0.11821372      -0.28366322       1.35947318
O        1.50850180      -0.64557284       1.15758801
C        1.72351814      -0.08614619      -0.07791898
C        0.59901352      -0.50569937      -0.98929059
O        0.24040943      -1.85236008      -1.02139425
H       -1.61697952       1.83656449       0.42721173
H       -1.27754144       1.60648750      -1.28702741
H       -2.16143956       0.36533829      -0.40180257
H       -0.50331531      -1.16469464       1.53341586
H        0.05206561       0.38270524       2.22066354
H        1.10012266       1.28094375      -0.02387878
H        0.68014526      -0.08907308      -1.99213446
H        0.94850802      -2.34610335      -0.59482396
15
Frame=12 idx=011739 GeodesicLength=0.6433205291448271 rxn_smarts="[C:1]([C@:2]12[C:3]([H:11])([H:12])[O:4][C@@:5]1([H:13])[C@:6]2([O:7][H:15])[H:14])([H:8])([H:9])[H:10]>>[C:1]([C@@:2]1([H:13])[C:3]([H:11])([H:12])[O+:4]=[C-:5][C@:6]1([O:7][H:15])[H:14])([H:8])([H:9])[H:10]"
C       -1.35225887       1.08557700      -0.32677991
C       -0.05363657       0.41601112       0.02005571
C        0.11690632      -0.27583730       1.36375350
O        1.50614681      -0.65051500       1.16348114
C        1.72316915      -0.09919525      -0.07082325
C        0.59990562      -0.50309292      -0.98762323
O        0.22705888      -1.84622566      -1.02357993
H       -1.62671080       1.82678581       0.42656376
H       -1.28273617       1.60005529      -1.28624505
H       -2.15563864       0.34978754      -0.40287945
H       -0.50828260      -1.15362799       1.53916551
H        0.05523153       0.39097360       2.22474210
H        1.11903656       1.29413498      -0.03173135
H        0.69051798      -0.08531104      -1.98928135
H        0.94129081      -2.34952019      -0.61881821
15
Frame=13 idx=011739 GeodesicLength=0.6970649630170827 rxn_smarts="[C:1]([C@:2]12[C:3]([H:11])([H:12])[O:4][C@@:5]1([H:13])[C@:6]2([O:7][H:15])[H:14])([H:8])([H:9])[H:10]>>[C:1]([C@@:2]1([H:13])[C:3]([H:11])([H:12])[O+:4]=[C-:5][C@:6]1([O:7][H:15])[H:14])([H:8])([H:9])[H:10]"
C       -1.35364775       1.07764403      -0.32635793
C       -0.04693232       0.42414604       0.02306639
C        0.11551092      -0.26796457       1.36808255
O        1.50361567      -0.65537483       1.16950238
C        1.72249936      -0.11221613      -0.06363123
C        0.60075375      -0.50053810      -0.98587845
O        0.21398505      -1.84007296      -1.02567307
H       -1.63625392       1.81694241       0.42592654
H       -1.28787617       1.59348237      -1.28543689
H       -2.14973513       0.33431124      -0.40380724
H       -0.51328732      -1.14251590       1.54499786
H        0.05828062       0.39929565       2.22884172
H        1.13812071       1.30722310      -0.03991589
H        0.70087628      -0.08174678      -1.98631907
H        0.93409025      -2.35261555      -0.64339766
15
Frame=14 idx=011739 GeodesicLength=0.75082735336803 rxn_smarts="[C:1]([C@:2]12[C:3]([H:11])([H:12])[O:4][C@@:5]1([H:13])[C@:6]2([O:7][H:15])[H:14])([H:8])([H:9])[H:10]>>[C:1]([C@@:2]1([H:13])[C:3]([H:11])([H:12])[O+:4]=[C-:5][C@:6]1([O:7][H:15])[H:14])([H:8])([H:9])[H:10]"
C       -1.35494573       1.06966352      -0.32587361
C       -0.04033843       0.43220637       0.02609155
C        0.11402302      -0.26005628       1.37245452
O        1.50091060      -0.66013469       1.17565011
C        1.72150307      -0.12519988      -0.05634530
C        0.60155633      -0.49804130      -0.98405459
O        0.20121470      -1.83392535      -1.02766867
H       -1.64557951       1.80706086       0.42529458
H       -1.29295303       1.58676518      -1.28460172
H       -2.14374589       0.31893119      -0.40456748
H       -0.51832234      -1.13137916       1.55090290
H        0.06119559       0.40765682       2.23295565
H        1.15735854       1.32020786      -0.04844096
H        0.71120814      -0.07838595      -1.98324293
H        0.92691494      -2.35536920      -0.66855404
15
Frame=15 idx=011739 GeodesicLength=0.8046148032841309 rxn_smarts="[C:1]([C@:2]12[C:3]([H:11])([H:12])[O:4][C@@:5]1([H:13])[C@:6]2([O:7][H:15])[H:14])([H:8])([H:9])[H:10]>>[C:1]([C@@:2]1([H:13])[C:3]([H:11])([H:12])[O+:4]=[C-:5][C@:6]1([O:7][H:15])[H:14])([H:8])([H:9])[H:10]"
C       -1.35615757       1.06163276      -0.32532788
C       -0.03384848       0.44019557       0.02913389
C        0.11244719      -0.25210514       1.37687804
O        1.49803397      -0.66480510       1.18193280
C        1.72018819      -0.13815916      -0.04895907
C        0.60231850      -0.49560060      -0.98215208
O        0.18874058      -1.82778749      -1.02957133
H       -1.65471475       1.79712801       0.42467347
H       -1.29797150       1.57990328      -1.28374256
H       -2.13766779       0.30363317      -0.40517334
H       -0.52339306      -1.12020185       1.55689501
H        0.06398903       0.41606943       2.23709182
H        1.17676343       1.33308143      -0.05731626
H        0.72152504      -0.07522182      -1.98005303
H        0.91974721      -2.35776250      -0.69430947
15
Frame=16 idx=011739 GeodesicLength=0.8584215959618587 rxn_smarts="[C:1]([C@:2]12[C:3]([H:11])([H:12])[O:4][C@@:5]1([H:13])[C@:6]2([O:7][H:15])[H:14])([H:8])([H:9])[H:10]>>[C:1]([C@@:2]1([H:13])[C:3]([H:11])([H:12])[O+:4]=[C-:5][C@:6]1([O:7][H:15])[H:14])([H:8])([H:9])[H:10]"
C       -1.35728238       1.05355695      -0.32471886
C       -0.02747118       0.44809930       0.03219248
C        0.11077993      -0.24412187       1.38134925
O        1.49498986      -0.66937174       1.18834954
C        1.71855088      -0.15108674      -0.04147440
C        0.60304000      -0.49322254      -0.98017048
O        0.17658616      -1.82168325      -1.03137727
H       -1.66363791       1.78716615       0.42405873
H       -1.30292422       1.57289736      -1.28285774
H       -2.13151576       0.28843243      -0.40560938
H       -0.52849380      -1.10900352       1.56296708
H        0.06664669       0.42452297       2.24124447
H        1.19632368       1.34584775      -0.06655167
H        0.73182023      -0.07225765      -1.97674580
H        0.91258781      -2.35977562      -0.72065594
