11
Frame=0 idx=009189 GeodesicLength=0.0 rxn_smarts="[O:1]=[c:2]1[c:3]([H:8])[c:4]([H:9])[n:5]([H:10])[c:6]([H:11])[n:7]1>>[O:1]1[C@:2]23[C@@:3]1([H:8])[C@@:4]2([H:9])[N:5]([H:10])[C:6]([H:11])=[N:7]3"
O        2.15543831      -0.22927921       0.66184184
C        0.95468224      -0.58873928       0.29105995
C        1.20732698       0.64386182      -0.35169462
C        0.00713512       0.96073919       0.37288586
N       -1.14089469       0.24006743      -0.06398135
C       -1.02387596      -1.09374781      -0.16502336
N        0.13170120      -1.62840791       0.15008810
H        1.76928174       0.89943264      -1.23634622
H       -0.17083882       1.78299665       1.05745454
H       -2.02049635       0.69795580      -0.22606650
H       -1.86945982      -1.68487927      -0.49021820
11
Frame=1 idx=009189 GeodesicLength=0.037882994761462466 rxn_smarts="[O:1]=[c:2]1[c:3]([H:8])[c:4]([H:9])[n:5]([H:10])[c:6]([H:11])[n:7]1>>[O:1]1[C@:2]23[C@@:3]1([H:8])[C@@:4]2([H:9])[N:5]([H:10])[C:6]([H:11])=[N:7]3"
O        2.16608386      -0.24582178       0.66011274
C        0.95897261      -0.58809498       0.30235865
C        1.20862234       0.64742931      -0.34310237
C        0.00379971       0.95982350       0.37250487
N       -1.14199488       0.24190844      -0.06926871
C       -1.02073674      -1.09269752      -0.17328665
N        0.13469196      -1.62721754       0.13524408
H        1.76442874       0.90258780      -1.23120006
H       -0.17660666       1.79061522       1.04607660
H       -2.02393065       0.69768184      -0.22371984
H       -1.87333028      -1.68621430      -0.47571931
11
Frame=2 idx=009189 GeodesicLength=0.07575106417081469 rxn_smarts="[O:1]=[c:2]1[c:3]([H:8])[c:4]([H:9])[n:5]([H:10])[c:6]([H:11])[n:7]1>>[O:1]1[C@:2]23[C@@:3]1([H:8])[C@@:4]2([H:9])[N:5]([H:10])[C:6]([H:11])=[N:7]3"
O        2.17657095      -0.26294341       0.65784330
C        0.96310985      -0.58744888       0.31376415
C        1.20989023       0.65105429      -0.33429235
C        0.00037860       0.95893337       0.37212411
N       -1.14310287       0.24383561      -0.07484150
C       -1.01756525      -1.09156474      -0.18178625
N        0.13776625      -1.62565922       0.12043123
H        1.75957614       0.90587826      -1.22575168
H       -0.18248358       1.79805375       1.03466305
H       -2.02736107       0.69738877      -0.22160001
H       -1.87677925      -1.68752781      -0.46055405
11
Frame=3 idx=009189 GeodesicLength=0.11357306100611919 rxn_smarts="[O:1]=[c:2]1[c:3]([H:8])[c:4]([H:9])[n:5]([H:10])[c:6]([H:11])[n:7]1>>[O:1]1[C@:2]23[C@@:3]1([H:8])[C@@:4]2([H:9])[N:5]([H:10])[C:6]([H:11])=[N:7]3"
O        2.18697840      -0.28044072       0.65477025
C        0.96707699      -0.58672356       0.32567071
C        1.21088334       0.65448289      -0.32557685
C       -0.00307443       0.95820703       0.37177458
N       -1.14436912       0.24581576      -0.07985227
C       -1.01459852      -1.09043445      -0.18903911
N        0.14075690      -1.62372963       0.10698941
H        1.75414265       0.90858697      -1.22064985
H       -0.18811303       1.80574167       1.02295743
H       -2.03095377       0.69700743      -0.21884260
H       -1.87872940      -1.68851341      -0.44820169
11
Frame=4 idx=009189 GeodesicLength=0.15138276546892598 rxn_smarts="[O:1]=[c:2]1[c:3]([H:8])[c:4]([H:9])[n:5]([H:10])[c:6]([H:11])[n:7]1>>[O:1]1[C@:2]23[C@@:3]1([H:8])[C@@:4]2([H:9])[N:5]([H:10])[C:6]([H:11])=[N:7]3"
O        2.19721775      -0.29841567       0.65102972
C        0.97093622      -0.58595385       0.33779530
C        1.21176940       0.65789886      -0.31678194
C       -0.00657664       0.95756059       0.37143714
N       -1.14568757       0.24786545      -0.08482588
C       -1.01166331      -1.08925941      -0.19594762
N        0.14375512      -1.62146064       0.09422188
H        1.74852197       0.91120198      -1.21548854
H       -0.19370143       1.81340294       1.01112654
H       -2.03459206       0.69657522      -0.21597537
H       -1.87997944      -1.68941546      -0.43659122
11
Frame=5 idx=009189 GeodesicLength=0.1891860395375286 rxn_smarts="[O:1]=[c:2]1[c:3]([H:8])[c:4]([H:9])[n:5]([H:10])[c:6]([H:11])[n:7]1>>[O:1]1[C@:2]23[C@@:3]1([H:8])[C@@:4]2([H:9])[N:5]([H:10])[C:6]([H:11])=[N:7]3"
O        2.20724540      -0.31687999       0.64662280
C        0.97470925      -0.58514199       0.35009594
C        1.21257050       0.66132662      -0.30788972
C       -0.01012716       0.95697868       0.37110986
N       -1.14703540       0.24998306      -0.08983499
C       -1.00872536      -1.08803722      -0.20263222
N        0.14676387      -1.61887395       0.08209468
H        1.74278048       0.91379470      -1.21020914
H       -0.19927910       1.82102038       0.99915910
H       -2.03826446       0.69608260      -0.21300846
H       -1.88063802      -1.69025288      -0.42550786
11
Frame=6 idx=009189 GeodesicLength=0.22699431947276666 rxn_smarts="[O:1]=[c:2]1[c:3]([H:8])[c:4]([H:9])[n:5]([H:10])[c:6]([H:11])[n:7]1>>[O:1]1[C@:2]23[C@@:3]1([H:8])[C@@:4]2([H:9])[N:5]([H:10])[C:6]([H:11])=[N:7]3"
O        2.21701218      -0.33583659       0.64157603
C        0.97842065      -0.58430087       0.36251079
C        1.21331315       0.66479489      -0.29887743
C       -0.01372581       0.95644021       0.37079070
N       -1.14839189       0.25216949      -0.09496951
C       -1.00575784      -1.08676268      -0.20924038
N        0.14978585      -1.61599321       0.07053191
H        1.73699723       0.91644505      -1.20474288
H       -0.20487685       1.82856955       0.98704669
H       -2.04196049       0.69551991      -0.20996230
H       -1.88081620      -1.69104574      -0.41466362
11
Frame=7 idx=009189 GeodesicLength=0.2648003443674263 rxn_smarts="[O:1]=[c:2]1[c:3]([H:8])[c:4]([H:9])[n:5]([H:10])[c:6]([H:11])[n:7]1>>[O:1]1[C@:2]23[C@@:3]1([H:8])[C@@:4]2([H:9])[N:5]([H:10])[C:6]([H:11])=[N:7]3"
O        2.22646722      -0.35527389       0.63588103
C        0.98208689      -0.58343337       0.37501570
C        1.21399078       0.66830984      -0.28974457
C       -0.01736842       0.95592856       0.37049706
N       -1.14974573       0.25441720      -0.10021820
C       -1.00274858      -1.08543575      -0.21578498
N        0.15281828      -1.61283798       0.05953553
H        1.73117900       0.91918198      -1.19907639
H       -0.21049488       1.83604207       0.97478303
H       -2.04564908       0.69488717      -0.20687804
H       -1.88053549      -1.69178582      -0.40401018
11
Frame=8 idx=009189 GeodesicLength=0.30262474870717687 rxn_smarts="[O:1]=[c:2]1[c:3]([H:8])[c:4]([H:9])[n:5]([H:10])[c:6]([H:11])[n:7]1>>[O:1]1[C@:2]23[C@@:3]1([H:8])[C@@:4]2([H:9])[N:5]([H:10])[C:6]([H:11])=[N:7]3"
O        2.23554973      -0.37518582       0.62960446
C        0.98572875      -0.58256961       0.38751472
C        1.21463790       0.67190433      -0.28046275
C       -0.02105907       0.95541494       0.37021555
N       -1.15107407       0.25672845      -0.10571735
C       -0.99968586      -1.08405805      -0.22244080
N        0.15587286      -1.60943764       0.04891940
H        1.72545437       0.92212481      -1.19310511
H       -0.21617691       1.84339144       0.96236860
H       -2.04931896       0.69417562      -0.20380817
H       -1.87992873      -1.69248847      -0.39308854
11
Frame=9 idx=009189 GeodesicLength=0.3404425074634549 rxn_smarts="[O:1]=[c:2]1[c:3]([H:8])[c:4]([H:9])[n:5]([H:10])[c:6]([H:11])[n:7]1>>[O:1]1[C@:2]23[C@@:3]1([H:8])[C@@:4]2([H:9])[N:5]([H:10])[C:6]([H:11])=[N:7]3"
O        2.24427796      -0.39540996       0.62267084
C        0.98939368      -0.58165105       0.40012575
C        1.21515792       0.67550841      -0.27119057
C       -0.02475858       0.95495922       0.36997734
N       -1.15243327       0.25907689      -0.11106019
C       -0.99661030      -1.08265621      -0.22870770
N        0.15887810      -1.60582500       0.03928070
H        1.71957415       0.92499139      -1.18713246
H       -0.22175163       1.85070957       0.94982494
H       -2.05297880       0.69339319      -0.20058626
H       -1.87874921      -1.69309646      -0.38320238
11
Frame=10 idx=009189 GeodesicLength=0.378259276414575 rxn_smarts="[O:1]=[c:2]1[c:3]([H:8])[c:4]([H:9])[n:5]([H:10])[c:6]([H:11])[n:7]1>>[O:1]1[C@:2]23[C@@:3]1([H:8])[C@@:4]2([H:9])[N:5]([H:10])[C:6]([H:11])=[N:7]3"
O        2.25259018      -0.41592661       0.61516745
C        0.99310649      -0.58070225       0.41274619
C        1.21558530       0.67915755      -0.26190462
C       -0.02846982       0.95452469       0.36977352
N       -1.15379525       0.26146204      -0.11638221
C       -0.99350717      -1.08122642      -0.23475585
N        0.16184930      -1.60202620       0.03040633
H        1.71365855       0.92790236      -1.18106539
H       -0.22726516       1.85792269       0.93717687
H       -2.05659989       0.69253988      -0.19730489
H       -1.87715254      -1.69362773      -0.37385740
11
Frame=11 idx=009189 GeodesicLength=0.41609051140389347 rxn_smarts="[O:1]=[c:2]1[c:3]([H:8])[c:4]([H:9])[n:5]([H:10])[c:6]([H:11])[n:7]1>>[O:1]1[C@:2]23[C@@:3]1([H:8])[C@@:4]2([H:9])[N:5]([H:10])[C:6]([H:11])=[N:7]3"
O        2.26046322      -0.43669385       0.60712799
C        0.99689635      -0.57973214       0.42534718
C        1.21591779       0.68285599      -0.25261565
C       -0.03218342       0.95410061       0.36962466
N       -1.15515842       0.26387530      -0.12165399
C       -0.99037580      -1.07977799      -0.24057975
N        0.16478590      -1.59807558       0.02227355
H        1.70771887       0.93087351      -1.17490521
H       -0.23270740       1.86504013       0.92441328
H       -2.06017114       0.69162419      -0.19398787
H       -1.87518595      -1.69409017      -0.36504417
11
Frame=12 idx=009189 GeodesicLength=0.45394171061445143 rxn_smarts="[O:1]=[c:2]1[c:3]([H:8])[c:4]([H:9])[n:5]([H:10])[c:6]([H:11])[n:7]1>>[O:1]1[C@:2]23[C@@:3]1([H:8])[C@@:4]2([H:9])[N:5]([H:10])[C:6]([H:11])=[N:7]3"
O        2.26785526      -0.45767063       0.59863494
C        1.00078146      -0.57875899       0.43786994
C        1.21616797       0.68661314      -0.24332304
C       -0.03589670       0.95366804       0.36952785
N       -1.15651206       0.26631424      -0.12691978
C       -0.98721758      -1.07831325      -0.24623608
N        0.16769426      -1.59399613       0.01475786
H        1.70181892       0.93394619      -1.16861668
H       -0.23808795       1.87204653       0.91151575
H       -2.06368582       0.69063954      -0.19063025
H       -1.87291776      -1.69448867      -0.35658050
11
Frame=13 idx=009189 GeodesicLength=0.4918101981439785 rxn_smarts="[O:1]=[c:2]1[c:3]([H:8])[c:4]([H:9])[n:5]([H:10])[c:6]([H:11])[n:7]1>>[O:1]1[C@:2]23[C@@:3]1([H:8])[C@@:4]2([H:9])[N:5]([H:10])[C:6]([H:11])=[N:7]3"
O        2.27473786      -0.47881576       0.58973912
C        1.00478029      -0.57779914       0.45026382
C        1.21633425       0.69043633      -0.23402484
C       -0.03960691       0.95320465       0.36950431
N       -1.15784631       0.26877231      -0.13218811
C       -0.98403679      -1.07683677      -0.25174104
N        0.17058254      -1.58980569       0.00775203
H        1.69598010       0.93715226      -1.16218217
H       -0.24341203       1.87891263       0.89850464
H       -2.06711543       0.68960330      -0.18732196
H       -1.87039756      -1.69482412      -0.34830580
11
Frame=14 idx=009189 GeodesicLength=0.5297137437732874 rxn_smarts="[O:1]=[c:2]1[c:3]([H:8])[c:4]([H:9])[n:5]([H:10])[c:6]([H:11])[n:7]1>>[O:1]1[C@:2]23[C@@:3]1([H:8])[C@@:4]2([H:9])[N:5]([H:10])[C:6]([H:11])=[N:7]3"
O        2.28109146      -0.50008931       0.58052122
C        1.00890641      -0.57687858       0.46247341
C        1.21642256       0.69433298      -0.22471913
C       -0.04331403       0.95269122       0.36955675
N       -1.15915448       0.27124780      -0.13749391
C       -0.98084264      -1.07535521      -0.25713153
N        0.17345853      -1.58552464       0.00112915
H        1.69024673       0.94053374      -1.15557363
H       -0.24868376       1.88561843       0.88537441
H       -2.07045228       0.68852268      -0.18409082
H       -1.86767851      -1.69509912      -0.34004592
11
Frame=15 idx=009189 GeodesicLength=0.5676255263406077 rxn_smarts="[O:1]=[c:2]1[c:3]([H:8])[c:4]([H:9])[n:5]([H:10])[c:6]([H:11])[n:7]1>>[O:1]1[C@:2]23[C@@:3]1([H:8])[C@@:4]2([H:9])[N:5]([H:10])[C:6]([H:11])=[N:7]3"
O        2.28691451      -0.52136463       0.57107038
C        1.01318535      -0.57597009       0.47449183
C        1.21641223       0.69828640      -0.21549497
C       -0.04700174       0.95215049       0.36965580
N       -1.16045342       0.27373173      -0.14273983
C       -0.97764086      -1.07386979      -0.26232724
N        0.17629657      -1.58116900      -0.00498457
H        1.68457707       0.94398287      -1.14891927
H       -0.25384300       1.89211671       0.87223252
H       -2.07369911       0.68740809      -0.18091051
H       -1.86474760      -1.69530279      -0.33207416
11
Frame=16 idx=009189 GeodesicLength=0.6055508477441169 rxn_smarts="[O:1]=[c:2]1[c:3]([H:8])[c:4]([H:9])[n:5]([H:10])[c:6]([H:11])[n:7]1>>[O:1]1[C@:2]23[C@@:3]1([H:8])[C@@:4]2([H:9])[N:5]([H:10])[C:6]([H:11])=[N:7]3"
O        2.29221192      -0.54260441       0.56143965
C        1.01763177      -0.57508593       0.48628743
C        1.21630183       0.70229787      -0.20635771
C       -0.05066661       0.95157087       0.36981548
N       -1.16174123       0.27621994      -0.14791997
C       -0.97444050      -1.07238607      -0.26732631
N        0.17910155      -1.57675430      -0.01066752
H        1.67897920       0.94751038      -1.14221955
H       -0.25889043       1.89839607       0.85909660
H       -2.07684625       0.68627671      -0.17783600
H       -1.86164126      -1.69544114      -0.32431209
