10
Frame=0 idx=009369 GeodesicLength=0.0 rxn_smarts="[C:1](#[C:2][c:3]1[c:4]([H:9])[o:5][n:6][c:7]1[H:10])[H:8]>>[C:1](#[C:2][C:3]#[C:4][H:9])[H:8].[O-:5][N+:6]#[C:7][H:10]"
C        2.59335142      -0.10975852       0.33653845
C        1.45263073       0.25500601       0.26312944
C        0.12380926       0.64791730       0.16992952
C       -0.82959536       1.41779501       0.21747126
O       -2.55120300       0.17994689      -0.31811688
N       -1.91362685      -0.83769809      -0.46660109
C       -0.80302433      -1.25795639      -0.40843504
H        3.61158128      -0.41089571       0.40840591
H       -1.48004468       2.25398934       0.32447675
H       -0.20387846      -2.13834584      -0.52679833
10
Frame=1 idx=009369 GeodesicLength=0.0557282436506059 rxn_smarts="[C:1](#[C:2][c:3]1[c:4]([H:9])[o:5][n:6][c:7]1[H:10])[H:8]>>[C:1](#[C:2][C:3]#[C:4][H:9])[H:8].[O-:5][N+:6]#[C:7][H:10]"
C        2.61058045      -0.09069336       0.35971565
C        1.46464992       0.25065134       0.25838346
C        0.13997928       0.64125041       0.10368881
C       -0.81925530       1.40448013       0.20023288
O       -2.54824177       0.19916813      -0.31007095
N       -1.93588604      -0.83601572      -0.47930608
C       -0.82850457      -1.26830567      -0.40407658
H        3.63512326      -0.37045600       0.42937454
H       -1.46844304       2.23213974       0.36741340
H       -0.25000220      -2.16221901      -0.52535514
10
Frame=2 idx=009369 GeodesicLength=0.10867557067535416 rxn_smarts="[C:1](#[C:2][c:3]1[c:4]([H:9])[o:5][n:6][c:7]1[H:10])[H:8]>>[C:1](#[C:2][C:3]#[C:4][H:9])[H:8].[O-:5][N+:6]#[C:7][H:10]"
C        2.62534003      -0.06557429       0.37904811
C        1.47693264       0.25691986       0.24948267
C        0.15326720       0.63494394       0.05121160
C       -0.81031286       1.39400269       0.17666497
O       -2.54439160       0.21384739      -0.29704630
N       -1.95635903      -0.83886186      -0.47647182
C       -0.84845958      -1.27607904      -0.40155339
H        3.64789280      -0.35082478       0.45530167
H       -1.45743936       2.21017865       0.40067862
H       -0.28647024      -2.17855254      -0.53731612
10
Frame=3 idx=009369 GeodesicLength=0.16105764038343673 rxn_smarts="[C:1](#[C:2][c:3]1[c:4]([H:9])[o:5][n:6][c:7]1[H:10])[H:8]>>[C:1](#[C:2][C:3]#[C:4][H:9])[H:8].[O-:5][N+:6]#[C:7][H:10]"
C        2.63909826      -0.04021288       0.39846643
C        1.48828323       0.26354633       0.24686031
C        0.16472570       0.62520927       0.01260468
C       -0.80189860       1.38321421       0.15429304
O       -2.53977640       0.22842912      -0.28603246
N       -1.97615747      -0.84098873      -0.47599549
C       -0.86756127      -1.28290230      -0.40269218
H        3.66058847      -0.33012955       0.47202691
H       -1.44415990       2.18883831       0.42696587
H       -0.32314202      -2.19500378      -0.54649711
10
Frame=4 idx=009369 GeodesicLength=0.2137152967696344 rxn_smarts="[C:1](#[C:2][c:3]1[c:4]([H:9])[o:5][n:6][c:7]1[H:10])[H:8]>>[C:1](#[C:2][C:3]#[C:4][H:9])[H:8].[O-:5][N+:6]#[C:7][H:10]"
C        2.65452953      -0.01339293       0.41094141
C        1.49957375       0.26689480       0.24621006
C        0.17539277       0.61087473      -0.01637010
C       -0.79278069       1.37061371       0.13595271
O       -2.53375517       0.24694772      -0.28789786
N       -1.99725083      -0.84135750      -0.47847809
C       -0.88954283      -1.29082482      -0.40042368
H        3.67636437      -0.30173091       0.48654599
H       -1.42840022       2.16506476       0.45465643
H       -0.36413069      -2.21308955      -0.55113687
10
Frame=5 idx=009369 GeodesicLength=0.26706474818333814 rxn_smarts="[C:1](#[C:2][c:3]1[c:4]([H:9])[o:5][n:6][c:7]1[H:10])[H:8]>>[C:1](#[C:2][C:3]#[C:4][H:9])[H:8].[O-:5][N+:6]#[C:7][H:10]"
C        2.67048529       0.01143104       0.42322929
C        1.51105930       0.26461606       0.24619369
C        0.18603102       0.59137137      -0.03936082
C       -0.78180914       1.35590572       0.12012478
O       -2.52726052       0.26830735      -0.29400085
N       -2.02063566      -0.83959886      -0.48357077
C       -0.91525055      -1.29955603      -0.39852744
H        3.69714729      -0.25934013       0.49927686
H       -1.40852131       2.13991504       0.48097651
H       -0.41124570      -2.23305156      -0.55434125
10
Frame=6 idx=009369 GeodesicLength=0.3210268031083 rxn_smarts="[C:1](#[C:2][c:3]1[c:4]([H:9])[o:5][n:6][c:7]1[H:10])[H:8]>>[C:1](#[C:2][C:3]#[C:4][H:9])[H:8].[O-:5][N+:6]#[C:7][H:10]"
C        2.68758621       0.03809804       0.43353605
C        1.52295553       0.25777097       0.24620056
C        0.19683691       0.56738013      -0.05864789
C       -0.76905617       1.33943206       0.10462339
O       -2.52059080       0.29024934      -0.29701304
N       -2.04694533      -0.83804356      -0.48150552
C       -0.94328948      -1.30872505      -0.40026108
H        3.71964817      -0.20889627       0.51740166
H       -1.38448727       2.11583446       0.50091599
H       -0.46265779      -2.25310011      -0.56525010
10
Frame=7 idx=009369 GeodesicLength=0.37467383275269567 rxn_smarts="[C:1](#[C:2][c:3]1[c:4]([H:9])[o:5][n:6][c:7]1[H:10])[H:8]>>[C:1](#[C:2][C:3]#[C:4][H:9])[H:8].[O-:5][N+:6]#[C:7][H:10]"
C        2.70399462       0.06307876       0.44569780
C        1.53553269       0.24943709       0.24631436
C        0.20761836       0.54075800      -0.07390796
C       -0.75559350       1.32167716       0.09093518
O       -2.51327132       0.31222367      -0.29942239
N       -2.07326291      -0.83470309      -0.48376842
C       -0.97261522      -1.31809019      -0.40178634
H        3.74288587      -0.15276723       0.53239066
H       -1.35886969       2.09165780       0.51845423
H       -0.51641889      -2.27327196      -0.57490711
10
Frame=8 idx=009369 GeodesicLength=0.4282091010128456 rxn_smarts="[C:1](#[C:2][c:3]1[c:4]([H:9])[o:5][n:6][c:7]1[H:10])[H:8]>>[C:1](#[C:2][C:3]#[C:4][H:9])[H:8].[O-:5][N+:6]#[C:7][H:10]"
C        2.72115248       0.08905124       0.45442663
C        1.54936078       0.24006251       0.24467207
C        0.21839581       0.51170582      -0.08532572
C       -0.74145039       1.30242207       0.08031623
O       -2.50446780       0.33566205      -0.30750911
N       -2.10054995      -0.83095512      -0.48274993
C       -1.00281114      -1.32722790      -0.40461711
H        3.76571852      -0.09361758       0.54922907
H       -1.33284829       2.06630038       0.53561738
H       -0.57250003      -2.29340347      -0.58405952
10
Frame=9 idx=009369 GeodesicLength=0.48094882090276764 rxn_smarts="[C:1](#[C:2][c:3]1[c:4]([H:9])[o:5][n:6][c:7]1[H:10])[H:8]>>[C:1](#[C:2][C:3]#[C:4][H:9])[H:8].[O-:5][N+:6]#[C:7][H:10]"
C        2.73776047       0.11480694       0.46406618
C        1.56278032       0.23071614       0.24955480
C        0.22901617       0.48100903      -0.09116040
C       -0.72730034       1.28275888       0.06989505
O       -2.49487727       0.35783792      -0.31407465
N       -2.12673765      -0.82603846      -0.48583930
C       -1.03285327      -1.33625363      -0.40709225
H        3.78759824      -0.03437121       0.55925987
H       -1.30697641       2.04202447       0.54851048
H       -0.62841025      -2.31249008      -0.59311978
10
Frame=10 idx=009369 GeodesicLength=0.5333324174071097 rxn_smarts="[C:1](#[C:2][c:3]1[c:4]([H:9])[o:5][n:6][c:7]1[H:10])[H:8]>>[C:1](#[C:2][C:3]#[C:4][H:9])[H:8].[O-:5][N+:6]#[C:7][H:10]"
C        2.75431458       0.14229378       0.46972551
C        1.57877776       0.22369546       0.24273544
C        0.23948040       0.44964751      -0.09826579
C       -0.71297960       1.26223614       0.06052065
O       -2.48495204       0.37893836      -0.31721159
N       -2.15301718      -0.82086047      -0.48754928
C       -1.06301455      -1.34501469      -0.41011595
H        3.80654256       0.02307923       0.58034754
H       -1.28016252       2.01680182       0.56206088
H       -0.68498940      -2.33081713      -0.60224740
10
Frame=11 idx=009369 GeodesicLength=0.5855697004128418 rxn_smarts="[C:1](#[C:2][c:3]1[c:4]([H:9])[o:5][n:6][c:7]1[H:10])[H:8]>>[C:1](#[C:2][C:3]#[C:4][H:9])[H:8].[O-:5][N+:6]#[C:7][H:10]"
C        2.77118112       0.16942437       0.47615195
C        1.59434786       0.21417530       0.24552413
C        0.25005596       0.41477715      -0.09686036
C       -0.69764688       1.24049877       0.05230992
O       -2.47267038       0.40144658      -0.32832210
N       -2.18039139      -0.81588616      -0.48138589
C       -1.09352317      -1.35347611      -0.41608248
H        3.82606497       0.08503955       0.59306479
H       -1.25381946       1.99239269       0.57093851
H       -0.74359863      -2.34839215      -0.61533846
10
Frame=12 idx=009369 GeodesicLength=0.6371970317337028 rxn_smarts="[C:1](#[C:2][c:3]1[c:4]([H:9])[o:5][n:6][c:7]1[H:10])[H:8]>>[C:1](#[C:2][C:3]#[C:4][H:9])[H:8].[O-:5][N+:6]#[C:7][H:10]"
C        2.78784528       0.19834249       0.47954984
C        1.61114013       0.20653478       0.24398941
C        0.25995861       0.37848258      -0.09192424
C       -0.68268026       1.21777245       0.04526182
O       -2.46081903       0.42125006      -0.33084644
N       -2.20600961      -0.80922093      -0.48588688
C       -1.12432626      -1.36235175      -0.41966622
H        3.84329805       0.14429774       0.60896127
H       -1.22675410       1.97000759       0.57706903
H       -0.80165282      -2.36511502      -0.62650759
10
Frame=13 idx=009369 GeodesicLength=0.688880861113622 rxn_smarts="[C:1](#[C:2][c:3]1[c:4]([H:9])[o:5][n:6][c:7]1[H:10])[H:8]>>[C:1](#[C:2][C:3]#[C:4][H:9])[H:8].[O-:5][N+:6]#[C:7][H:10]"
C        2.80514775       0.22793057       0.48045847
C        1.62914800       0.19823315       0.24291311
C        0.26974749       0.33918528      -0.07930671
C       -0.66664953       1.19381221       0.04044060
O       -2.44559141       0.44343921      -0.34654318
N       -2.23287823      -0.80263178      -0.47967098
C       -1.15545118      -1.37050314      -0.42577696
H        3.86009551       0.20624396       0.62325142
H       -1.20140687       1.94530600       0.58362661
H       -0.86216153      -2.38101547      -0.63939238
10
Frame=14 idx=009369 GeodesicLength=0.7399290617408872 rxn_smarts="[C:1](#[C:2][c:3]1[c:4]([H:9])[o:5][n:6][c:7]1[H:10])[H:8]>>[C:1](#[C:2][C:3]#[C:4][H:9])[H:8].[O-:5][N+:6]#[C:7][H:10]"
C        2.82173726       0.25640001       0.48300740
C        1.64672211       0.18871371       0.24818286
C        0.27835531       0.29585177      -0.05430009
C       -0.65025544       1.16808964       0.03704448
O       -2.42971141       0.46353062      -0.35688958
N       -2.25849041      -0.79487622      -0.48041056
C       -1.18694206      -1.37928476      -0.43137188
H        3.87638652       0.27097495       0.62889593
H       -1.17517496       1.92628754       0.58149073
H       -0.92262691      -2.39568724      -0.65564928
10
Frame=15 idx=009369 GeodesicLength=0.790291996306804 rxn_smarts="[C:1](#[C:2][c:3]1[c:4]([H:9])[o:5][n:6][c:7]1[H:10])[H:8]>>[C:1](#[C:2][C:3]#[C:4][H:9])[H:8].[O-:5][N+:6]#[C:7][H:10]"
C        2.83819055       0.28546608       0.48124386
C        1.66500424       0.17967220       0.25108077
C        0.28508422       0.24935412      -0.01414872
C       -0.63362360       1.14097471       0.03709079
O       -2.41127494       0.48358594      -0.37263081
N       -2.28320260      -0.78636530      -0.48081646
C       -1.21763398      -1.38723653      -0.43991228
H        3.89102368       0.33521452       0.63254093
H       -1.15057942       1.90890069       0.57650703
H       -0.98298815      -2.40956643      -0.67095510
10
Frame=16 idx=009369 GeodesicLength=0.8389483027306646 rxn_smarts="[C:1](#[C:2][c:3]1[c:4]([H:9])[o:5][n:6][c:7]1[H:10])[H:8]>>[C:1](#[C:2][C:3]#[C:4][H:9])[H:8].[O-:5][N+:6]#[C:7][H:10]"
C        2.85356570       0.31275337       0.47042010
C        1.68096145       0.17242137       0.25631602
C        0.28837316       0.20219716       0.04670664
C       -0.61843009       1.11322163       0.04410734
O       -2.38989223       0.50296432      -0.39433140
N       -2.30383855      -0.77630671      -0.49373296
C       -1.24568910      -1.39448593      -0.44553884
H        3.90341813       0.39402145       0.62843376
H       -1.13058200       1.89480714       0.56930334
H       -1.03788646      -2.42159380      -0.68168400
