16
Frame=0 idx=005061 GeodesicLength=0.0 rxn_smarts="[C:1]([C:2]([C@@:3]1([H:12])[O:4][C@:5]1([C:6]([H:14])([H:15])[H:16])[H:13])([H:10])[H:11])([H:7])([H:8])[H:9]>>[C:1]([C:2]([C@@:3]([O:4][H:13])([C:5][C:6]([H:14])([H:15])[H:16])[H:12])([H:10])[H:11])([H:7])([H:8])[H:9]"
C        1.69462367       0.40003377      -0.88793750
C        0.80595678       0.86372883       0.26104348
C        0.20300804      -0.30545297       0.99817948
O       -0.87626873       0.08469819       1.87168825
C       -0.96960479      -1.07835358       0.52240019
C       -1.76342119      -0.55492227      -0.62065077
H        2.47854864      -0.27501648      -0.53700203
H        2.17992365       1.24828522      -1.37180856
H        1.11717944      -0.13183051      -1.64730662
H        1.39364698       1.44961974       0.97277901
H        0.01817117       1.52496043      -0.10180325
H        0.96449322      -0.88631098       1.52339896
H       -1.35341633      -0.91846965       1.85673680
H       -1.57436829       0.48089720      -0.91260735
H       -2.83161350      -0.70162141      -0.46303327
H       -1.48685871      -1.20024549      -1.46407683
16
Frame=1 idx=005061 GeodesicLength=0.03974745333732586 rxn_smarts="[C:1]([C:2]([C@@:3]1([H:12])[O:4][C@:5]1([C:6]([H:14])([H:15])[H:16])[H:13])([H:10])[H:11])([H:7])([H:8])[H:9]>>[C:1]([C:2]([C@@:3]([O:4][H:13])([C:5][C:6]([H:14])([H:15])[H:16])[H:12])([H:10])[H:11])([H:7])([H:8])[H:9]"
C        1.69728987       0.40010683      -0.88790656
C        0.80696723       0.86474642       0.25938767
C        0.20359399      -0.30386297       0.99693959
O       -0.87639837       0.08405763       1.86927789
C       -0.97201961      -1.07324185       0.52408213
C       -1.76601736      -0.55362541      -0.62010132
H        2.48175596      -0.27330158      -0.53498240
H        2.18211969       1.24794785      -1.37297538
H        1.12132271      -0.13393180      -1.64687876
H        1.39316971       1.45149474       0.97167453
H        0.01945798       1.52538842      -0.10523834
H        0.96412681      -0.88658344       1.52141965
H       -1.35573437      -0.93040589       1.86336626
H       -1.57830021       0.48239948      -0.91198327
H       -2.83423999      -0.70175129      -0.46362512
H       -1.48709406      -1.19943714      -1.46245656
16
Frame=2 idx=005061 GeodesicLength=0.07949403496451235 rxn_smarts="[C:1]([C:2]([C@@:3]1([H:12])[O:4][C@:5]1([C:6]([H:14])([H:15])[H:16])[H:13])([H:10])[H:11])([H:7])([H:8])[H:9]>>[C:1]([C:2]([C@@:3]([O:4][H:13])([C:5][C:6]([H:14])([H:15])[H:16])[H:12])([H:10])[H:11])([H:7])([H:8])[H:9]"
C        1.69995693       0.40017636      -0.88787211
C        0.80797827       0.86577171       0.25772458
C        0.20417434      -0.30225753       0.99569774
O       -0.87648094       0.08344614       1.86693061
C       -0.97445618      -1.06809513       0.52580809
C       -1.76860754      -0.55232170      -0.61953284
H        2.48497172      -0.27156436      -0.53294637
H        2.18430560       1.24759803      -1.37416151
H        1.12547878      -0.13606010      -1.64643020
H        1.39269065       1.45338350       0.97055512
H        0.02074501       1.52581564      -0.10868533
H        0.96374885      -0.88686514       1.51941180
H       -1.35809614      -0.94242630       1.86985099
H       -1.58223677       0.48390670      -0.91134780
H       -2.83685919      -0.70187293      -0.46420741
H       -1.48731340      -1.19863488      -1.46079536
16
Frame=3 idx=005061 GeodesicLength=0.11924239064727418 rxn_smarts="[C:1]([C:2]([C@@:3]1([H:12])[O:4][C@:5]1([C:6]([H:14])([H:15])[H:16])[H:13])([H:10])[H:11])([H:7])([H:8])[H:9]>>[C:1]([C:2]([C@@:3]([O:4][H:13])([C:5][C:6]([H:14])([H:15])[H:16])[H:12])([H:10])[H:11])([H:7])([H:8])[H:9]"
C        1.70263341       0.40023986      -0.88783130
C        0.80898851       0.86680502       0.25604821
C        0.20474783      -0.30063472       0.99445023
O       -0.87651687       0.08286219       1.86464502
C       -0.97691432      -1.06291255       0.52757429
C       -1.77120026      -0.55100595      -0.61894050
H        2.48820939      -0.26979443      -0.53087853
H        2.18648496       1.24723187      -1.37537113
H        1.12966518      -0.13823037      -1.64595569
H        1.39220325       1.45529136       0.96941491
H        0.02203212       1.52623869      -0.11215885
H        0.96335809      -0.88715266       1.51737267
H       -1.36049514      -0.95455213       1.87618790
H       -1.58619244       0.48542685      -0.91068962
H       -2.83947817      -0.70198818      -0.46477272
H       -1.48752554      -1.19782486      -1.45909491
16
Frame=4 idx=005061 GeodesicLength=0.1589992274760039 rxn_smarts="[C:1]([C:2]([C@@:3]1([H:12])[O:4][C@:5]1([C:6]([H:14])([H:15])[H:16])[H:13])([H:10])[H:11])([H:7])([H:8])[H:9]>>[C:1]([C:2]([C@@:3]([O:4][H:13])([C:5][C:6]([H:14])([H:15])[H:16])[H:12])([H:10])[H:11])([H:7])([H:8])[H:9]"
C        1.70533109       0.40029683      -0.88778023
C        0.80999663       0.86784445       0.25435287
C        0.20531380      -0.29899687       0.99319117
O       -0.87650431       0.08230433       1.86241873
C       -0.97939616      -1.05769348       0.52937593
C       -1.77380666      -0.54967192      -0.61832030
H        2.49149664      -0.26796448      -0.52875839
H        2.18865079       1.24685191      -1.37661345
H        1.13390863      -0.14047106      -1.64544228
H        1.39169714       1.45722272       0.96825049
H        0.02331869       1.52665077      -0.11567467
H        0.96295357      -0.88744997       1.51529504
H       -1.36292487      -0.96680524       1.88237259
H       -1.59017501       0.48696525      -0.91000644
H       -2.84210742      -0.70208279      -0.46530576
H       -1.48775254      -1.19700043      -1.45735528
16
Frame=5 idx=005061 GeodesicLength=0.1987717852787717 rxn_smarts="[C:1]([C:2]([C@@:3]1([H:12])[O:4][C@:5]1([C:6]([H:14])([H:15])[H:16])[H:13])([H:10])[H:11])([H:7])([H:8])[H:9]>>[C:1]([C:2]([C@@:3]([O:4][H:13])([C:5][C:6]([H:14])([H:15])[H:16])[H:12])([H:10])[H:11])([H:7])([H:8])[H:9]"
C        1.70805762       0.40034474      -0.88771738
C        0.81100166       0.86889012       0.25263264
C        0.20587143      -0.29734241       0.99191865
O       -0.87644277       0.08177532       1.86025129
C       -0.98190233      -1.05243664       0.53121178
C       -1.77643316      -0.54831679      -0.61766885
H        2.49483594      -0.26607881      -0.52657827
H        2.19081673       1.24645453      -1.37788470
H        1.13821944      -0.14278217      -1.64489240
H        1.39116380       1.45918676       0.96705509
H        0.02460449       1.52704792      -0.11924704
H        0.96253416      -0.88775477       1.51317965
H       -1.36537950      -0.97920331       1.88840678
H       -1.59420045       0.48852957      -0.90928620
H       -2.84475197      -0.70216559      -0.46580217
H       -1.48799508      -1.19614847      -1.45557889
16
Frame=6 idx=005061 GeodesicLength=0.2385335657416392 rxn_smarts="[C:1]([C:2]([C@@:3]1([H:12])[O:4][C@:5]1([C:6]([H:14])([H:15])[H:16])[H:13])([H:10])[H:11])([H:7])([H:8])[H:9]>>[C:1]([C:2]([C@@:3]([O:4][H:13])([C:5][C:6]([H:14])([H:15])[H:16])[H:12])([H:10])[H:11])([H:7])([H:8])[H:9]"
C        1.71082032       0.40038146      -0.88763840
C        0.81200283       0.86994050       0.25088412
C        0.20642012      -0.29567095       0.99062905
O       -0.87633202       0.08127058       1.85814015
C       -0.98443258      -1.04714100       0.53307776
C       -1.77908770      -0.54693369      -0.61698169
H        2.49824913      -0.26411259      -0.52431733
H        2.19297028       1.24603637      -1.37919724
H        1.14261774      -0.14519344      -1.64428879
H        1.39059755       1.46118558       0.96582533
H        0.02588993       1.52742580      -0.12288710
H        0.96210037      -0.88806799       1.51101554
H       -1.36785275      -0.99175892       1.89427712
H       -1.59827940       0.49012720      -0.90851893
H       -2.84741785      -0.70223137      -0.46625233
H       -1.48826595      -1.19525756      -1.45376727
16
Frame=7 idx=005061 GeodesicLength=0.2783100330486631 rxn_smarts="[C:1]([C:2]([C@@:3]1([H:12])[O:4][C@:5]1([C:6]([H:14])([H:15])[H:16])[H:13])([H:10])[H:11])([H:7])([H:8])[H:9]>>[C:1]([C:2]([C@@:3]([O:4][H:13])([C:5][C:6]([H:14])([H:15])[H:16])[H:12])([H:10])[H:11])([H:7])([H:8])[H:9]"
C        1.71359321       0.40040529      -0.88755205
C        0.81300208       0.87100216       0.24911598
C        0.20695944      -0.29397002       0.98933690
O       -0.87618319       0.08081567       1.85608217
C       -0.98697833      -1.04180177       0.53498437
C       -1.78174647      -0.54553259      -0.61626216
H        2.50167153      -0.26213085      -0.52202158
H        2.19513392       1.24558634      -1.38052767
H        1.14704415      -0.14764644      -1.64365638
H        1.39002080       1.46321298       0.96456123
H        0.02717665       1.52779911      -0.12656734
H        0.96165115      -0.88836951       1.50882835
H       -1.37035262      -1.00447729       1.89998590
H       -1.60239480       0.49174803      -0.90770899
H       -2.85008230      -0.70230927      -0.46668219
H       -1.48851523      -1.19433184      -1.45191654
16
Frame=8 idx=005061 GeodesicLength=0.3180939946972911 rxn_smarts="[C:1]([C:2]([C@@:3]1([H:12])[O:4][C@:5]1([C:6]([H:14])([H:15])[H:16])[H:13])([H:10])[H:11])([H:7])([H:8])[H:9]>>[C:1]([C:2]([C@@:3]([O:4][H:13])([C:5][C:6]([H:14])([H:15])[H:16])[H:12])([H:10])[H:11])([H:7])([H:8])[H:9]"
C        1.71638748       0.40041673      -0.88745532
C        0.81399917       0.87207491       0.24732383
C        0.20748895      -0.29224272       0.98803894
O       -0.87599146       0.08040590       1.85408121
C       -0.98954377      -1.03642024       0.53692933
C       -1.78442140      -0.54410912      -0.61550873
H        2.50512853      -0.26010916      -0.51967252
H        2.19730492       1.24510881      -1.38188417
H        1.15152327      -0.15016647      -1.64298630
H        1.38942429       1.46527889       0.96326111
H        0.02846513       1.52816506      -0.13030144
H        0.96118587      -0.88866566       1.50661183
H       -1.37287280      -1.01737700       1.90552905
H       -1.60655136       0.49339624      -0.90685985
H       -2.85275732      -0.70238247      -0.46707922
H       -1.48876948      -1.19337370      -1.45002773
16
Frame=9 idx=005061 GeodesicLength=0.35788127360698785 rxn_smarts="[C:1]([C:2]([C@@:3]1([H:12])[O:4][C@:5]1([C:6]([H:14])([H:15])[H:16])[H:13])([H:10])[H:11])([H:7])([H:8])[H:9]>>[C:1]([C:2]([C@@:3]([O:4][H:13])([C:5][C:6]([H:14])([H:15])[H:16])[H:12])([H:10])[H:11])([H:7])([H:8])[H:9]"
C        1.71919575       0.40041568      -0.88734994
C        0.81499505       0.87316000       0.24551087
C        0.20800847      -0.29048501       0.98673938
O       -0.87576100       0.08005038       1.85213433
C       -0.99212577      -1.03099405       0.53891543
C       -1.78710443      -0.54266560      -0.61472207
H        2.50860460      -0.25806111      -0.51728170
H        2.19948388       1.24460116      -1.38326247
H        1.15603914      -0.15273921      -1.64228218
H        1.38881471       1.46737993       0.96192563
H        0.02975617       1.52852665      -0.13408124
H        0.96070351      -0.88894895       1.50437416
H       -1.37541484      -1.03046632       1.91089922
H       -1.61073866       0.49506656      -0.90597688
H       -2.85543556      -0.70244948      -0.46744598
H       -1.48902102      -1.19239063      -1.44809657
16
Frame=10 idx=005061 GeodesicLength=0.39766917654990847 rxn_smarts="[C:1]([C:2]([C@@:3]1([H:12])[O:4][C@:5]1([C:6]([H:14])([H:15])[H:16])[H:13])([H:10])[H:11])([H:7])([H:8])[H:9]>>[C:1]([C:2]([C@@:3]([O:4][H:13])([C:5][C:6]([H:14])([H:15])[H:16])[H:12])([H:10])[H:11])([H:7])([H:8])[H:9]"
C        1.72201024       0.40040232      -0.88723840
C        0.81599138       0.87425938       0.24368103
C        0.20851793      -0.28869312       0.98544384
O       -0.87549531       0.07975863       1.85024024
C       -0.99472151      -1.02552145       0.54094610
C       -1.78978753      -0.54120498      -0.61390402
H        2.51208355      -0.25600137      -0.51486148
H        2.20167149       1.24406199      -1.38465923
H        1.16057423      -0.15534983      -1.64154942
H        1.38820051       1.46951346       0.96055687
H        0.03105146       1.52888852      -0.13789802
H        0.96020287      -0.88921266       1.50212560
H       -1.37798129      -1.04375335       1.91609051
H       -1.61494572       0.49675389      -0.90506720
H       -2.85810980      -0.70250942      -0.46778647
H       -1.48926249      -1.19139200      -1.44611995
16
Frame=11 idx=005061 GeodesicLength=0.43745452927607803 rxn_smarts="[C:1]([C:2]([C@@:3]1([H:12])[O:4][C@:5]1([C:6]([H:14])([H:15])[H:16])[H:13])([H:10])[H:11])([H:7])([H:8])[H:9]>>[C:1]([C:2]([C@@:3]([O:4][H:13])([C:5][C:6]([H:14])([H:15])[H:16])[H:12])([H:10])[H:11])([H:7])([H:8])[H:9]"
C        1.72482234       0.40037603      -0.88712377
C        0.81699024       0.87537512       0.24183847
C        0.20901738      -0.28686273       0.98415861
O       -0.87519810       0.07954120       1.84839784
C       -0.99732819      -1.02000019       0.54302538
C       -1.79246205      -0.53973011      -0.61305646
H        2.51554726      -0.25394762      -0.51242559
H        2.20386739       1.24348945      -1.38607133
H        1.16510916      -0.15798413      -1.64079366
H        1.38759178       1.47167681       0.95915646
H        0.03235311       1.52925552      -0.14174289
H        0.95968245      -0.88944946       1.49987780
H       -1.38057563      -1.05724493       1.92109665
H       -1.61916465       0.49845519      -0.90413378
H       -2.86077160      -0.70256761      -0.46810718
H       -1.48948089      -1.19038255      -1.44409655
16
Frame=12 idx=005061 GeodesicLength=0.47723389544728173 rxn_smarts="[C:1]([C:2]([C@@:3]1([H:12])[O:4][C@:5]1([C:6]([H:14])([H:15])[H:16])[H:13])([H:10])[H:11])([H:7])([H:8])[H:9]>>[C:1]([C:2]([C@@:3]([O:4][H:13])([C:5][C:6]([H:14])([H:15])[H:16])[H:12])([H:10])[H:11])([H:7])([H:8])[H:9]"
C        1.72762319       0.40033619      -0.88700920
C        0.81799374       0.87650926       0.23998756
C        0.20950686      -0.28498941       0.98289012
O       -0.87487307       0.07940886       1.84660610
C       -0.99994310      -1.01442778       0.54515760
C       -1.79511900      -0.53824384      -0.61218117
H        2.51897774      -0.25191749      -0.50998803
H        2.20607054       1.24288187      -1.38749596
H        1.16962406      -0.16062811      -1.64002052
H        1.38699891       1.47386708       0.95772611
H        0.03366331       1.52963260      -0.14560647
H        0.95914072      -0.88965190       1.49764249
H       -1.38320186      -1.07094784       1.92591039
H       -1.62338704       0.50016711      -0.90317978
H       -2.86341220      -0.70262924      -0.46841468
H       -1.48966280      -1.18936734      -1.44202456
16
Frame=13 idx=005061 GeodesicLength=0.5170109454999473 rxn_smarts="[C:1]([C:2]([C@@:3]1([H:12])[O:4][C@:5]1([C:6]([H:14])([H:15])[H:16])[H:13])([H:10])[H:11])([H:7])([H:8])[H:9]>>[C:1]([C:2]([C@@:3]([O:4][H:13])([C:5][C:6]([H:14])([H:15])[H:16])[H:12])([H:10])[H:11])([H:7])([H:8])[H:9]"
C        1.73042299       0.40028180      -0.88689024
C        0.81899959       0.87766169       0.23812225
C        0.20998499      -0.28307281       0.98163365
O       -0.87451876       0.07936016       1.84486495
C       -1.00256926      -1.00880208       0.54734027
C       -1.79776910      -0.53674077      -0.61127336
H        2.52239536      -0.24989154      -0.50753005
H        2.20828386       1.24223691      -1.38893779
H        1.17414082      -0.16330030      -1.63922123
H        1.38641038       1.47609151       0.95626125
H        0.03498060       1.53001596      -0.14950239
H        0.95857747      -0.88982115       1.49541156
H       -1.38584829      -1.08488770       1.93052325
H       -1.62761877       0.50189263      -0.90220624
H       -2.86604248      -0.70267979      -0.46869581
H       -1.48982941      -1.18834453      -1.43990006
16
Frame=14 idx=005061 GeodesicLength=0.5567903260335574 rxn_smarts="[C:1]([C:2]([C@@:3]1([H:12])[O:4][C@:5]1([C:6]([H:14])([H:15])[H:16])[H:13])([H:10])[H:11])([H:7])([H:8])[H:9]>>[C:1]([C:2]([C@@:3]([O:4][H:13])([C:5][C:6]([H:14])([H:15])[H:16])[H:12])([H:10])[H:11])([H:7])([H:8])[H:9]"
C        1.73322351       0.40020979      -0.88676661
C        0.82000755       0.87883407       0.23624037
C        0.21045039      -0.28111014       0.98039032
O       -0.87413695       0.07939629       1.84317623
C       -1.00520749      -1.00312086       0.54957254
C       -1.80041514      -0.53521546      -0.61033177
H        2.52581009      -0.24785670      -0.50504033
H        2.21049946       1.24154990      -1.39040999
H        1.17866777      -0.16602381      -1.63838603
H        1.38582539       1.47835458       0.95475896
H        0.03630618       1.53040735      -0.15343562
H        0.95799099      -0.88995451       1.49318707
H       -1.38850811      -1.09908896       1.93492541
H       -1.63186557       0.50364017      -0.90120636
H       -2.86866496      -0.70271592      -0.46894937
H       -1.48998313      -1.18730578      -1.43772482
16
Frame=15 idx=005061 GeodesicLength=0.5965667950017305 rxn_smarts="[C:1]([C:2]([C@@:3]1([H:12])[O:4][C@:5]1([C:6]([H:14])([H:15])[H:16])[H:13])([H:10])[H:11])([H:7])([H:8])[H:9]>>[C:1]([C:2]([C@@:3]([O:4][H:13])([C:5][C:6]([H:14])([H:15])[H:16])[H:12])([H:10])[H:11])([H:7])([H:8])[H:9]"
C        1.73602867       0.40011480      -0.88663417
C        0.82101609       0.88002478       0.23433787
C        0.21090249      -0.27909849       0.97915856
O       -0.87372790       0.07951640       1.84153848
C       -1.00785751      -0.99737934       0.55185200
C       -1.80306192      -0.53365978      -0.60935204
H        2.52923736      -0.24579585      -0.50250325
H        2.21270555       1.24081287      -1.39192341
H        1.18321723      -0.16882571      -1.63749835
H        1.38523772       1.48066034       0.95321199
H        0.03763943       1.53080178      -0.15741583
H        0.95738099      -0.89004806       1.49096634
H       -1.39117147      -1.11357440       1.93909939
H       -1.63613970       0.50541908      -0.90016900
H       -2.87128290      -0.70273575      -0.46916996
H       -1.49012410      -1.18623265      -1.43549860
16
Frame=16 idx=005061 GeodesicLength=0.6363378497973433 rxn_smarts="[C:1]([C:2]([C@@:3]1([H:12])[O:4][C@:5]1([C:6]([H:14])([H:15])[H:16])[H:13])([H:10])[H:11])([H:7])([H:8])[H:9]>>[C:1]([C:2]([C@@:3]([O:4][H:13])([C:5][C:6]([H:14])([H:15])[H:16])[H:12])([H:10])[H:11])([H:7])([H:8])[H:9]"
C        1.73882785       0.40000337      -0.88649532
C        0.82202746       0.88123746       0.23242257
C        0.21134171      -0.27703408       0.97794412
O       -0.87329460       0.07973780       1.83994722
C       -1.01051760      -0.99157504       0.55418622
C       -1.80569757      -0.53208477      -0.60833786
H        2.53264664      -0.24374018      -0.49994485
H        2.21491380       1.24003183      -1.39345885
H        1.18775945      -0.17166115      -1.63657406
H        1.38465927       1.48300177       0.95162857
H        0.03898112       1.53120672      -0.16142547
H        0.95674760      -0.89009543       1.48875850
H       -1.39384271      -1.12834599       1.94303807
H       -1.64040779       0.50720649      -0.89912537
H       -2.87388813      -0.70272321      -0.46935624
H       -1.49025649      -1.18516559      -1.43320726
