17
Frame=0 idx=007819 GeodesicLength=0.0 rxn_smarts="[C:1]([C@@:2]1([H:11])[C:3]([H:12])([H:13])[C:4]([H:14])=[C:5]([H:15])[C@:6]1([O:7][H:17])[H:16])([H:8])([H:9])[H:10]>>[C:1]([C:2](=[C:3]([H:12])[H:13])[C@@:6]([C:5](=[C:4]([H:11])[H:14])[H:15])([O:7][H:17])[H:16])([H:8])([H:9])[H:10]"
C        1.98122008      -0.51939437       0.61844991
C        0.70238505      -0.14616189      -0.06888966
C        0.52315042       1.06718327      -0.78567338
C       -1.50186003       1.33569560       0.26900836
C       -1.67339499       0.03243665       0.40479421
C       -0.54280946      -0.95780943       0.02312679
O       -0.93044168      -1.64310045      -1.16858331
H        2.55370799      -1.22993183       0.01614183
H        2.61789149       0.35305306       0.78320376
H        1.79094009      -0.98769574       1.58639474
H        0.16302818       0.91236619       0.46441050
H       -0.12353367       1.16551897      -1.64418721
H        1.28869725       1.83391732      -0.70336496
H       -2.30985334       2.05507063       0.37180172
H       -2.59230483      -0.46153490       0.71632559
H       -0.42393420      -1.73837824       0.77860632
H       -1.52288836      -1.07123481      -1.66156528
17
Frame=1 idx=007819 GeodesicLength=0.10357633372943316 rxn_smarts="[C:1]([C@@:2]1([H:11])[C:3]([H:12])([H:13])[C:4]([H:14])=[C:5]([H:15])[C@:6]1([O:7][H:17])[H:16])([H:8])([H:9])[H:10]>>[C:1]([C:2](=[C:3]([H:12])[H:13])[C@@:6]([C:5](=[C:4]([H:11])[H:14])[H:15])([O:7][H:17])[H:16])([H:8])([H:9])[H:10]"
C        1.98653787      -0.52895515       0.59832653
C        0.69325723      -0.12930713      -0.04291899
C        0.51309940       1.08056351      -0.76554443
C       -1.50715912       1.33734620       0.26960315
C       -1.69044895       0.03366458       0.39191501
C       -0.54818810      -0.95143889       0.04398343
O       -0.90447280      -1.66034346      -1.14277176
H        2.52336800      -1.24789803      -0.02636501
H        2.64383414       0.33134014       0.74422029
H        1.81935046      -0.99857215       1.56993080
H        0.14764507       0.93198111       0.51688178
H       -0.11531116       1.16446715      -1.63949064
H        1.28008769       1.84667320      -0.68982256
H       -2.31477217       2.05936113       0.35345205
H       -2.61997026      -0.45654294       0.67518870
H       -0.43545878      -1.71872912       0.81382816
H       -1.47139852      -1.09361017      -1.67041652
17
Frame=2 idx=007819 GeodesicLength=0.20684624587112627 rxn_smarts="[C:1]([C@@:2]1([H:11])[C:3]([H:12])([H:13])[C:4]([H:14])=[C:5]([H:15])[C@:6]1([O:7][H:17])[H:16])([H:8])([H:9])[H:10]>>[C:1]([C:2](=[C:3]([H:12])[H:13])[C@@:6]([C:5](=[C:4]([H:11])[H:14])[H:15])([O:7][H:17])[H:16])([H:8])([H:9])[H:10]"
C        1.99052203      -0.53805677       0.57796224
C        0.68453909      -0.11282534      -0.01703139
C        0.50342350       1.09311842      -0.74642673
C       -1.51145925       1.33880320       0.27072788
C       -1.70629947       0.03481553       0.37870482
C       -0.55346172      -0.94518768       0.06435326
O       -0.87902000      -1.67712742      -1.11631277
H        2.49203343      -1.26380103      -0.06779840
H        2.66675268       0.31032461       0.70514406
H        1.84640411      -1.00985255       1.55224526
H        0.13167154       0.95082574       0.56944103
H       -0.10666696       1.16289607      -1.63494366
H        1.27128586       1.85907314      -0.67658578
H       -2.31800461       2.06364272       0.33651092
H       -2.64563745      -0.45155385       0.63315454
H       -0.44725231      -1.69904580       0.84823953
H       -1.41883046      -1.11604901      -1.67738479
17
Frame=3 idx=007819 GeodesicLength=0.3098605008390726 rxn_smarts="[C:1]([C@@:2]1([H:11])[C:3]([H:12])([H:13])[C:4]([H:14])=[C:5]([H:15])[C@:6]1([O:7][H:17])[H:16])([H:8])([H:9])[H:10]>>[C:1]([C:2](=[C:3]([H:12])[H:13])[C@@:6]([C:5](=[C:4]([H:11])[H:14])[H:15])([O:7][H:17])[H:16])([H:8])([H:9])[H:10]"
C        1.99318821      -0.54666620       0.55746448
C        0.67627278      -0.09675384       0.00860441
C        0.49413012       1.10482753      -0.72843158
C       -1.51473360       1.34004086       0.27243314
C       -1.72089241       0.03588404       0.36527320
C       -0.55859907      -0.93907832       0.08414068
O       -0.85421653      -1.69340980      -1.08936908
H        2.45987268      -1.27776839      -0.10799457
H        2.68678056       0.29007292       0.66612272
H        1.87195244      -1.02133225       1.53351578
H        0.11512774       0.96881556       0.62209017
H       -0.09772266       1.16082271      -1.63062004
H        1.26230016       1.87111236      -0.66377214
H       -2.31959003       2.06787925       0.32100474
H       -2.66923027      -0.44655023       0.59035837
H       -0.45924606      -1.67943442       0.88165466
H       -1.36539403      -1.13846176      -1.68247493
17
Frame=4 idx=007819 GeodesicLength=0.4127225790527935 rxn_smarts="[C:1]([C@@:2]1([H:11])[C:3]([H:12])([H:13])[C:4]([H:14])=[C:5]([H:15])[C@:6]1([O:7][H:17])[H:16])([H:8])([H:9])[H:10]>>[C:1]([C:2](=[C:3]([H:12])[H:13])[C@@:6]([C:5](=[C:4]([H:11])[H:14])[H:15])([O:7][H:17])[H:16])([H:8])([H:9])[H:10]"
C        1.99458083      -0.55474573       0.53693427
C        0.66848380      -0.08111245       0.03382631
C        0.48522147       1.11567465      -0.71167532
C       -1.51696230       1.34104657       0.27475174
C       -1.73420579       0.03687553       0.35168946
C       -0.56357477      -0.93313107       0.10325438
O       -0.83017367      -1.70916599      -1.06210907
H        2.42707037      -1.28993627      -0.14678701
H        2.70406121       0.27065015       0.62730281
H        1.89589871      -1.03282994       1.51391156
H        0.09801838       0.98583430       0.67487838
H       -0.08860132       1.15826044      -1.62661365
H        1.25312506       1.88279103      -0.65150595
H       -2.31955388       2.07207559       0.30701994
H       -2.69071156      -0.44150248       0.54690375
H       -0.47137804      -1.65998453       0.91392586
H       -1.31129850      -1.16079981      -1.68570747
17
Frame=5 idx=007819 GeodesicLength=0.5157689915406918 rxn_smarts="[C:1]([C@@:2]1([H:11])[C:3]([H:12])([H:13])[C:4]([H:14])=[C:5]([H:15])[C@:6]1([O:7][H:17])[H:16])([H:8])([H:9])[H:10]>>[C:1]([C:2](=[C:3]([H:12])[H:13])[C@@:6]([C:5](=[C:4]([H:11])[H:14])[H:15])([O:7][H:17])[H:16])([H:8])([H:9])[H:10]"
C        1.99481206      -0.56223837       0.51647064
C        0.66114068      -0.06585340       0.05854194
C        0.47668424       1.12563260      -0.69629057
C       -1.51812329       1.34179628       0.27768584
C       -1.74629433       0.03779758       0.33792628
C       -0.56838962      -0.92736011       0.12162942
O       -0.80694487      -1.72438842      -1.03468337
H        2.39383125      -1.30044556      -0.18404010
H        2.71880888       0.25212719       0.58883101
H        1.91828423      -1.04420451       1.49357026
H        0.08029872       1.00165456       0.72804707
H       -0.07944697       1.15521867      -1.62303097
H        1.24372788       1.89409592      -0.63994924
H       -2.31786789       2.07623580       0.29463413
H       -2.71010700      -0.43631722       0.50284846
H       -0.48360815      -1.64073139       0.94498020
H       -1.25680584      -1.18301962      -1.68717101
17
Frame=6 idx=007819 GeodesicLength=0.6188800582918436 rxn_smarts="[C:1]([C@@:2]1([H:11])[C:3]([H:12])([H:13])[C:4]([H:14])=[C:5]([H:15])[C@:6]1([O:7][H:17])[H:16])([H:8])([H:9])[H:10]>>[C:1]([C:2](=[C:3]([H:12])[H:13])[C@@:6]([C:5](=[C:4]([H:11])[H:14])[H:15])([O:7][H:17])[H:16])([H:8])([H:9])[H:10]"
C        1.99390564      -0.56912984       0.49616861
C        0.65427761      -0.05100983       0.08258249
C        0.46851550       1.13470349      -0.68235586
C       -1.51818790       1.34229494       0.28133755
C       -1.75711998       0.03867753       0.32410654
C       -0.57301332      -0.92178172       0.13919495
O       -0.78461656      -1.73906229      -1.00725136
H        2.36030925      -1.30943295      -0.21965959
H        2.73115084       0.23453327       0.55080798
H        1.93900688      -1.05525026       1.47270913
H        0.06194982       1.01617500       0.78157349
H       -0.07038028       1.15171230      -1.61995510
H        1.23410965       1.90503539      -0.62920978
H       -2.31457515       2.08036448       0.28390339
H       -2.72739362      -0.43094585       0.45826081
H       -0.49588065      -1.62177637       0.97468279
H       -1.20205772      -1.20510730      -1.68689604
17
Frame=7 idx=007819 GeodesicLength=0.7220877330005347 rxn_smarts="[C:1]([C@@:2]1([H:11])[C:3]([H:12])([H:13])[C:4]([H:14])=[C:5]([H:15])[C@:6]1([O:7][H:17])[H:16])([H:8])([H:9])[H:10]>>[C:1]([C:2](=[C:3]([H:12])[H:13])[C@@:6]([C:5](=[C:4]([H:11])[H:14])[H:15])([O:7][H:17])[H:16])([H:8])([H:9])[H:10]"
C        1.99194073      -0.57539427       0.47612587
C        0.64788430      -0.03656903       0.10582514
C        0.46069468       1.14289093      -0.66996524
C       -1.51714458       1.34254096       0.28576387
C       -1.76670724       0.03954140       0.31027833
C       -0.57743857      -0.91640591       0.15589528
O       -0.76323202      -1.75318042      -0.97996902
H        2.32667529      -1.31706177      -0.25354216
H        2.74126250       0.21790546       0.51333512
H        1.95806025      -1.06578620       1.45153504
H        0.04292839       1.02924331       0.83555248
H       -0.06153848       1.14774541      -1.61748900
H        1.22426574       1.91559778      -0.61945666
H       -2.30968955       2.08448288       0.27496970
H       -2.74258643      -0.42530540       0.41314842
H       -0.50815129      -1.60318410       1.00294768
H       -1.14722373      -1.22706103      -1.68495488
17
Frame=8 idx=007819 GeodesicLength=0.8254372771607709 rxn_smarts="[C:1]([C@@:2]1([H:11])[C:3]([H:12])([H:13])[C:4]([H:14])=[C:5]([H:15])[C@:6]1([O:7][H:17])[H:16])([H:8])([H:9])[H:10]>>[C:1]([C:2](=[C:3]([H:12])[H:13])[C@@:6]([C:5](=[C:4]([H:11])[H:14])[H:15])([O:7][H:17])[H:16])([H:8])([H:9])[H:10]"
C        1.98901448      -0.58100973       0.45641639
C        0.64193920      -0.02249731       0.12818869
C        0.45320164       1.15019814      -0.65919797
C       -1.51498853       1.34253821       0.29099921
C       -1.77509894       0.04042646       0.29646587
C       -0.58166050      -0.91123665       0.17169479
O       -0.74279838      -1.76674979      -0.95296500
H        2.29309445      -1.32348223      -0.28561761
H        2.74932349       0.20226288       0.47648490
H        1.97550530      -1.07567280       1.43021398
H        0.02315809       1.04066754       0.89013237
H       -0.05304113       1.14331996      -1.61572743
H        1.21417854       1.92578332      -0.61081927
H       -2.30322905       2.08861669       0.26789067
H       -2.75572632      -0.41929997       0.36752775
H       -0.52038444      -1.58499791       1.02973843
H       -1.09248790      -1.24886680      -1.68142576
17
Frame=9 idx=007819 GeodesicLength=0.9291644594380957 rxn_smarts="[C:1]([C@@:2]1([H:11])[C:3]([H:12])([H:13])[C:4]([H:14])=[C:5]([H:15])[C@:6]1([O:7][H:17])[H:16])([H:8])([H:9])[H:10]>>[C:1]([C:2](=[C:3]([H:12])[H:13])[C@@:6]([C:5](=[C:4]([H:11])[H:14])[H:15])([O:7][H:17])[H:16])([H:8])([H:9])[H:10]"
C        1.98526223      -0.58590692       0.43711560
C        0.63636134      -0.00867128       0.14971734
C        0.44599833       1.15658298      -0.65017968
C       -1.51164620       1.34225653       0.29707304
C       -1.78238031       0.04137895       0.28260779
C       -0.58569078      -0.90627600       0.18658395
O       -0.72322605      -1.77978254      -0.92632899
H        2.25972082      -1.32874538      -0.31584132
H        2.75554086       0.18768203       0.44034795
H        1.99148731      -1.08480523       1.40887015
H        0.00251147       1.04999697       0.94570711
H       -0.04504688       1.13839729      -1.61476808
H        1.20378222       1.93554549      -0.60353786
H       -2.29507289       2.09275533       0.26265150
H       -2.76686578      -0.41271197       0.32136466
H       -0.53257417      -1.56723300       1.05507457
H       -1.03816154      -1.27046325      -1.67645774
17
Frame=10 idx=007819 GeodesicLength=1.0329728321075622 rxn_smarts="[C:1]([C@@:2]1([H:11])[C:3]([H:12])([H:13])[C:4]([H:14])=[C:5]([H:15])[C@:6]1([O:7][H:17])[H:16])([H:8])([H:9])[H:10]>>[C:1]([C:2](=[C:3]([H:12])[H:13])[C@@:6]([C:5](=[C:4]([H:11])[H:14])[H:15])([O:7][H:17])[H:16])([H:8])([H:9])[H:10]"
C        1.98071478      -0.59010764       0.41829765
C        0.63118707       0.00488404       0.17023918
C        0.43907722       1.16207862      -0.64294913
C       -1.50714989       1.34173124       0.30405947
C       -1.78852962       0.04244692       0.26885283
C       -0.58950430      -0.90151815       0.20051781
O       -0.70458803      -1.79225798      -0.90019952
H        2.22666571      -1.33307499      -0.34413638
H        2.76003971       0.17412294       0.40495560
H        2.00596789      -1.09299109       1.38773494
H       -0.01913410       1.05722777       1.00213410
H       -0.03763973       1.13297900      -1.61471726
H        1.19311167       1.94490352      -0.59771635
H       -2.28533623       2.09694903       0.25948980
H       -2.77597783      -0.40551378       0.27462905
H       -0.54466431      -1.54995719       1.07886227
H       -0.98424000      -1.29190226      -1.67005408
17
Frame=11 idx=007819 GeodesicLength=1.1368138640740608 rxn_smarts="[C:1]([C@@:2]1([H:11])[C:3]([H:12])([H:13])[C:4]([H:14])=[C:5]([H:15])[C@:6]1([O:7][H:17])[H:16])([H:8])([H:9])[H:10]>>[C:1]([C:2](=[C:3]([H:12])[H:13])[C@@:6]([C:5](=[C:4]([H:11])[H:14])[H:15])([O:7][H:17])[H:16])([H:8])([H:9])[H:10]"
C        1.97546815      -0.59360471       0.40002152
C        0.62638440       0.01822707       0.18972102
C        0.43240727       1.16669735      -0.63756373
C       -1.50150081       1.34096491       0.31197997
C       -1.79359896       0.04367882       0.25525151
C       -0.59309834      -0.89695129       0.21350447
O       -0.68683803      -1.80419080      -0.87465095
H        2.19403942      -1.33661349      -0.37048362
H        2.76299784       0.16157248       0.37032944
H        2.01904043      -1.10010007       1.36697702
H       -0.04190775       1.06212725       1.05955363
H       -0.03092287       1.12703108      -1.61566694
H        1.18214466       1.95384884      -0.59351252
H       -2.27404612       2.10120870       0.25848070
H       -2.78308275      -0.39755736       0.22726250
H       -0.55661939      -1.53319300       1.10111323
H       -0.93086716      -1.31314577      -1.66231725
17
Frame=12 idx=007819 GeodesicLength=1.240669867553332 rxn_smarts="[C:1]([C@@:2]1([H:11])[C:3]([H:12])([H:13])[C:4]([H:14])=[C:5]([H:15])[C@:6]1([O:7][H:17])[H:16])([H:8])([H:9])[H:10]>>[C:1]([C:2](=[C:3]([H:12])[H:13])[C@@:6]([C:5](=[C:4]([H:11])[H:14])[H:15])([O:7][H:17])[H:16])([H:8])([H:9])[H:10]"
C        1.96961298      -0.59638764       0.38233586
C        0.62191926       0.03143081       0.20815335
C        0.42595199       1.17044009      -0.63407097
C       -1.49468972       1.33996150       0.32085966
C       -1.79764111       0.04512990       0.24184305
C       -0.59647240      -0.89255789       0.22555345
O       -0.66992489      -1.81557396      -0.84974893
H        2.16193514      -1.33948653      -0.39487882
H        2.76457208       0.15001945       0.33648877
H        2.03081352      -1.10602762       1.34673578
H       -0.06597475       1.06446160       1.11811835
H       -0.02499698       1.12051596      -1.61769385
H        1.17086388       1.96235552      -0.59109769
H       -2.26121068       2.10554922       0.25967838
H       -2.78819414      -0.38869368       0.17922135
H       -0.56841146      -1.51695220       1.12184817
H       -0.87815274      -1.33418454      -1.65334590
17
Frame=13 idx=007819 GeodesicLength=1.3444886316172358 rxn_smarts="[C:1]([C@@:2]1([H:11])[C:3]([H:12])([H:13])[C:4]([H:14])=[C:5]([H:15])[C@:6]1([O:7][H:17])[H:16])([H:8])([H:9])[H:10]>>[C:1]([C:2](=[C:3]([H:12])[H:13])[C@@:6]([C:5](=[C:4]([H:11])[H:14])[H:15])([O:7][H:17])[H:16])([H:8])([H:9])[H:10]"
C        1.96323423      -0.59844815       0.36528593
C        0.61776358       0.04456642       0.22553138
C        0.41967439       1.17331036      -0.63251821
C       -1.48670128       1.33872452       0.33073166
C       -1.80070483       0.04685296       0.22869039
C       -0.59961846      -0.88832097       0.23668502
O       -0.65377674      -1.82641675      -0.82554348
H        2.13044051      -1.34181529      -0.41729434
H        2.76491250       0.13944786       0.30344605
H        2.04139801      -1.11066427       1.32715061
H       -0.09151698       1.06396976       1.17794903
H       -0.01996518       1.11338021      -1.62087522
H        1.15924579       1.97040168      -0.59065107
H       -2.24683212       2.10998075       0.26312621
H       -2.79129710      -0.37876376       0.13043156
H       -0.57999968      -1.50125008       1.14109534
H       -0.82625664      -1.35495526      -1.64324086
17
Frame=14 idx=007819 GeodesicLength=1.4482623762765428 rxn_smarts="[C:1]([C@@:2]1([H:11])[C:3]([H:12])([H:13])[C:4]([H:14])=[C:5]([H:15])[C@:6]1([O:7][H:17])[H:16])([H:8])([H:9])[H:10]>>[C:1]([C:2](=[C:3]([H:12])[H:13])[C@@:6]([C:5](=[C:4]([H:11])[H:14])[H:15])([O:7][H:17])[H:16])([H:8])([H:9])[H:10]"
C        1.95641626      -0.59977326       0.34890634
C        0.61388687       0.05771666       0.24187176
C        0.41353705       1.17529775      -0.63294176
C       -1.47751048       1.33725626       0.34162043
C       -1.80283962       0.04890705       0.21584632
C       -0.60253282      -0.88421952       0.24692221
O       -0.63833672      -1.83670968      -0.80207038
H        2.09962598      -1.34369010      -0.43773353
H        2.76415511       0.12984698       0.27120491
H        2.05090897      -1.11392813       1.30832920
H       -0.11877171       1.06037340       1.23916312
H       -0.01591550       1.10557203      -1.62527344
H        1.14726407       1.97795870      -0.59233456
H       -2.23088728       2.11451331       0.26882105
H       -2.79235506      -0.36759040       0.08086826
H       -0.59135050      -1.48609844       1.15888722
H       -0.77529462      -1.37543261      -1.63208713
17
Frame=15 idx=007819 GeodesicLength=1.551976819737796 rxn_smarts="[C:1]([C@@:2]1([H:11])[C:3]([H:12])([H:13])[C:4]([H:14])=[C:5]([H:15])[C@:6]1([O:7][H:17])[H:16])([H:8])([H:9])[H:10]>>[C:1]([C:2](=[C:3]([H:12])[H:13])[C@@:6]([C:5](=[C:4]([H:11])[H:14])[H:15])([O:7][H:17])[H:16])([H:8])([H:9])[H:10]"
C        1.94923425      -0.60035164       0.33322851
C        0.61026469       0.07096014       0.25719099
C        0.40749511       1.17639095      -0.63536829
C       -1.46708940       1.33555810       0.35356980
C       -1.80409325       0.05134614       0.20339608
C       -0.60520843      -0.88023111       0.25630241
O       -0.62354383      -1.84644818      -0.77934116
H        2.06955020      -1.34520190      -0.45618693
H        2.76242607       0.12120098       0.23975524
H        2.05946313      -1.11572956       1.29037641
H       -0.14799425       1.05339555       1.30182681
H       -0.01294539       1.09702499      -1.63094285
H        1.13488828       1.98499252      -0.59632207
H       -2.21334726       2.11915403       0.27678319
H       -2.79128064      -0.35497911       0.03043397
H       -0.60242177      -1.47151014       1.17526797
H       -0.72539752      -1.39557177      -1.61997007
17
Frame=16 idx=007819 GeodesicLength=1.6556299613622432 rxn_smarts="[C:1]([C@@:2]1([H:11])[C:3]([H:12])([H:13])[C:4]([H:14])=[C:5]([H:15])[C@:6]1([O:7][H:17])[H:16])([H:8])([H:9])[H:10]>>[C:1]([C:2](=[C:3]([H:12])[H:13])[C@@:6]([C:5](=[C:4]([H:11])[H:14])[H:15])([O:7][H:17])[H:16])([H:8])([H:9])[H:10]"
C        1.94175884      -0.60017511       0.31827757
C        0.60687531       0.08437033       0.27150638
C        0.40150615       1.17658271      -0.63981191
C       -1.45540627       1.33362768       0.36661147
C       -1.80451410       0.05422593       0.19140978
C       -0.60763922      -0.87633355       0.26486213
O       -0.60933468      -1.85563314      -0.75736455
H        2.04027114      -1.34642537      -0.47265062
H        2.75983787       0.11348883       0.20908972
H        2.06716732      -1.11599568       1.27338123
H       -0.17947594       1.04276204       1.36594260
H       -0.01113400       1.08767877      -1.63792773
H        1.12209452       1.99147197      -0.60276895
H       -2.19417186       2.12390845       0.28700420
H       -2.78798140      -0.34074104      -0.02087301
H       -0.61317521      -1.45749312       1.19028752
H       -0.67667849      -1.41531971      -1.60697583
