16
Frame=0 idx=006460 GeodesicLength=0.0 rxn_smarts="[C:1]([O:2][C:3]([C:4]([H:11])([H:12])[H:13])([C:5]([H:14])([H:15])[H:16])[C:6]#[N:7])([H:8])([H:9])[H:10]>>[C:1](=[O:2])([H:8])[H:10].[C:3]1([C:4]([H:11])([H:12])[H:13])([C:5]([H:14])([H:15])[H:16])[C:6]([H:9])=[N:7]1"
C        2.04978981       0.67136801      -0.57677464
O        1.35723784      -0.36732930      -0.62296125
C       -0.41919086      -0.11547848       0.15471043
C       -1.28992208      -0.22951069      -1.05584473
C       -0.46980632      -1.24298887       1.13304643
C       -0.09906161       1.24065348       0.63760534
N       -1.03397208       1.67796902       1.24368477
H        2.07099215       1.36935674      -1.42447057
H        0.98128482       1.64897331       0.31834761
H        2.84890996       0.77624865       0.16794806
H       -1.10116665      -1.18870195      -1.53869250
H       -1.09720010       0.57273180      -1.76615572
H       -2.34181567      -0.19754813      -0.76478620
H       -1.49207445      -1.40617323       1.47983668
H        0.17414451      -1.06055932       1.99048884
H       -0.13814928      -2.14901108       0.62401746
16
Frame=1 idx=006460 GeodesicLength=0.0844283120530097 rxn_smarts="[C:1]([O:2][C:3]([C:4]([H:11])([H:12])[H:13])([C:5]([H:14])([H:15])[H:16])[C:6]#[N:7])([H:8])([H:9])[H:10]>>[C:1](=[O:2])([H:8])[H:10].[C:3]1([C:4]([H:11])([H:12])[H:13])([C:5]([H:14])([H:15])[H:16])[C:6]([H:9])=[N:7]1"
C        2.05918657       0.66667452      -0.57620931
O        1.35389927      -0.36532103      -0.65101208
C       -0.42478382      -0.10637191       0.15009406
C       -1.30220413      -0.23249621      -1.05563511
C       -0.46379866      -1.23335207       1.13206149
C       -0.11199008       1.24926430       0.63463767
N       -1.05799112       1.67722394       1.22850702
H        2.09522254       1.37980391      -1.41091756
H        1.00659564       1.64303738       0.34562565
H        2.85591024       0.74346085       0.17424749
H       -1.09952012      -1.18716414      -1.54197697
H       -1.12786059       0.57479560      -1.76503598
H       -2.35304959      -0.22155723      -0.75953021
H       -1.48390869      -1.40625153       1.48044953
H        0.17907299      -1.04348437       1.98886959
H       -0.12478046      -2.13826200       0.62582473
16
Frame=2 idx=006460 GeodesicLength=0.16873162374730646 rxn_smarts="[C:1]([O:2][C:3]([C:4]([H:11])([H:12])[H:13])([C:5]([H:14])([H:15])[H:16])[C:6]#[N:7])([H:8])([H:9])[H:10]>>[C:1](=[O:2])([H:8])[H:10].[C:3]1([C:4]([H:11])([H:12])[H:13])([C:5]([H:14])([H:15])[H:16])[C:6]([H:9])=[N:7]1"
C        2.06839111       0.66174061      -0.57542248
O        1.35043166      -0.36260551      -0.67929735
C       -0.43053029      -0.09695423       0.14539366
C       -1.31451174      -0.23551804      -1.05540377
C       -0.45752939      -1.22335936       1.13091139
C       -0.12514286       1.25824944       0.63152158
N       -1.08188132       1.67653434       1.21338455
H        2.11977361       1.38970408      -1.39664798
H        1.03141674       1.63589705       0.37311416
H        2.86212838       0.71003574       0.18031940
H       -1.09791121      -1.18539728      -1.54529394
H       -1.15879374       0.57649526      -1.76382205
H       -2.36384321      -0.24567639      -0.75417668
H       -1.47532363      -1.40631635       1.48091545
H        0.18409754      -1.02592205       1.98712019
H       -0.11077166      -2.12690731       0.62738388
16
Frame=3 idx=006460 GeodesicLength=0.2529071010919042 rxn_smarts="[C:1]([O:2][C:3]([C:4]([H:11])([H:12])[H:13])([C:5]([H:14])([H:15])[H:16])[C:6]#[N:7])([H:8])([H:9])[H:10]>>[C:1](=[O:2])([H:8])[H:10].[C:3]1([C:4]([H:11])([H:12])[H:13])([C:5]([H:14])([H:15])[H:16])[C:6]([H:9])=[N:7]1"
C        2.07735714       0.65656840      -0.57449643
O        1.34693256      -0.35926321      -0.70758320
C       -0.43639507      -0.08725749       0.14070175
C       -1.32670499      -0.23851725      -1.05513299
C       -0.45108860      -1.21307754       1.12963372
C       -0.13848197       1.26752747       0.62846145
N       -1.10565509       1.67583473       1.19844263
H        2.14440209       1.39886665      -1.38190204
H        1.05568029       1.62770471       0.40054414
H        2.86758049       0.67625191       0.18598203
H       -1.09619871      -1.18332012      -1.54865976
H       -1.18976540       0.57791515      -1.76243123
H       -2.37407454      -0.26981832      -0.74879694
H       -1.46642841      -1.40640238       1.48118649
H        0.18906970      -1.00801593       1.98533218
H       -0.09622950      -2.11499678       0.62871822
16
Frame=4 idx=006460 GeodesicLength=0.336978381914657 rxn_smarts="[C:1]([O:2][C:3]([C:4]([H:11])([H:12])[H:13])([C:5]([H:14])([H:15])[H:16])[C:6]#[N:7])([H:8])([H:9])[H:10]>>[C:1](=[O:2])([H:8])[H:10].[C:3]1([C:4]([H:11])([H:12])[H:13])([C:5]([H:14])([H:15])[H:16])[C:6]([H:9])=[N:7]1"
C        2.08604895       0.65116410      -0.57351570
O        1.34348949      -0.35538906      -0.73565883
C       -0.44234449      -0.07731196       0.13610018
C       -1.33865469      -0.24144383      -1.05481432
C       -0.44456561      -1.20256810       1.12826768
C       -0.15199543       1.27702418       0.62564015
N       -1.12934512       1.67506399       1.18378465
H        2.16884832       1.40714544      -1.36691336
H        1.07939873       1.61861543       0.42773520
H        2.87231971       0.64236490       0.19105645
H       -1.09425845      -1.18086795      -1.55208567
H       -1.22055946       0.57912663      -1.76080294
H       -2.38363511      -0.29390876      -0.74347143
H       -1.45733216      -1.40653690       1.48122395
H        0.19385191      -0.98989369       1.98359403
H       -0.08126657      -2.10258441       0.62985997
16
Frame=5 idx=006460 GeodesicLength=0.42087606164204616 rxn_smarts="[C:1]([O:2][C:3]([C:4]([H:11])([H:12])[H:13])([C:5]([H:14])([H:15])[H:16])[C:6]#[N:7])([H:8])([H:9])[H:10]>>[C:1](=[O:2])([H:8])[H:10].[C:3]1([C:4]([H:11])([H:12])[H:13])([C:5]([H:14])([H:15])[H:16])[C:6]([H:9])=[N:7]1"
C        2.09445380       0.64554101      -0.57252676
O        1.34016152      -0.35106779      -0.76340322
C       -0.44835794      -0.06714528       0.13164035
C       -1.35028650      -0.24426727      -1.05444224
C       -0.43802404      -1.19187357       1.12684440
C       -0.16567959       1.28668092       0.62318123
N       -1.15297806       1.67417596       1.16947334
H        2.19297708       1.41449136      -1.35182443
H        1.10261013       1.60872541       0.45453688
H        2.87640274       0.60856497       0.19543239
H       -1.09203161      -1.17800785      -1.55557084
H       -1.25104525       0.58016669      -1.75890747
H       -2.39246913      -0.31789694      -0.73825201
H       -1.44810972      -1.40673493       1.48100219
H        0.19834224      -0.97164836       1.98197178
H       -0.06596566      -2.08970434       0.63084443
16
Frame=6 idx=006460 GeodesicLength=0.5046525096714299 rxn_smarts="[C:1]([O:2][C:3]([C:4]([H:11])([H:12])[H:13])([C:5]([H:14])([H:15])[H:16])[C:6]#[N:7])([H:8])([H:9])[H:10]>>[C:1](=[O:2])([H:8])[H:10].[C:3]1([C:4]([H:11])([H:12])[H:13])([C:5]([H:14])([H:15])[H:16])[C:6]([H:9])=[N:7]1"
C        2.10256844       0.63970806      -0.57158607
O        1.33698572      -0.34636457      -0.79073033
C       -0.45442016      -0.05677266       0.12735570
C       -1.36154784      -0.24697315      -1.05401917
C       -0.43151293      -1.18101919       1.12538971
C       -0.17957081       1.29646461       0.62116132
N       -1.17660928       1.67313378       1.15554295
H        2.21665634       1.42087759      -1.33676485
H        1.12542744       1.59812856       0.48093894
H        2.87990016       0.57496009       0.19902768
H       -1.08946865      -1.17471972      -1.55911790
H       -1.28113453       0.58105790      -1.75673660
H       -2.40053586      -0.34176294      -0.73318832
H       -1.43881588      -1.40700206       1.48051371
H        0.20247450      -0.95333465       1.98051016
H       -0.05039667      -2.07638167       0.63170305
16
Frame=7 idx=006460 GeodesicLength=0.588316331009251 rxn_smarts="[C:1]([O:2][C:3]([C:4]([H:11])([H:12])[H:13])([C:5]([H:14])([H:15])[H:16])[C:6]#[N:7])([H:8])([H:9])[H:10]>>[C:1](=[O:2])([H:8])[H:10].[C:3]1([C:4]([H:11])([H:12])[H:13])([C:5]([H:14])([H:15])[H:16])[C:6]([H:9])=[N:7]1"
C        2.11039168       0.63367747      -0.57073462
O        1.33398908      -0.34133533      -0.81759019
C       -0.46052135      -0.04620462       0.12326567
C       -1.37240450      -0.24955555      -1.05354966
C       -0.42506838      -1.17001766       1.12392474
C       -0.19370960       1.30635448       0.61962455
N       -1.20029073       1.67191138       1.14200821
H        2.23978188       1.42631385      -1.32182385
H        1.14797327       1.58686542       0.50697810
H        2.88288844       0.54162590       0.20177144
H       -1.08654121      -1.17099594      -1.56272571
H       -1.31076961       0.58180413      -1.75429621
H       -2.40781109      -0.36549454      -0.72832181
H       -1.42949177      -1.40733274       1.47975722
H        0.20619779      -0.93498394       1.97924474
H       -0.03461393      -2.06263231       0.63246738
16
Frame=8 idx=006460 GeodesicLength=0.6718881702305424 rxn_smarts="[C:1]([O:2][C:3]([C:4]([H:11])([H:12])[H:13])([C:5]([H:14])([H:15])[H:16])[C:6]#[N:7])([H:8])([H:9])[H:10]>>[C:1](=[O:2])([H:8])[H:10].[C:3]1([C:4]([H:11])([H:12])[H:13])([C:5]([H:14])([H:15])[H:16])[C:6]([H:9])=[N:7]1"
C        2.11792961       0.62746270      -0.56999854
O        1.33118409      -0.33602507      -0.84397095
C       -0.46665883      -0.03544665       0.11937776
C       -1.38284416      -0.25201536      -1.05304007
C       -0.41871697      -1.15887017       1.12246796
C       -0.20814387       1.31633716       0.61858794
N       -1.22407620       1.67048668       1.12886571
H        2.26230670       1.43085310      -1.30705444
H        1.17037896       1.57492993       0.53271538
H        2.88544687       0.50860352       0.20361218
H       -1.08324366      -1.16684245      -1.56638580
H       -1.33993315       0.58239592      -1.75160526
H       -2.41428760      -0.38908894      -0.72368025
H       -1.42016178      -1.40771627       1.47873403
H        0.20947457      -0.91660799       1.97820165
H       -0.01865459      -2.04845611       0.63317272
16
Frame=9 idx=006460 GeodesicLength=0.7552238949415073 rxn_smarts="[C:1]([O:2][C:3]([C:4]([H:11])([H:12])[H:13])([C:5]([H:14])([H:15])[H:16])[C:6]#[N:7])([H:8])([H:9])[H:10]>>[C:1](=[O:2])([H:8])[H:10].[C:3]1([C:4]([H:11])([H:12])[H:13])([C:5]([H:14])([H:15])[H:16])[C:6]([H:9])=[N:7]1"
C        2.12522551       0.62108705      -0.56940518
O        1.32856879      -0.33046942      -0.86988550
C       -0.47283060      -0.02450898       0.11568717
C       -1.39289370      -0.25437294      -1.05249248
C       -0.41247880      -1.14758165       1.12102813
C       -0.22287957       1.32640359       0.61801906
N       -1.24796520       1.66885201       1.11610278
H        2.28431471       1.43458513      -1.29248553
H        1.19270922       1.56232997       0.55822518
H        2.88761142       0.47592059       0.20457730
H       -1.07957920      -1.16226720      -1.57010321
H       -1.36869645       0.58280778      -1.74871590
H       -2.41999276      -0.41256789      -0.71923852
H       -1.41085739      -1.40813121       1.47747725
H        0.21230412      -0.89820933       1.97738310
H       -0.00256011      -2.03387751       0.63382635
16
Frame=10 idx=006460 GeodesicLength=0.8385020639589733 rxn_smarts="[C:1]([O:2][C:3]([C:4]([H:11])([H:12])[H:13])([C:5]([H:14])([H:15])[H:16])[C:6]#[N:7])([H:8])([H:9])[H:10]>>[C:1](=[O:2])([H:8])[H:10].[C:3]1([C:4]([H:11])([H:12])[H:13])([C:5]([H:14])([H:15])[H:16])[C:6]([H:9])=[N:7]1"
C        2.13224711       0.61455301      -0.56897956
O        1.32615655      -0.32470298      -0.89531354
C       -0.47903540      -0.01337722       0.11220129
C       -1.40250729      -0.25661793      -1.05192072
C       -0.40637163      -1.13613264       1.11962530
C       -0.23801261       1.33656410       0.61795164
N       -1.27206334       1.66698588       1.10370617
H        2.30560757       1.43752742      -1.27816863
H        1.21515770       1.54898582       0.58362914
H        2.88949972       0.44357682       0.20454464
H       -1.07553626      -1.15727844      -1.57385994
H       -1.39696385       0.58303807      -1.74561793
H       -2.42488607      -0.43591659      -0.71507033
H       -1.40158219      -1.40856960       1.47596552
H        0.21463457      -0.87977169       1.97682538
H        0.01365542      -2.01886401       0.63448155
16
Frame=11 idx=006460 GeodesicLength=0.9217499270518359 rxn_smarts="[C:1]([O:2][C:3]([C:4]([H:11])([H:12])[H:13])([C:5]([H:14])([H:15])[H:16])[C:6]#[N:7])([H:8])([H:9])[H:10]>>[C:1](=[O:2])([H:8])[H:10].[C:3]1([C:4]([H:11])([H:12])[H:13])([C:5]([H:14])([H:15])[H:16])[C:6]([H:9])=[N:7]1"
C        2.13901585       0.60787945      -0.56872137
O        1.32394252      -0.31876311      -0.92029466
C       -0.48527472      -0.00204758       0.10890861
C       -1.41170382      -0.25875988      -1.05133390
C       -0.40040269      -1.12450621       1.11826942
C       -0.25359259       1.34682183       0.61836644
N       -1.29641383       1.66487182       1.09165917
H        2.32619265       1.43977572      -1.26409346
H        1.23784961       1.53481254       0.60899385
H        2.89118590       0.41157084       0.20350409
H       -1.07114255      -1.15190179      -1.57764042
H       -1.42476340       0.58306436      -1.74235497
H       -2.42899158      -0.45913984      -0.71117848
H       -1.39233598      -1.40901082       1.47420712
H        0.21644777      -0.86127657       1.97654037
H        0.02998685      -2.00339077       0.63516819
16
Frame=12 idx=006460 GeodesicLength=1.0049295994712495 rxn_smarts="[C:1]([O:2][C:3]([C:4]([H:11])([H:12])[H:13])([C:5]([H:14])([H:15])[H:16])[C:6]#[N:7])([H:8])([H:9])[H:10]>>[C:1](=[O:2])([H:8])[H:10].[C:3]1([C:4]([H:11])([H:12])[H:13])([C:5]([H:14])([H:15])[H:16])[C:6]([H:9])=[N:7]1"
C        2.14552484       0.60108208      -0.56866681
O        1.32193609      -0.31268790      -0.94479720
C       -0.49154696       0.00948614       0.10581706
C       -1.42045856      -0.26079951      -1.05074213
C       -0.39460043      -1.11269567       1.11697924
C       -0.26966237       1.35718014       0.61926902
N       -1.32105855       1.66250038       1.07994980
H        2.34597110       1.44137945      -1.25032097
H        1.26089947       1.51973434       0.63443315
H        2.89276752       0.37993477       0.20137283
H       -1.06637931      -1.14613993      -1.58143846
H       -1.45205165       0.58287761      -1.73894422
H       -2.43229099      -0.48223496      -0.70759500
H       -1.38315230      -1.40944428       1.47220643
H        0.21770202      -0.84271363       1.97655718
H        0.04640008      -1.98745905       0.63592008
16
Frame=13 idx=006460 GeodesicLength=1.0880569816324281 rxn_smarts="[C:1]([O:2][C:3]([C:4]([H:11])([H:12])[H:13])([C:5]([H:14])([H:15])[H:16])[C:6]#[N:7])([H:8])([H:9])[H:10]>>[C:1](=[O:2])([H:8])[H:10].[C:3]1([C:4]([H:11])([H:12])[H:13])([C:5]([H:14])([H:15])[H:16])[C:6]([H:9])=[N:7]1"
C        2.15178711       0.59418754      -0.56882876
O        1.32014026      -0.30652510      -0.96883163
C       -0.49785330       0.02122863       0.10292451
C       -1.42877447      -0.26273971      -1.05015489
C       -0.38898728      -1.10068568       1.11577372
C       -0.28626843       1.36763946       0.62065051
N       -1.34603960       1.65985380       1.06855909
H        2.36489637       1.44243422      -1.23687056
H        1.28443483       1.50362496       0.66003433
H        2.89435561       0.34869900       0.19809206
H       -1.06125688      -1.14001385      -1.58523638
H       -1.47882027       0.58246063      -1.73542549
H       -2.43479383      -0.50519417      -0.70433399
H       -1.37405224      -1.40985090       1.46996546
H        0.21835438      -0.82406879       1.97690313
H        0.06287775      -1.97105004       0.63677890
16
Frame=14 idx=006460 GeodesicLength=1.1711235161544347 rxn_smarts="[C:1]([O:2][C:3]([C:4]([H:11])([H:12])[H:13])([C:5]([H:14])([H:15])[H:16])[C:6]#[N:7])([H:8])([H:9])[H:10]>>[C:1](=[O:2])([H:8])[H:10].[C:3]1([C:4]([H:11])([H:12])[H:13])([C:5]([H:14])([H:15])[H:16])[C:6]([H:9])=[N:7]1"
C        2.15781639       0.58722930      -0.56923251
O        1.31856613      -0.30032526      -0.99238517
C       -0.50419301       0.03318307       0.10023396
C       -1.43664295      -0.26458376      -1.04957983
C       -0.38359720      -1.08846644       1.11467545
C       -0.30345206       1.37819765       0.62250403
N       -1.37139059       1.65691759       1.05746848
H        2.38289743       1.44303556      -1.22378670
H        1.30857938       1.48634086       0.68590243
H        2.89607849       0.31791329       0.19357765
H       -1.05576952      -1.13353842      -1.58901970
H       -1.50505542       0.58179891      -1.73183751
H       -2.43649984      -0.52800422      -0.70141695
H       -1.36507403      -1.41021213       1.46749010
H        0.21834737      -0.80533027       1.97761475
H        0.07938943      -1.95415572       0.63779152
16
Frame=15 idx=006460 GeodesicLength=1.2541134493292974 rxn_smarts="[C:1]([O:2][C:3]([C:4]([H:11])([H:12])[H:13])([C:5]([H:14])([H:15])[H:16])[C:6]#[N:7])([H:8])([H:9])[H:10]>>[C:1](=[O:2])([H:8])[H:10].[C:3]1([C:4]([H:11])([H:12])[H:13])([C:5]([H:14])([H:15])[H:16])[C:6]([H:9])=[N:7]1"
C        2.16362743       0.58024293      -0.56990617
O        1.31722627      -0.29414698      -1.01543757
C       -0.51056372       0.04535408       0.09775099
C       -1.44405012      -0.26633138      -1.04902659
C       -0.37846861      -1.07602762       1.11371032
C       -0.32125284       1.38885292       0.62482574
N       -1.39714431       1.65367689       1.04666061
H        2.39987523       1.44328463      -1.21111946
H        1.33345781       1.46771783       0.71214081
H        2.89808074       0.28763676       0.18773282
H       -1.04990846      -1.12672918      -1.59277162
H       -1.53072860       0.58087852      -1.72821946
H       -2.43740438      -0.55064537      -0.69886909
H       -1.35626319      -1.41050782       1.46478385
H        0.21761569      -0.78648685       1.97873408
H        0.09590107      -1.93676935       0.63901078
16
Frame=16 idx=006460 GeodesicLength=1.3370087536542528 rxn_smarts="[C:1]([O:2][C:3]([C:4]([H:11])([H:12])[H:13])([C:5]([H:14])([H:15])[H:16])[C:6]#[N:7])([H:8])([H:9])[H:10]>>[C:1](=[O:2])([H:8])[H:10].[C:3]1([C:4]([H:11])([H:12])[H:13])([C:5]([H:14])([H:15])[H:16])[C:6]([H:9])=[N:7]1"
C        2.16923566       0.57327455      -0.57088013
O        1.31614044      -0.28806626      -1.03795853
C       -0.51696325       0.05774292       0.09548442
C       -1.45098172      -0.26798047      -1.04850473
C       -0.37365210      -1.06336271       1.11291069
C       -0.33970643       1.39959748       0.62761513
N       -1.42332760       1.65011662       1.03611603
H        2.41572570       1.44330541      -1.19893409
H        1.35919920       1.44755889       0.73884940
H        2.90053902       0.25795903       0.18044134
H       -1.04366320      -1.11960466      -1.59647221
H       -1.55580234       0.57968936      -1.72461557
H       -2.43750794      -0.57309027      -0.69671773
H       -1.34768098      -1.41071822       1.46185189
H        0.21607724      -0.76753318       1.98031477
H        0.11236830      -1.91888850       0.64049933
