15
Frame=0 idx=007677 GeodesicLength=0.0 rxn_smarts="[C:1]([C@@:2]1([H:11])[C@@:3]2([H:12])[O:4][C@@:5]2([H:13])[C@:6]1([O:7][H:15])[H:14])([H:8])([H:9])[H:10]>>[C:1](=[C:2]([C@@:3]1([H:12])[O:4][C@:5]1([C:6][O:7][H:15])[H:13])[H:11])([H:8])[H:9].[H:10][H:14]"
C        1.67464072      -0.45363526       0.23427619
C        0.55057165       0.38259765       0.36969251
C       -0.17968220       1.39772422      -0.56454574
O       -0.83773053       0.84376182      -1.68678422
C       -1.48841062       0.81333113      -0.38573815
C       -0.82844528      -0.39667166       0.27974532
O       -0.90867795      -1.50937355      -0.47694333
H        2.57279324      -0.28857106       0.81299114
H        1.72443162      -1.17788769      -0.56932876
H        0.76124743      -1.51970460       1.40846785
H        0.56274636       0.91653083       1.32421774
H        0.12812192       2.43312469      -0.63304659
H       -2.47643519       1.24186517      -0.30664247
H       -0.05529835      -1.41389923       1.56216453
H       -1.19987282      -1.26919239      -1.36852597
15
Frame=1 idx=007677 GeodesicLength=0.11103194093091237 rxn_smarts="[C:1]([C@@:2]1([H:11])[C@@:3]2([H:12])[O:4][C@@:5]2([H:13])[C@:6]1([O:7][H:15])[H:14])([H:8])([H:9])[H:10]>>[C:1](=[C:2]([C@@:3]1([H:12])[O:4][C@:5]1([C:6][O:7][H:15])[H:13])[H:11])([H:8])[H:9].[H:10][H:14]"
C        1.67104002      -0.45924523       0.23101250
C        0.55518650       0.38713462       0.37555450
C       -0.17595274       1.39569487      -0.55695941
O       -0.82159062       0.83757246      -1.68391913
C       -1.48658849       0.80762009      -0.39134918
C       -0.84876334      -0.40448916       0.28890066
O       -0.93321318      -1.51686938      -0.46808268
H        2.58090679      -0.28672865       0.78927405
H        1.71663435      -1.15733907      -0.59599192
H        0.76059212      -1.51845005       1.41904263
H        0.57574882       0.91773471       1.33170280
H        0.12083165       2.43464283      -0.62163871
H       -2.47195413       1.24356142      -0.31880461
H       -0.07552911      -1.40675930       1.57692082
H       -1.16734863      -1.27408015      -1.37566232
15
Frame=2 idx=007677 GeodesicLength=0.2220729281721377 rxn_smarts="[C:1]([C@@:2]1([H:11])[C@@:3]2([H:12])[O:4][C@@:5]2([H:13])[C@:6]1([O:7][H:15])[H:14])([H:8])([H:9])[H:10]>>[C:1](=[C:2]([C@@:3]1([H:12])[O:4][C@:5]1([C:6][O:7][H:15])[H:13])[H:11])([H:8])[H:9].[H:10][H:14]"
C        1.66754054      -0.46491032       0.22772262
C        0.56023280       0.39182371       0.38130742
C       -0.17219682       1.39359460      -0.54943343
O       -0.80564977       0.83126629      -1.68082165
C       -1.48457743       0.80186613      -0.39673312
C       -0.86941421      -0.41244650       0.29758889
O       -0.95756287      -1.52391911      -0.46066292
H        2.58851436      -0.28506657       0.76555289
H        1.70924162      -1.13574040      -0.62212349
H        0.75990197      -1.51747047       1.42903197
H        0.58902287       0.91882895       1.33912945
H        0.11358693       2.43592359      -0.61064098
H       -2.46717301       1.24521828      -0.33056069
H       -0.09674464      -1.39937239       1.59137901
H       -1.13472235      -1.27959579      -1.38073598
15
Frame=3 idx=007677 GeodesicLength=0.3331207048029316 rxn_smarts="[C:1]([C@@:2]1([H:11])[C@@:3]2([H:12])[O:4][C@@:5]2([H:13])[C@:6]1([O:7][H:15])[H:14])([H:8])([H:9])[H:10]>>[C:1](=[C:2]([C@@:3]1([H:12])[O:4][C@:5]1([C:6][O:7][H:15])[H:13])[H:11])([H:8])[H:9].[H:10][H:14]"
C        1.66417880      -0.47058244       0.22435639
C        0.56572960       0.39666968       0.38693217
C       -0.16841998       1.39141935      -0.54196567
O       -0.78992662       0.82484733      -1.67749364
C       -1.48238565       0.79606157      -0.40187266
C       -0.89040415      -0.42057368       0.30577505
O       -0.98167403      -1.53057287      -0.45469025
H        2.59562614      -0.28360027       0.74189482
H        1.70231426      -1.11317415      -0.64761940
H        0.75925672      -1.51675330       1.43840980
H        0.60258519       0.91981341       1.34648249
H        0.10637445       2.43697160      -0.60003887
H       -2.46210799       1.24681586      -0.34189243
H       -0.11894105      -1.39166574       1.60556908
H       -1.10220570      -1.28567634      -1.38384686
15
Frame=4 idx=007677 GeodesicLength=0.44418003095121367 rxn_smarts="[C:1]([C@@:2]1([H:11])[C@@:3]2([H:12])[O:4][C@@:5]2([H:13])[C@:6]1([O:7][H:15])[H:14])([H:8])([H:9])[H:10]>>[C:1](=[C:2]([C@@:3]1([H:12])[O:4][C@:5]1([C:6][O:7][H:15])[H:13])[H:11])([H:8])[H:9].[H:10][H:14]"
C        1.66099011      -0.47621041       0.22086128
C        0.57169629       0.40168042       0.39241161
C       -0.16462995       1.38916809      -0.53454963
O       -0.77443856       0.81832269      -1.67393747
C       -1.48002549       0.79019643      -0.40675164
C       -0.91174454      -0.42889946       0.31342924
O       -1.00550567      -1.53688085      -0.45015890
H        2.60226381      -0.28234667       0.71836676
H        1.69589652      -1.08974115      -0.67239178
H        0.75873702      -1.51628922       1.44714641
H        0.61645697       0.92069009       1.35374988
H        0.09917848       2.43779435      -0.58981122
H       -2.45678120       1.24833022      -0.35278647
H       -0.14212097      -1.38355375       1.61952969
H       -1.06997281      -1.29226076      -1.38510775
15
Frame=5 idx=007677 GeodesicLength=0.555249098662284 rxn_smarts="[C:1]([C@@:2]1([H:11])[C@@:3]2([H:12])[O:4][C@@:5]2([H:13])[C@:6]1([O:7][H:15])[H:14])([H:8])([H:9])[H:10]>>[C:1](=[C:2]([C@@:3]1([H:12])[O:4][C@:5]1([C:6][O:7][H:15])[H:13])[H:11])([H:8])[H:9].[H:10][H:14]"
C        1.65800244      -0.48174457       0.21718602
C        0.57814949       0.40686581       0.39773102
C       -0.16083656       1.38684097      -0.52717386
O       -0.75919720       0.81169981      -1.67015041
C       -1.47750735       0.78425980      -0.41135492
C       -0.93344787      -0.43745037       0.32052494
O       -1.02901939      -1.54289162      -0.44705176
H        2.60845187      -0.28132514       0.69503106
H        1.69001149      -1.06554715      -0.69637403
H        0.75842578      -1.51607005       1.45520902
H        0.63065788       0.92146308       1.36091897
H        0.09197855       2.43839976      -0.57993163
H       -2.45121085       1.24973793      -0.36323354
H       -0.16629871      -1.37494256       1.63329914
H       -1.03815956      -1.29929569      -1.38463001
15
Frame=6 idx=007677 GeodesicLength=0.6663313540517601 rxn_smarts="[C:1]([C@@:2]1([H:11])[C@@:3]2([H:12])[O:4][C@@:5]2([H:13])[C@:6]1([O:7][H:15])[H:14])([H:8])([H:9])[H:10]>>[C:1](=[C:2]([C@@:3]1([H:12])[O:4][C@:5]1([C:6][O:7][H:15])[H:13])[H:11])([H:8])[H:9].[H:10][H:14]"
C        1.65524450      -0.48714197       0.21328196
C        0.58510663       0.41223587       0.40288003
C       -0.15705280       1.38443923      -0.51982502
O       -0.74421487       0.80498625      -1.66613472
C       -1.47484959       0.77824249      -0.41566984
C       -0.95553583      -0.44624803       0.32704453
O       -1.05219424      -1.54864902      -0.44534129
H        2.61422973      -0.28056002       0.67194983
H        1.68467943      -1.04069195      -0.71953294
H        0.75839967      -1.51610490       1.46255390
H        0.64521211       0.92213629       1.36798502
H        0.08475124       2.43879585      -0.57037127
H       -2.44542695       1.25102034      -0.37323192
H       -0.19149773      -1.36572255       1.64693646
H       -1.00685130      -1.30673789      -1.38252473
15
Frame=7 idx=007677 GeodesicLength=0.7774195283071232 rxn_smarts="[C:1]([C@@:2]1([H:11])[C@@:3]2([H:12])[O:4][C@@:5]2([H:13])[C@:6]1([O:7][H:15])[H:14])([H:8])([H:9])[H:10]>>[C:1](=[C:2]([C@@:3]1([H:12])[O:4][C@:5]1([C:6][O:7][H:15])[H:13])[H:11])([H:8])[H:9].[H:10][H:14]"
C        1.65273642      -0.49235973       0.20910520
C        0.59258254       0.41780122       0.40785051
C       -0.15329008       1.38196308      -0.51248404
O       -0.72949663       0.79818907      -1.66188444
C       -1.47206406       0.77213209      -0.41968311
C       -0.97802988      -0.45531564       0.33296887
O       -1.07500601      -1.55419545      -0.44499954
H        2.61963825      -0.28006307       0.64916848
H        1.67990089      -1.01527828      -0.74184606
H        0.75873348      -1.51640581       1.46913400
H        0.66014062       0.92271274       1.37494172
H        0.07747400       2.43898868      -0.56109480
H       -2.43944910       1.25215533      -0.38278219
H       -0.21775975      -1.35577472       1.66049474
H       -0.97611069      -1.31454950      -1.37888935
15
Frame=8 idx=007677 GeodesicLength=0.8885117856744243 rxn_smarts="[C:1]([C@@:2]1([H:11])[C@@:3]2([H:12])[O:4][C@@:5]2([H:13])[C@:6]1([O:7][H:15])[H:14])([H:8])([H:9])[H:10]>>[C:1](=[C:2]([C@@:3]1([H:12])[O:4][C@:5]1([C:6][O:7][H:15])[H:13])[H:11])([H:8])[H:9].[H:10][H:14]"
C        1.65049884      -0.49735874       0.20461832
C        0.60059159       0.42357183       0.41263877
C       -0.14956015       1.37941289      -0.50512870
O       -0.71504415       0.79131684      -1.65739402
C       -1.46916348       0.76591604      -0.42338206
C       -1.00095540      -0.46467740       0.33827900
O       -1.09742896      -1.55957194      -0.44600055
H        2.62473064      -0.27983538       0.62671532
H        1.67566891      -0.98941436      -0.76330500
H        0.75950376      -1.51699574       1.47490499
H        0.67546182       0.92319326       1.38178917
H        0.07012336       2.43898436      -0.55206285
H       -2.43329869       1.25312257      -0.39188780
H       -0.24514648      -1.34496696       1.67403020
H       -0.94598161      -1.32269726      -1.37381480
15
Frame=9 idx=007677 GeodesicLength=0.9996060464599101 rxn_smarts="[C:1]([C@@:2]1([H:11])[C@@:3]2([H:12])[O:4][C@@:5]2([H:13])[C@:6]1([O:7][H:15])[H:14])([H:8])([H:9])[H:10]>>[C:1](=[C:2]([C@@:3]1([H:12])[O:4][C@:5]1([C:6][O:7][H:15])[H:13])[H:11])([H:8])[H:9].[H:10][H:14]"
C        1.64854280      -0.50210501       0.19978761
C        0.60915003       0.42955533       0.41724376
C       -0.14586864       1.37678084      -0.49773220
O       -0.70085367       0.78436717      -1.65265120
C       -1.46615546       0.75957613      -0.42675437
C       -1.02434283      -0.47435451       0.34295952
O       -1.11945210      -1.56481353      -0.44831206
H        2.62955385      -0.27987612       0.60461614
H        1.67197057      -0.96315296      -0.78393309
H        0.76077453      -1.51790148       1.47979325
H        0.69120227       0.92357450       1.38852680
H        0.06268764       2.43877680      -0.54323277
H       -2.42698755       1.25389773      -0.40055638
H       -0.27374396      -1.33315679       1.68761497
H       -0.91647748      -1.33116809      -1.36736999
15
Frame=10 idx=007677 GeodesicLength=1.1107077043130131 rxn_smarts="[C:1]([C@@:2]1([H:11])[C@@:3]2([H:12])[O:4][C@@:5]2([H:13])[C@:6]1([O:7][H:15])[H:14])([H:8])([H:9])[H:10]>>[C:1](=[C:2]([C@@:3]1([H:12])[O:4][C@:5]1([C:6][O:7][H:15])[H:13])[H:11])([H:8])[H:9].[H:10][H:14]"
C        1.64689331      -0.50656810       0.19459007
C        0.61827294       0.43575743       0.42166948
C       -0.14222657       1.37406519      -0.49026613
O       -0.68692180       0.77735266      -1.64765006
C       -1.46305251       0.75309749      -0.42978709
C       -1.04822336      -0.48437737       0.34698562
O       -1.14103519      -1.56996265      -0.45191789
H        2.63418257      -0.28016181       0.58286056
H        1.66879167      -0.93660616      -0.80374085
H        0.76263073      -1.51916712       1.48376578
H        0.70737589       0.92384793       1.39516628
H        0.05514407       2.43836953      -0.53455788
H       -2.42053831       1.25446044      -0.40879270
H       -0.30366344      -1.32017570       1.70130897
H       -0.88763000      -1.33993175      -1.35963414
15
Frame=11 idx=007677 GeodesicLength=1.2218112987424758 rxn_smarts="[C:1]([C@@:2]1([H:11])[C@@:3]2([H:12])[O:4][C@@:5]2([H:13])[C@:6]1([O:7][H:15])[H:14])([H:8])([H:9])[H:10]>>[C:1](=[C:2]([C@@:3]1([H:12])[O:4][C@:5]1([C:6][O:7][H:15])[H:13])[H:11])([H:8])[H:9].[H:10][H:14]"
C        1.64556485      -0.51072104       0.18900383
C        0.62797630       0.44218086       0.42592121
C       -0.13863896       1.37125495      -0.48269586
O       -0.67323888       0.77027401      -1.64237423
C       -1.45985938       0.74645837      -0.43246582
C       -1.07263102      -0.49477426       0.35033431
O       -1.16214943      -1.57505686      -0.45679511
H        2.63867707      -0.28066576       0.56143078
H        1.66611054      -0.90983332      -0.82276336
H        0.76514623      -1.52084337       1.48675480
H        0.72400313       0.92399953       1.40171590
H        0.04748037       2.43775312      -0.52598596
H       -2.41395958       1.25478524      -0.41660356
H       -0.33504450      -1.30583427       1.71518353
H       -0.85943675      -1.34897720      -1.35066046
15
Frame=12 idx=007677 GeodesicLength=1.3329146608778768 rxn_smarts="[C:1]([C@@:2]1([H:11])[C@@:3]2([H:12])[O:4][C@@:5]2([H:13])[C@:6]1([O:7][H:15])[H:14])([H:8])([H:9])[H:10]>>[C:1](=[C:2]([C@@:3]1([H:12])[O:4][C@:5]1([C:6][O:7][H:15])[H:13])[H:11])([H:8])[H:9].[H:10][H:14]"
C        1.64457722      -0.51453895       0.18301029
C        0.63827720       0.44882527       0.43000794
C       -0.13511061       1.36833734      -0.47498296
O       -0.65979316       0.76313275      -1.63680715
C       -1.45658146       0.73963522      -0.43477527
C       -1.09760366      -0.50557613       0.35298027
O       -1.18276145      -1.58013413      -0.46292439
H        2.64310578      -0.28134935       0.54028859
H        1.66390605      -0.88289444      -0.84104147
H        0.76840187      -1.52299895       1.48868751
H        0.74110325       0.92400795       1.40819074
H        0.03968347       2.43691654      -0.51745900
H       -2.40726185       1.25484619      -0.42399705
H       -0.36805781      -1.28991244       1.72931359
H       -0.83188485      -1.35829687      -1.34049164
15
Frame=13 idx=007677 GeodesicLength=1.4440172968986236 rxn_smarts="[C:1]([C@@:2]1([H:11])[C@@:3]2([H:12])[O:4][C@@:5]2([H:13])[C@:6]1([O:7][H:15])[H:14])([H:8])([H:9])[H:10]>>[C:1](=[C:2]([C@@:3]1([H:12])[O:4][C@:5]1([C:6][O:7][H:15])[H:13])[H:11])([H:8])[H:9].[H:10][H:14]"
C        1.64395370      -0.51799845       0.17659241
C        0.64919380       0.45568631       0.43394165
C       -0.13164484       1.36529540      -0.46708407
O       -0.64656973       0.75592851      -1.63092864
C       -1.45322200       0.73260083      -0.43669850
C       -1.12318094      -0.51681647       0.35489521
O       -1.20283205      -1.58523303      -0.47028741
H        2.64753910      -0.28216428       0.51937865
H        1.66215591      -0.85583855      -0.85862324
H        0.77248928      -1.52571802       1.48947950
H        0.75869534       0.92384296       1.41461010
H        0.03174093       2.43584422      -0.50891223
H       -2.40045263       1.25461469      -0.43098194
H       -0.40291244      -1.27215481       1.74377455
H       -0.80495345      -1.36788929      -1.32915605
15
Frame=14 idx=007677 GeodesicLength=1.555119152985706 rxn_smarts="[C:1]([C@@:2]1([H:11])[C@@:3]2([H:12])[O:4][C@@:5]2([H:13])[C@:6]1([O:7][H:15])[H:14])([H:8])([H:9])[H:10]>>[C:1](=[C:2]([C@@:3]1([H:12])[O:4][C@:5]1([C:6][O:7][H:15])[H:13])[H:11])([H:8])[H:9].[H:10][H:14]"
C        1.64372320      -0.52107502       0.16973344
C        0.66074554       0.46275534       0.43773752
C       -0.12824335       1.36210730      -0.45894987
O       -0.63355130       0.74865901      -1.62471412
C       -1.44978194       0.72532260      -0.43821552
C       -1.14940378      -0.52853305       0.35604693
O       -1.22231352      -1.59039489      -0.47886687
H        2.65205037      -0.28304883       0.49862806
H        1.66083683      -0.82870942      -0.87556146
H        0.77751390      -1.52910438       1.48903191
H        0.77679767       0.92346405       1.42099819
H        0.02364173       2.43451525      -0.50027257
H       -2.39353622       1.25405726      -0.43756554
H       -0.43986195      -1.25225871       1.75863861
H       -0.77861718      -1.37775651      -1.31666871
15
Frame=15 idx=007677 GeodesicLength=1.6662213655757008 rxn_smarts="[C:1]([C@@:2]1([H:11])[C@@:3]2([H:12])[O:4][C@@:5]2([H:13])[C@:6]1([O:7][H:15])[H:14])([H:8])([H:9])[H:10]>>[C:1](=[C:2]([C@@:3]1([H:12])[O:4][C@:5]1([C:6][O:7][H:15])[H:13])[H:11])([H:8])[H:9].[H:10][H:14]"
C        1.64392126      -0.52374363       0.16241438
C        0.67295307       0.47001790       0.44141417
C       -0.12490649       1.35874523      -0.45052501
O       -0.62071816       0.74131837      -1.61813430
C       -1.44626015       0.71776280      -0.43930334
C       -1.17631386      -0.54076618       0.35640148
O       -1.24115154      -1.59566244      -0.48864224
H        2.65671462      -0.28393137       0.47794973
H        1.65992737      -0.80153519      -0.89191724
H        0.78360170      -1.53328443       1.48722360
H        0.79542799       0.92281706       1.42738482
H        0.01537499       2.43290246      -0.49145852
H       -2.38651381       1.25313650      -0.44375478
H       -0.47921389      -1.22986777       1.77397312
H       -0.75284310      -1.38790931      -1.30302587
15
Frame=16 idx=007677 GeodesicLength=1.7773253719015565 rxn_smarts="[C:1]([C@@:2]1([H:11])[C@@:3]2([H:12])[O:4][C@@:5]2([H:13])[C@:6]1([O:7][H:15])[H:14])([H:8])([H:9])[H:10]>>[C:1](=[C:2]([C@@:3]1([H:12])[O:4][C@:5]1([C:6][O:7][H:15])[H:13])[H:11])([H:8])[H:9].[H:10][H:14]"
C        1.64459360      -0.52597572       0.15461326
C        0.68583834       0.47745267       0.44499443
C       -0.12163311       1.35517444      -0.44174622
O       -0.60804864       0.73389766      -1.61115387
C       -1.44265336       0.70987639      -0.43993437
C       -1.20395242      -0.55356096       0.35592249
O       -1.25928037      -1.60108306      -0.49958857
H        2.66161214      -0.28472287       0.45723892
H        1.65940676      -0.77433910      -0.90775605
H        0.79090525      -1.53841311       1.48390708
H        0.81460153       0.92183083       1.43380699
H        0.00693022       2.43097133      -0.48237693
H       -2.37938361       1.25180809      -0.44955439
H       -0.52134068      -1.20455402       1.78983334
H       -0.72759564      -1.39836258      -1.28820609
