11
Frame=0 idx=002709 GeodesicLength=0.0 rxn_smarts="[C@:1]12([H:7])[C@:2]3([H:8])[C@@:3]1([H:9])[N:4]1[C@@:5]2([H:10])[C@:6]31[H:11]>>[C@:1]12([H:7])[C:2]([H:8])=[C:6]([H:11])[N:4]3[C@@:3]1([H:9])[C@:5]23[H:10]"
C        0.05045413       0.93302655       0.26634913
C        1.07732180      -0.11969744       0.56485228
C        0.12351025       0.47585382      -1.12203340
N       -0.56305270      -0.80540270      -0.80896515
C       -1.15334498      -0.02101890       0.26855218
C        0.24497136      -1.22641234       0.29709325
H        0.10271879       1.95588467       0.61638921
H        2.00833532      -0.03505990       1.10336513
H        0.00581605       0.98367816      -2.07622341
H       -2.22877226       0.13814980       0.36421063
H        0.33204229      -2.27900174       0.52641010
11
Frame=1 idx=002709 GeodesicLength=0.03698659351641755 rxn_smarts="[C@:1]12([H:7])[C@:2]3([H:8])[C@@:3]1([H:9])[N:4]1[C@@:5]2([H:10])[C@:6]31[H:11]>>[C@:1]12([H:7])[C:2]([H:8])=[C:6]([H:11])[N:4]3[C@@:3]1([H:9])[C@:5]23[H:10]"
C        0.04814273       0.93450513       0.27495005
C        1.07955202      -0.11940951       0.55395046
C        0.11768471       0.47660725      -1.11506050
N       -0.56080176      -0.81104779      -0.81251229
C       -1.15429662      -0.01818358       0.25799344
C        0.23992034      -1.22589758       0.30396554
H        0.09910938       1.95698509       0.62556669
H        2.01496751      -0.03447283       1.08476589
H        0.01689072       0.98416507      -2.07073583
H       -2.22944216       0.13412975       0.35941224
H        0.32827316      -2.27738100       0.53770429
11
Frame=2 idx=002709 GeodesicLength=0.07398373382210124 rxn_smarts="[C@:1]12([H:7])[C@:2]3([H:8])[C@@:3]1([H:9])[N:4]1[C@@:5]2([H:10])[C@:6]31[H:11]>>[C@:1]12([H:7])[C:2]([H:8])=[C:6]([H:11])[N:4]3[C@@:3]1([H:9])[C@:5]23[H:10]"
C        0.04581919       0.93587307       0.28349946
C        1.08156775      -0.11911059       0.54309761
C        0.11188082       0.47732088      -1.10820715
N       -0.55856084      -0.81659422      -0.81602799
C       -1.15517694      -0.01533878       0.24751190
C        0.23491393      -1.22526004       0.31072000
H        0.09547682       1.95798137       0.63468192
H        2.02134076      -0.03386250       1.06613649
H        0.02816785       0.98451959      -2.06515216
H       -2.22996305       0.13008912       0.35485985
H        0.32453372      -2.27561790       0.54888006
11
Frame=3 idx=002709 GeodesicLength=0.11099781481341231 rxn_smarts="[C@:1]12([H:7])[C@:2]3([H:8])[C@@:3]1([H:9])[N:4]1[C@@:5]2([H:10])[C@:6]31[H:11]>>[C@:1]12([H:7])[C:2]([H:8])=[C:6]([H:11])[N:4]3[C@@:3]1([H:9])[C@:5]23[H:10]"
C        0.04347369       0.93713321       0.29200001
C        1.08336339      -0.11879685       0.53231438
C        0.10610906       0.47799894      -1.10146950
N       -0.55632980      -0.82203941      -0.81951486
C       -1.15599180      -0.01248839       0.23710842
C        0.22995196      -1.22450460       0.31735358
H        0.09180472       1.95887282       0.64374994
H        2.02749046      -0.03322602       1.04742059
H        0.03966727       0.98474049      -2.05945885
H       -2.23034409       0.12602203       0.35053548
H        0.32080514      -2.27371222       0.55996081
11
Frame=4 idx=002709 GeodesicLength=0.14800583370107034 rxn_smarts="[C@:1]12([H:7])[C@:2]3([H:8])[C@@:3]1([H:9])[N:4]1[C@@:5]2([H:10])[C@:6]31[H:11]>>[C@:1]12([H:7])[C:2]([H:8])=[C:6]([H:11])[N:4]3[C@@:3]1([H:9])[C@:5]23[H:10]"
C        0.04110382       0.93828914       0.30045282
C        1.08494727      -0.11847089       0.52162725
C        0.10036881       0.47864787      -1.09484896
N       -0.55412000      -0.82738979      -0.82297750
C       -1.15676694      -0.00964977       0.22678207
C        0.22503573      -1.22365778       0.32387877
H        0.08807932       1.95966790       0.65278329
H        2.03347223      -0.03255515       1.02855776
H        0.05141592       0.98490230      -2.05368674
H       -2.23059583       0.12191112       0.34641581
H        0.31705967      -2.27169494       0.57101543
11
Frame=5 idx=002709 GeodesicLength=0.18510291009109966 rxn_smarts="[C@:1]12([H:7])[C@:2]3([H:8])[C@@:3]1([H:9])[N:4]1[C@@:5]2([H:10])[C@:6]31[H:11]>>[C@:1]12([H:7])[C:2]([H:8])=[C:6]([H:11])[N:4]3[C@@:3]1([H:9])[C@:5]23[H:10]"
C        0.03868576       0.93934241       0.30886336
C        1.08630377      -0.11811259       0.51103189
C        0.09469696       0.47928848      -1.08833323
N       -0.55189615      -0.83262578      -0.82642632
C       -1.15745487      -0.00678682       0.21652275
C        0.22016520      -1.22268272       0.33024963
H        0.08426316       1.96033881       0.66182192
H        2.03930110      -0.03183890       1.00946468
H        0.06341124       0.98480803      -2.04766255
H       -2.23073299       0.11776940       0.34247120
H        0.31325682      -2.26950031       0.58199669
11
Frame=6 idx=002709 GeodesicLength=0.22223746682951587 rxn_smarts="[C@:1]12([H:7])[C@:2]3([H:8])[C@@:3]1([H:9])[N:4]1[C@@:5]2([H:10])[C@:6]31[H:11]>>[C@:1]12([H:7])[C:2]([H:8])=[C:6]([H:11])[N:4]3[C@@:3]1([H:9])[C@:5]23[H:10]"
C        0.03627615       0.94027995       0.31719493
C        1.08743069      -0.11774207       0.50051641
C        0.08907255       0.47983113      -1.08194642
N       -0.54968993      -0.83775004      -0.82984198
C       -1.15806491      -0.00392756       0.20637191
C        0.21534169      -1.22160361       0.33648868
H        0.08044496       1.96089623       0.67076104
H        2.04477710      -0.03109013       0.99042828
H        0.07552083       0.98463224      -2.04157383
H       -2.23062170       0.11364093       0.33877497
H        0.30951257      -2.26716709       0.59282601
11
Frame=7 idx=002709 GeodesicLength=0.2593576246414596 rxn_smarts="[C@:1]12([H:7])[C@:2]3([H:8])[C@@:3]1([H:9])[N:4]1[C@@:5]2([H:10])[C@:6]31[H:11]>>[C@:1]12([H:7])[C:2]([H:8])=[C:6]([H:11])[N:4]3[C@@:3]1([H:9])[C@:5]23[H:10]"
C        0.03386034       0.94112974       0.32544422
C        1.08838109      -0.11735533       0.49010471
C        0.08353098       0.48035464      -1.07569730
N       -0.54751899      -0.84277702      -0.83323537
C       -1.15860248      -0.00104956       0.19631433
C        0.21058028      -1.22044573       0.34259182
H        0.07660944       1.96137617       0.67961606
H        2.05004227      -0.03031645       0.97140878
H        0.08772294       0.98431916      -2.03534880
H       -2.23040152       0.10950980       0.33526694
H        0.30579566      -2.26474540       0.60353461
11
Frame=8 idx=002709 GeodesicLength=0.2965065510261531 rxn_smarts="[C@:1]12([H:7])[C@:2]3([H:8])[C@@:3]1([H:9])[N:4]1[C@@:5]2([H:10])[C@:6]31[H:11]>>[C@:1]12([H:7])[C:2]([H:8])=[C:6]([H:11])[N:4]3[C@@:3]1([H:9])[C@:5]23[H:10]"
C        0.03143675       0.94188611       0.33361483
C        1.08913654      -0.11695068       0.47980344
C        0.07806924       0.48082605      -1.06957990
N       -0.54536457      -0.84770063      -0.83660772
C       -1.15906758       0.00183195       0.18634826
C        0.20587241      -1.21920451       0.34855565
H        0.07273941       1.96176353       0.68840131
H        2.05507480      -0.02951185       0.95235994
H        0.10002895       0.98389077      -2.02898428
H       -2.23001064       0.10537896       0.33194443
H        0.30208470      -2.26220971       0.61414402
11
Frame=9 idx=002709 GeodesicLength=0.33368830447567405 rxn_smarts="[C@:1]12([H:7])[C@:2]3([H:8])[C@@:3]1([H:9])[N:4]1[C@@:5]2([H:10])[C@:6]31[H:11]>>[C@:1]12([H:7])[C:2]([H:8])=[C:6]([H:11])[N:4]3[C@@:3]1([H:9])[C@:5]23[H:10]"
C        0.02900563       0.94254915       0.34171089
C        1.08970272      -0.11652693       0.46962445
C        0.07269536       0.48125641      -1.06358948
N       -0.54322758      -0.85252252      -0.83996549
C       -1.15946071       0.00471921       0.17647488
C        0.20122163      -1.21788779       0.35438207
H        0.06883274       1.96205315       0.69713565
H        2.05989689      -0.02866973       0.93324959
H        0.11242823       0.98334883      -2.02248050
H       -2.22945927       0.10124493       0.32877704
H        0.29836436      -2.25956471       0.62468091
11
Frame=10 idx=002709 GeodesicLength=0.37091062750138054 rxn_smarts="[C@:1]12([H:7])[C@:2]3([H:8])[C@@:3]1([H:9])[N:4]1[C@@:5]2([H:10])[C@:6]31[H:11]>>[C@:1]12([H:7])[C:2]([H:8])=[C:6]([H:11])[N:4]3[C@@:3]1([H:9])[C@:5]23[H:10]"
C        0.02656109       0.94311955       0.34972748
C        1.09008508      -0.11608189       0.45957267
C        0.06742706       0.48164664      -1.05772106
N       -0.54110093      -0.85724377      -0.84330158
C       -1.15977569       0.00761778       0.16669143
C        0.19662265      -1.21650092       0.36007495
H        0.06487549       1.96223958       0.70582838
H        2.06454475      -0.02778530       0.91402948
H        0.12491923       0.98269253      -2.01579907
H       -2.22877621       0.09710595       0.32573443
H        0.29461750      -2.25681017       0.63516290
11
Frame=11 idx=002709 GeodesicLength=0.4082023653110029 rxn_smarts="[C@:1]12([H:7])[C@:2]3([H:8])[C@@:3]1([H:9])[N:4]1[C@@:5]2([H:10])[C@:6]31[H:11]>>[C@:1]12([H:7])[C:2]([H:8])=[C:6]([H:11])[N:4]3[C@@:3]1([H:9])[C@:5]23[H:10]"
C        0.02409817       0.94361124       0.35768144
C        1.09028993      -0.11561480       0.44967181
C        0.06226861       0.48199363      -1.05196429
N       -0.53898117      -0.86186830      -0.84663246
C       -1.16003021       0.01051807       0.15698893
C        0.19207821      -1.21505142       0.36563607
H        0.06086025       1.96233522       0.71450163
H        2.06902963      -0.02687242       0.89468651
H        0.13746047       0.98192005      -2.00896215
H       -2.22791315       0.09297700       0.32278487
H        0.29083926      -2.25394826       0.64560764
11
Frame=12 idx=002709 GeodesicLength=0.44549520898048683 rxn_smarts="[C@:1]12([H:7])[C@:2]3([H:8])[C@@:3]1([H:9])[N:4]1[C@@:5]2([H:10])[C@:6]31[H:11]>>[C@:1]12([H:7])[C:2]([H:8])=[C:6]([H:11])[N:4]3[C@@:3]1([H:9])[C@:5]23[H:10]"
C        0.02165736       0.94401813       0.36552705
C        1.09034170      -0.11513909       0.43989773
C        0.05721145       0.48227805      -1.04635709
N       -0.53689174      -0.86640448      -0.84993961
C       -1.16020653       0.01342251       0.14738400
C        0.18759144      -1.21355855       0.37106469
H        0.05684206       1.96235463       0.72307058
H        2.07327213      -0.02592071       0.87542111
H        0.14997514       0.98109338      -2.00199534
H       -2.22687967       0.08887904       0.31997855
H        0.28708665      -2.25102292       0.65594834
11
Frame=13 idx=002709 GeodesicLength=0.4828503575102186 rxn_smarts="[C@:1]12([H:7])[C@:2]3([H:8])[C@@:3]1([H:9])[N:4]1[C@@:5]2([H:10])[C@:6]31[H:11]>>[C@:1]12([H:7])[C:2]([H:8])=[C:6]([H:11])[N:4]3[C@@:3]1([H:9])[C@:5]23[H:10]"
C        0.01921658       0.94433934       0.37329004
C        1.09023465      -0.11464142       0.43025212
C        0.05229925       0.48252385      -1.04086624
N       -0.53480844      -0.87083810      -0.85323456
C       -1.16027534       0.01635818       0.13788472
C        0.18317173      -1.21199433       0.37634875
H        0.05280844       1.96226784       0.73158957
H        2.07727779      -0.02493808       0.85617318
H        0.16242965       0.98008555      -1.99487092
H       -2.22569893       0.08481977       0.31726926
H        0.28334461      -2.24798260       0.66616408
11
Frame=14 idx=002709 GeodesicLength=0.5202119282419085 rxn_smarts="[C@:1]12([H:7])[C@:2]3([H:8])[C@@:3]1([H:9])[N:4]1[C@@:5]2([H:10])[C@:6]31[H:11]>>[C@:1]12([H:7])[C:2]([H:8])=[C:6]([H:11])[N:4]3[C@@:3]1([H:9])[C@:5]23[H:10]"
C        0.01681904       0.94458053       0.38093005
C        1.08999135      -0.11414211       0.42072835
C        0.04750295       0.48267446      -1.03553049
N       -0.53275531      -0.87518536      -0.85650158
C       -1.16024775       0.01929161       0.12849442
C        0.17881101      -1.21039339       0.38150069
H        0.04880861       1.96211149       0.73995464
H        2.08097582      -0.02392868       0.83717430
H        0.17471238       0.97903859      -1.98765424
H       -2.22429060       0.08084247       0.31469942
H        0.27967249      -2.24488961       0.67620444
11
Frame=15 idx=002709 GeodesicLength=0.5575788711543811 rxn_smarts="[C@:1]12([H:7])[C@:2]3([H:8])[C@@:3]1([H:9])[N:4]1[C@@:5]2([H:10])[C@:6]31[H:11]>>[C@:1]12([H:7])[C:2]([H:8])=[C:6]([H:11])[N:4]3[C@@:3]1([H:9])[C@:5]23[H:10]"
C        0.01445368       0.94475469       0.38846650
C        1.08963339      -0.11363620       0.41133739
C        0.04285001       0.48277601      -1.03032506
N       -0.53073373      -0.87945481      -0.85974948
C       -1.16012570       0.02224777       0.11921491
C        0.17452319      -1.20876272       0.38652253
H        0.04483575       1.96189491       0.74821392
H        2.08443416      -0.02289484       0.81836016
H        0.18680989       0.97788689      -1.98033626
H       -2.22274208       0.07694460       0.31220719
H        0.27606143      -2.24175628       0.68608819
11
Frame=16 idx=002709 GeodesicLength=0.5949569976877972 rxn_smarts="[C@:1]12([H:7])[C@:2]3([H:8])[C@@:3]1([H:9])[N:4]1[C@@:5]2([H:10])[C@:6]31[H:11]>>[C@:1]12([H:7])[C:2]([H:8])=[C:6]([H:11])[N:4]3[C@@:3]1([H:9])[C@:5]23[H:10]"
C        0.01214241       0.94485654       0.39587895
C        1.08915943      -0.11313236       0.40206444
C        0.03834185       0.48278412      -1.02526283
N       -0.52874169      -0.88364273      -0.86296956
C       -1.15988818       0.02521926       0.11005691
C        0.17030308      -1.20709695       0.39140989
H        0.04091659       1.96161656       0.75630539
H        2.08756544      -0.02184719       0.79990499
H        0.19862305       0.97665161      -1.97295375
H       -2.22098231       0.07317038       0.30983272
H        0.27256034      -2.23857924       0.69573284
