14
Frame=0 idx=007391 GeodesicLength=0.0 rxn_smarts="[C:1]1([H:8])([H:9])[C@@:2]2([H:10])[C:3]([H:11])([H:12])[O:4][C:5]([H:13])=[N:6][C@@:7]12[H:14]>>[C:1]1([H:8])([H:9])[C@@:2]2([H:10])[C:3]([H:11])([H:12])[O:4][C@@:7]12[H:14].[C:5](#[N:6])[H:13]"
C       -1.66003021      -0.13620219       0.35654101
C       -0.75897340       0.58106194      -0.63026853
C        0.42887474       1.17117486       0.07112285
O        0.75431427      -0.02545898       0.83670446
C        1.89055892      -0.84557629       0.29081700
N        1.58418649      -1.78572039      -0.40288238
C       -0.53120116      -0.84627472      -0.28090186
H       -1.65628232       0.15288988       1.39830971
H       -2.62302855      -0.46382943      -0.01964034
H       -1.11437020       0.92741820      -1.59068241
H        0.22461143       1.99700259       0.75315018
H        1.24980329       1.42778377      -0.60056769
H        2.81272095      -0.41495892       0.68529684
H       -0.60118427      -1.73931038      -0.86699879
14
Frame=1 idx=007391 GeodesicLength=0.07585510551213948 rxn_smarts="[C:1]1([H:8])([H:9])[C@@:2]2([H:10])[C:3]([H:11])([H:12])[O:4][C:5]([H:13])=[N:6][C@@:7]12[H:14]>>[C:1]1([H:8])([H:9])[C@@:2]2([H:10])[C:3]([H:11])([H:12])[O:4][C@@:7]12[H:14].[C:5](#[N:6])[H:13]"
C       -1.65695881      -0.14230926       0.35942115
C       -0.76671919       0.58350676      -0.62943639
C        0.42472347       1.18019450       0.06099126
O        0.76620534      -0.01073597       0.82485946
C        1.90998575      -0.85393930       0.27715313
N        1.59443868      -1.80914154      -0.39020253
C       -0.52474936      -0.84362586      -0.28484802
H       -1.64786368       0.14258707       1.40244072
H       -2.62373057      -0.46355760      -0.01222648
H       -1.13354860       0.93587376      -1.58326562
H        0.22126531       2.00383732       0.74607152
H        1.23642951       1.44329911      -0.61931103
H        2.80865126      -0.43906525       0.73402512
H       -0.60812910      -1.72692374      -0.88567229
14
Frame=2 idx=007391 GeodesicLength=0.1515411205059618 rxn_smarts="[C:1]1([H:8])([H:9])[C@@:2]2([H:10])[C:3]([H:11])([H:12])[O:4][C:5]([H:13])=[N:6][C@@:7]12[H:14]>>[C:1]1([H:8])([H:9])[C@@:2]2([H:10])[C:3]([H:11])([H:12])[O:4][C@@:7]12[H:14].[C:5](#[N:6])[H:13]"
C       -1.65329321      -0.14862509       0.36230918
C       -0.77436815       0.58604827      -0.62862845
C        0.42051507       1.18960573       0.05058262
O        0.77855324       0.00443350       0.81221968
C        1.93040146      -0.86229190       0.26315635
N        1.60476383      -1.83225286      -0.37660677
C       -0.51779399      -0.84075309      -0.28924635
H       -1.63854363       0.13190283       1.40657962
H       -2.62389719      -0.46360988      -0.00435512
H       -1.15299043       0.94438971      -1.57552616
H        0.21788978       2.01086824       0.73893240
H        1.22254445       1.45949862      -0.63845782
H        2.80081075      -0.46499586       0.78320373
H       -0.61459200      -1.71421822      -0.90416290
14
Frame=3 idx=007391 GeodesicLength=0.22696231776153694 rxn_smarts="[C:1]1([H:8])([H:9])[C@@:2]2([H:10])[C:3]([H:11])([H:12])[O:4][C:5]([H:13])=[N:6][C@@:7]12[H:14]>>[C:1]1([H:8])([H:9])[C@@:2]2([H:10])[C:3]([H:11])([H:12])[O:4][C@@:7]12[H:14].[C:5](#[N:6])[H:13]"
C       -1.64915510      -0.15504120       0.36515500
C       -0.78176495       0.58852864      -0.62782448
C        0.41632195       1.19923695       0.04006048
O        0.79113060       0.01995319       0.79917696
C        1.95153635      -0.87124246       0.25008466
N        1.61544714      -1.85420694      -0.36326830
C       -0.51042734      -0.83777993      -0.29382021
H       -1.62860813       0.12111083       1.41062709
H       -2.62361549      -0.46382217       0.00379420
H       -1.17232734       0.95270751      -1.56754770
H        0.21454749       2.01804823       0.73173672
H        1.20839745       1.47591395      -0.65772730
H        2.78922673      -0.49199954       0.83165479
H       -0.62070935      -1.70140706      -0.92210192
14
Frame=4 idx=007391 GeodesicLength=0.3020885671921637 rxn_smarts="[C:1]1([H:8])([H:9])[C@@:2]2([H:10])[C:3]([H:11])([H:12])[O:4][C:5]([H:13])=[N:6][C@@:7]12[H:14]>>[C:1]1([H:8])([H:9])[C@@:2]2([H:10])[C:3]([H:11])([H:12])[O:4][C@@:7]12[H:14].[C:5](#[N:6])[H:13]"
C       -1.64464026      -0.16148305       0.36793629
C       -0.78882964       0.59085653      -0.62701817
C        0.41218054       1.20896943       0.02951543
O        0.80376473       0.03574650       0.78600249
C        1.97313753      -0.88121087       0.23886936
N        1.62669755      -1.87455982      -0.35116190
C       -0.50273111      -0.83479118      -0.29838537
H       -1.61825937       0.11039134       1.41453025
H       -2.62295945      -0.46407147       0.01211810
H       -1.19133632       0.96067880      -1.55940415
H        0.21126753       2.02535096       0.72445478
H        1.19414961       1.49223741      -0.67695467
H        2.77420384      -0.51947770       0.87874463
H       -0.62664518      -1.68863688      -0.93924705
14
Frame=5 idx=007391 GeodesicLength=0.3770009208052044 rxn_smarts="[C:1]1([H:8])([H:9])[C@@:2]2([H:10])[C:3]([H:11])([H:12])[O:4][C:5]([H:13])=[N:6][C@@:7]12[H:14]>>[C:1]1([H:8])([H:9])[C@@:2]2([H:10])[C:3]([H:11])([H:12])[O:4][C@@:7]12[H:14].[C:5](#[N:6])[H:13]"
C       -1.63980889      -0.16790252       0.37063742
C       -0.79554646       0.59300071      -0.62619621
C        0.40809832       1.21871571       0.01900291
O        0.81635858       0.05175718       0.77281545
C        1.99502101      -0.89245720       0.23000461
N        1.63862208      -1.89335905      -0.34062008
C       -0.49474961      -0.83181279      -0.30290712
H       -1.60761069       0.09982992       1.41826870
H       -2.62198270      -0.46425780       0.02056707
H       -1.20994494       0.96826673      -1.55109650
H        0.20804612       2.03273056       0.71710493
H        1.17987045       1.50829007      -0.69604903
H        2.75612697      -0.54688242       0.92407902
H       -0.63250022      -1.67591912      -0.95561118
14
Frame=6 idx=007391 GeodesicLength=0.45173691716347353 rxn_smarts="[C:1]1([H:8])([H:9])[C@@:2]2([H:10])[C:3]([H:11])([H:12])[O:4][C:5]([H:13])=[N:6][C@@:7]12[H:14]>>[C:1]1([H:8])([H:9])[C@@:2]2([H:10])[C:3]([H:11])([H:12])[O:4][C@@:7]12[H:14].[C:5](#[N:6])[H:13]"
C       -1.63464537      -0.17432810       0.37327588
C       -0.80195794       0.59500187      -0.62536775
C        0.40406506       1.22851569       0.00847960
O        0.82893961       0.06800810       0.75956279
C        2.01712749      -0.90494917       0.22354703
N        1.65118924      -1.91087787      -0.33168990
C       -0.48648920      -0.82882473      -0.30743456
H       -1.59660368       0.08936727       1.42186818
H       -2.62068236      -0.46442207       0.02919076
H       -1.22823113       0.97553119      -1.54262616
H        0.20488608       2.04021592       0.70965449
H        1.16552589       1.52417261      -0.71506922
H        2.73521119      -0.57417443       0.96786967
H       -0.63833488      -1.66323625      -0.97126080
14
Frame=7 idx=007391 GeodesicLength=0.5263650847926978 rxn_smarts="[C:1]1([H:8])([H:9])[C@@:2]2([H:10])[C:3]([H:11])([H:12])[O:4][C:5]([H:13])=[N:6][C@@:7]12[H:14]>>[C:1]1([H:8])([H:9])[C@@:2]2([H:10])[C:3]([H:11])([H:12])[O:4][C@@:7]12[H:14].[C:5](#[N:6])[H:13]"
C       -1.62911242      -0.18078569       0.37586694
C       -0.80810492       0.59690260      -0.62453002
C        0.40006647       1.23839825      -0.00209338
O        0.84154987       0.08452183       0.74614867
C        2.03941034      -0.91867887       0.21946529
N        1.66436235      -1.92742194      -0.32416651
C       -0.47793177      -0.82579146      -0.31206324
H       -1.58515348       0.07893526       1.42535767
H       -2.61903073      -0.46459468       0.03805086
H       -1.24629310       0.98254519      -1.53394714
H        0.20178306       2.04781238       0.70210546
H        1.15106167       1.53996967      -0.73407874
H        2.71153711      -0.60128897       1.01023423
H       -0.64414444      -1.65052358      -0.98635009
14
Frame=8 idx=007391 GeodesicLength=0.6012418933598143 rxn_smarts="[C:1]1([H:8])([H:9])[C@@:2]2([H:10])[C:3]([H:11])([H:12])[O:4][C:5]([H:13])=[N:6][C@@:7]12[H:14]>>[C:1]1([H:8])([H:9])[C@@:2]2([H:10])[C:3]([H:11])([H:12])[O:4][C@@:7]12[H:14].[C:5](#[N:6])[H:13]"
C       -1.62314112      -0.18733963       0.37843231
C       -0.81407711       0.59880099      -0.62372681
C        0.39608820       1.24850184      -0.01276400
O        0.85430007       0.10133127       0.73250219
C        2.06187071      -0.93374180       0.21774860
N        1.67810799      -1.94340633      -0.31768227
C       -0.46906016      -0.82273861      -0.31694632
H       -1.57306453       0.06842022       1.42884643
H       -2.61699909      -0.46486840       0.04719894
H       -1.26437091       0.98949558      -1.52509020
H        0.19877575       2.05568848       0.69450969
H        1.13637261       1.55590137      -0.75320108
H        2.68514023      -0.62822910       1.05133610
H       -0.64994264      -1.63781587      -1.00116357
14
Frame=9 idx=007391 GeodesicLength=0.6754709630322492 rxn_smarts="[C:1]1([H:8])([H:9])[C@@:2]2([H:10])[C:3]([H:11])([H:12])[O:4][C:5]([H:13])=[N:6][C@@:7]12[H:14]>>[C:1]1([H:8])([H:9])[C@@:2]2([H:10])[C:3]([H:11])([H:12])[O:4][C@@:7]12[H:14].[C:5](#[N:6])[H:13]"
C       -1.61664575      -0.19393052       0.38103444
C       -0.81977762       0.60055774      -0.62281738
C        0.39210680       1.25862503      -0.02368704
O        0.86715609       0.11857241       0.71828390
C        2.08442544      -0.94962710       0.21826908
N        1.69253042      -1.95840834      -0.31300475
C       -0.45977710      -0.81941336      -0.32197072
H       -1.56033100       0.05788169       1.43214299
H       -2.61442484      -0.46520332       0.05690262
H       -1.28225140       0.99603219      -1.51573321
H        0.19576117       2.06345284       0.68653921
H        1.12144854       1.57174877      -0.77250563
H        2.65534901      -0.65552844       1.09185864
H       -0.65556975      -1.62475958      -1.01531213
14
Frame=10 idx=007391 GeodesicLength=0.749968341722806 rxn_smarts="[C:1]1([H:8])([H:9])[C@@:2]2([H:10])[C:3]([H:11])([H:12])[O:4][C:5]([H:13])=[N:6][C@@:7]12[H:14]>>[C:1]1([H:8])([H:9])[C@@:2]2([H:10])[C:3]([H:11])([H:12])[O:4][C@@:7]12[H:14].[C:5](#[N:6])[H:13]"
C       -1.60959856      -0.20067320       0.38361920
C       -0.82534250       0.60239588      -0.62193116
C        0.38812423       1.26904427      -0.03474861
O        0.88027692       0.13614435       0.70360917
C        2.10702035      -0.96689504       0.22115023
N        1.70741375      -1.97329382      -0.30884850
C       -0.45012818      -0.81599242      -0.32743745
H       -1.54674010       0.04710756       1.43546262
H       -2.61136232      -0.46572939       0.06699286
H       -1.30025653       1.00261415      -1.50611779
H        0.19284757       2.07148926       0.67858874
H        1.10616822       1.58796387      -0.79199346
H        2.62269869      -0.68253547       1.13104148
H       -0.66112154      -1.61164000      -1.02938731
14
Frame=11 idx=007391 GeodesicLength=0.8244831701681499 rxn_smarts="[C:1]1([H:8])([H:9])[C@@:2]2([H:10])[C:3]([H:11])([H:12])[O:4][C:5]([H:13])=[N:6][C@@:7]12[H:14]>>[C:1]1([H:8])([H:9])[C@@:2]2([H:10])[C:3]([H:11])([H:12])[O:4][C@@:7]12[H:14].[C:5](#[N:6])[H:13]"
C       -1.60189699      -0.20758284       0.38621233
C       -0.83075421       0.60429742      -0.62100942
C        0.38413044       1.27972158      -0.04603742
O        0.89370950       0.15411715       0.68824967
C        2.12954773      -0.98543924       0.22642921
N        1.72276918      -1.98803569      -0.30524013
C       -0.44004697      -0.81235733      -0.33339825
H       -1.53215198       0.03603302       1.43874576
H       -2.60768788      -0.46648073       0.07761825
H       -1.31839817       1.00918544      -1.49605517
H        0.19002749       2.07966330       0.67055226
H        1.09047139       1.60453668      -0.81173993
H        2.58677801      -0.70938250       1.16905632
H       -0.66649752      -1.59827626      -1.04338347
14
Frame=12 idx=007391 GeodesicLength=0.8990438855423978 rxn_smarts="[C:1]1([H:8])([H:9])[C@@:2]2([H:10])[C:3]([H:11])([H:12])[O:4][C:5]([H:13])=[N:6][C@@:7]12[H:14]>>[C:1]1([H:8])([H:9])[C@@:2]2([H:10])[C:3]([H:11])([H:12])[O:4][C@@:7]12[H:14].[C:5](#[N:6])[H:13]"
C       -1.59343970      -0.21469540       0.38881872
C       -0.83602529       0.60629734      -0.62003620
C        0.38011523       1.29069350      -0.05759112
O        0.90753416       0.17251826       0.67205022
C        2.15188055      -1.00533864       0.23422998
N        1.73856806      -2.00275564      -0.30193421
C       -0.42948716      -0.80846103      -0.33996109
H       -1.51638644       0.02456612       1.44198967
H       -2.60329904      -0.46751710       0.08885627
H       -1.33675274       1.01579646      -1.48545640
H        0.18732046       2.08796316       0.66244383
H        1.07426785       1.62156843      -0.83179628
H        2.54734533      -0.73602541       1.20580226
H       -0.67164126      -1.58461005      -1.05741566
14
Frame=13 idx=007391 GeodesicLength=0.9736954830761925 rxn_smarts="[C:1]1([H:8])([H:9])[C@@:2]2([H:10])[C:3]([H:11])([H:12])[O:4][C:5]([H:13])=[N:6][C@@:7]12[H:14]>>[C:1]1([H:8])([H:9])[C@@:2]2([H:10])[C:3]([H:11])([H:12])[O:4][C@@:7]12[H:14].[C:5](#[N:6])[H:13]"
C       -1.58410933      -0.22206070       0.39145956
C       -0.84116283       0.60842650      -0.61899822
C        0.37608183       1.30201608      -0.06946323
O        0.92185138       0.19139626       0.65483545
C        2.17386448      -1.02666752       0.24473525
N        1.75479417      -2.01755614      -0.29880187
C       -0.41840023      -0.80426186      -0.34724003
H       -1.49923021       0.01260713       1.44521374
H       -2.59808215      -0.46893003       0.10081681
H       -1.35539828       1.02248334      -1.47423556
H        0.18477350       2.09640114       0.65426966
H        1.05747150       1.63918573      -0.85224369
H        2.50405428      -0.76243867       1.24125340
H       -0.67650811      -1.57060125      -1.07160127
14
Frame=14 idx=007391 GeodesicLength=1.048511080525812 rxn_smarts="[C:1]1([H:8])([H:9])[C@@:2]2([H:10])[C:3]([H:11])([H:12])[O:4][C:5]([H:13])=[N:6][C@@:7]12[H:14]>>[C:1]1([H:8])([H:9])[C@@:2]2([H:10])[C:3]([H:11])([H:12])[O:4][C@@:7]12[H:14].[C:5](#[N:6])[H:13]"
C       -1.57375943      -0.22972701       0.39414917
C       -0.84617339       0.61071533      -0.61787255
C        0.37202777       1.31373313      -0.08170957
O        0.93677415       0.21079074       0.63639677
C        2.19530043      -1.04954387       0.25820342
N        1.77145518      -2.03248092      -0.29565636
C       -0.40672254      -0.79970698      -0.35536781
H       -1.48042456       0.00004712       1.44841766
H       -2.59189100      -0.47080614       0.11361924
H       -1.37442770       1.02928411      -1.46227112
H        0.18243471       2.10496557       0.64603674
H        1.03997124       1.65749951      -0.87315894
H        2.45647716      -0.78858196       1.27528175
H       -0.68104202      -1.55618863      -1.08606840
14
Frame=15 idx=007391 GeodesicLength=1.1236070801218745 rxn_smarts="[C:1]1([H:8])([H:9])[C@@:2]2([H:10])[C:3]([H:11])([H:12])[O:4][C:5]([H:13])=[N:6][C@@:7]12[H:14]>>[C:1]1([H:8])([H:9])[C@@:2]2([H:10])[C:3]([H:11])([H:12])[O:4][C@@:7]12[H:14].[C:5](#[N:6])[H:13]"
C       -1.56220945      -0.23775978       0.39692022
C       -0.85106060       0.61319253      -0.61663542
C        0.36796302       1.32591038      -0.09440816
O        0.95244979       0.23076402       0.61648248
C        2.21594017      -1.07409017       0.27498125
N        1.78858916      -2.04754841      -0.29241607
C       -0.39438059      -0.79474595      -0.36449749
H       -1.45964567      -0.01323720       1.45162292
H       -2.58455047      -0.47326888       0.12742815
H       -1.39395004       1.03622670      -1.44942960
H        0.18038593       2.11366871       0.63774388
H        1.02164489       1.67665178      -0.89465789
H        2.40402106      -0.81443879       1.30782683
H       -0.68519719      -1.54132493      -1.10096110
14
Frame=16 idx=007391 GeodesicLength=1.199097461485501 rxn_smarts="[C:1]1([H:8])([H:9])[C@@:2]2([H:10])[C:3]([H:11])([H:12])[O:4][C:5]([H:13])=[N:6][C@@:7]12[H:14]>>[C:1]1([H:8])([H:9])[C@@:2]2([H:10])[C:3]([H:11])([H:12])[O:4][C@@:7]12[H:14].[C:5](#[N:6])[H:13]"
C       -1.54920160      -0.24621292       0.39983267
C       -0.85580990       0.61585270      -0.61522752
C        0.36391125       1.33857151      -0.10769334
O        0.96906222       0.25140289       0.59474459
C        2.23543992      -1.10044143       0.29563431
N        1.80643055      -2.06247680      -0.28929802
C       -0.38125723      -0.78929344      -0.37477496
H       -1.43645523      -0.02734771       1.45481960
H       -2.57580383      -0.47644124       0.14250625
H       -1.41409680       1.04326849      -1.43546786
H        0.17874374       2.12246747       0.62929365
H        1.00235840       1.69668786      -0.91690727
H        2.34558962      -0.84012707       1.33889338
H       -0.68891112      -1.52591032      -1.11635547
