13
Frame=0 idx=009673 GeodesicLength=0.0 rxn_smarts="[C:1]([c:2]1[n:3][c:4]([H:11])[c:5]([O:6][H:12])[n:7]1[H:13])([H:8])([H:9])[H:10]>>[C:1]([C:2]1=[N+:3]=[C-:4][C@@:5]([O:6][H:12])([H:11])[N:7]1[H:13])([H:8])([H:9])[H:10]"
C        2.12970367      -0.16113225       0.11293008
C        0.68252828      -0.13649535      -0.22687439
N        0.16602008      -0.62712544      -1.32407186
C       -1.22501963      -0.41714011      -1.33166393
C       -1.47421031       0.13718110      -0.02267792
O       -2.55973001       0.80450602       0.44139424
N       -0.25153256       0.36892469       0.61165543
H        2.68888246      -0.42657319      -0.78094063
H        2.32807509      -0.91070712       0.88189705
H        2.47005740       0.80684436       0.48358154
H       -1.66377388      -1.06568078      -0.07982402
H       -3.17810144       0.87172842      -0.29358580
H       -0.11289914       0.75566965       1.52818019
13
Frame=1 idx=009673 GeodesicLength=0.05021827144186852 rxn_smarts="[C:1]([c:2]1[n:3][c:4]([H:11])[c:5]([O:6][H:12])[n:7]1[H:13])([H:8])([H:9])[H:10]>>[C:1]([C:2]1=[N+:3]=[C-:4][C@@:5]([O:6][H:12])([H:11])[N:7]1[H:13])([H:8])([H:9])[H:10]"
C        2.13088654      -0.15999254       0.11342921
C        0.68333145      -0.13679864      -0.22381306
N        0.16729556      -0.61112917      -1.32977951
C       -1.22137543      -0.40548164      -1.33027052
C       -1.47605012       0.12970209      -0.01525409
O       -2.55752553       0.80708134       0.44514610
N       -0.25190324       0.35608250       0.61977077
H        2.68878133      -0.45282123      -0.77277511
H        2.32915130      -0.88755445       0.90314572
H        2.47606856       0.81794069       0.45222218
H       -1.68219071      -1.08195494      -0.10472833
H       -3.17539045       0.87508974      -0.29006809
H       -0.11107924       0.74983624       1.53297475
13
Frame=2 idx=009673 GeodesicLength=0.10047868367763096 rxn_smarts="[C:1]([c:2]1[n:3][c:4]([H:11])[c:5]([O:6][H:12])[n:7]1[H:13])([H:8])([H:9])[H:10]>>[C:1]([C:2]1=[N+:3]=[C-:4][C@@:5]([O:6][H:12])([H:11])[N:7]1[H:13])([H:8])([H:9])[H:10]"
C        2.13209951      -0.15875665       0.11399214
C        0.68411888      -0.13746857      -0.22051110
N        0.16858334      -0.59523523      -1.33507731
C       -1.21770095      -0.39396491      -1.32857643
C       -1.47791256       0.12180103      -0.00770445
O       -2.55511185       0.80947455       0.44910059
N       -0.25225988       0.34300923       0.62791240
H        2.68838968      -0.47884381      -0.76390398
H        2.33073452      -0.86345003       0.92398329
H        2.48181746       0.82826970       0.42039352
H       -1.70112421      -1.09775647      -0.13078844
H       -3.17235752       0.87874149      -0.28639811
H       -0.10927643       0.74417966       1.53757788
13
Frame=3 idx=009673 GeodesicLength=0.15067563621916635 rxn_smarts="[C:1]([c:2]1[n:3][c:4]([H:11])[c:5]([O:6][H:12])[n:7]1[H:13])([H:8])([H:9])[H:10]>>[C:1]([C:2]1=[N+:3]=[C-:4][C@@:5]([O:6][H:12])([H:11])[N:7]1[H:13])([H:8])([H:9])[H:10]"
C        2.13331813      -0.15747786       0.11463819
C        0.68489752      -0.13821941      -0.21707242
N        0.16983833      -0.57929252      -1.33996526
C       -1.21404659      -0.38268016      -1.32651146
C       -1.47977530       0.11349428      -0.00004713
O       -2.55249504       0.81155044       0.45323949
N       -0.25255869       0.33002149       0.63593540
H        2.68768627      -0.50464141      -0.75424966
H        2.33259676      -0.83855193       0.94428525
H        2.48745420       0.83759587       0.38828260
H       -1.72040386      -1.11298713      -0.15789004
H       -3.16907047       0.88240167      -0.28254687
H       -0.10744127       0.73878666       1.54190192
13
Frame=4 idx=009673 GeodesicLength=0.2009218237226339 rxn_smarts="[C:1]([c:2]1[n:3][c:4]([H:11])[c:5]([O:6][H:12])[n:7]1[H:13])([H:8])([H:9])[H:10]>>[C:1]([C:2]1=[N+:3]=[C-:4][C@@:5]([O:6][H:12])([H:11])[N:7]1[H:13])([H:8])([H:9])[H:10]"
C        2.13457349      -0.15614193       0.11535847
C        0.68568823      -0.13917516      -0.21347747
N        0.17112236      -0.56334529      -1.34447164
C       -1.21036460      -0.37154165      -1.32412786
C       -1.48166516       0.10472969       0.00774594
O       -2.54973329       0.81329850       0.45764977
N       -0.25283488       0.31695167       0.64392953
H        2.68673436      -0.53030344      -0.74380998
H        2.33481838      -0.81276431       0.96413458
H        2.49292629       0.84601059       0.35577233
H       -1.74010006      -1.12763952      -0.18618182
H       -3.16554075       0.88618743      -0.27845592
H       -0.10562438       0.73373341       1.54593408
13
Frame=5 idx=009673 GeodesicLength=0.25106234545388745 rxn_smarts="[C:1]([c:2]1[n:3][c:4]([H:11])[c:5]([O:6][H:12])[n:7]1[H:13])([H:8])([H:9])[H:10]>>[C:1]([C:2]1=[N+:3]=[C-:4][C@@:5]([O:6][H:12])([H:11])[N:7]1[H:13])([H:8])([H:9])[H:10]"
C        2.13581383      -0.15474619       0.11614371
C        0.68650138      -0.13982111      -0.20993355
N        0.17233265      -0.54748363      -1.34854360
C       -1.20676023      -0.36094347      -1.32127577
C       -1.48351190       0.09566953       0.01558659
O       -2.54674486       0.81479308       0.46211383
N       -0.25297103       0.30445418       0.65157482
H        2.68545596      -0.55555970      -0.73264978
H        2.33706608      -0.78640375       0.98326520
H        2.49845218       0.85329251       0.32327635
H       -1.76002556      -1.14153092      -0.21518562
H       -3.16182397       0.88974336      -0.27426098
H       -0.10378451       0.72853611       1.54988880
13
Frame=6 idx=009673 GeodesicLength=0.3012733252374931 rxn_smarts="[C:1]([c:2]1[n:3][c:4]([H:11])[c:5]([O:6][H:12])[n:7]1[H:13])([H:8])([H:9])[H:10]>>[C:1]([C:2]1=[N+:3]=[C-:4][C@@:5]([O:6][H:12])([H:11])[N:7]1[H:13])([H:8])([H:9])[H:10]"
C        2.13709589      -0.15330245       0.11697845
C        0.68737557      -0.14024375      -0.20643075
N        0.17357458      -0.53169091      -1.35228007
C       -1.20316254      -0.35078612      -1.31805706
C       -1.48536494       0.08625510       0.02351711
O       -2.54367916       0.81597813       0.46677108
N       -0.25303605       0.29240568       0.65898432
H        2.68395872      -0.58059603      -0.72078244
H        2.33940773      -0.75941263       1.00179940
H        2.50404619       0.85954047       0.29063906
H       -1.78021260      -1.15473196      -0.24504426
H       -3.15798427       0.89321234      -0.26988665
H       -0.10201913       0.72337213       1.55379180
13
Frame=7 idx=009673 GeodesicLength=0.35144613053590246 rxn_smarts="[C:1]([c:2]1[n:3][c:4]([H:11])[c:5]([O:6][H:12])[n:7]1[H:13])([H:8])([H:9])[H:10]>>[C:1]([C:2]1=[N+:3]=[C-:4][C@@:5]([O:6][H:12])([H:11])[N:7]1[H:13])([H:8])([H:9])[H:10]"
C        2.13837858      -0.15183263       0.11787303
C        0.68829195      -0.14021184      -0.20302515
N        0.17476392      -0.51590020      -1.35566533
C       -1.19961707      -0.34116867      -1.31443199
C       -1.48717950       0.07649862       0.03151937
O       -2.54049857       0.81674606       0.47157625
N       -0.25299550       0.28100853       0.66609010
H        2.68213614      -0.60533987      -0.70819453
H        2.34170239      -0.73194239       1.01961246
H        2.50982101       0.86459506       0.25805399
H       -1.80054372      -1.16717369      -0.27565247
H       -3.15400037       0.89640820      -0.26536514
H       -0.10025927       0.71831282       1.55760941
13
Frame=8 idx=009673 GeodesicLength=0.40158579105749176 rxn_smarts="[C:1]([c:2]1[n:3][c:4]([H:11])[c:5]([O:6][H:12])[n:7]1[H:13])([H:8])([H:9])[H:10]>>[C:1]([C:2]1=[N+:3]=[C-:4][C@@:5]([O:6][H:12])([H:11])[N:7]1[H:13])([H:8])([H:9])[H:10]"
C        2.13968124      -0.15041441       0.11883938
C        0.68929145      -0.13944895      -0.19981665
N        0.17591674      -0.49992856      -1.35875183
C       -1.19614952      -0.33211986      -1.31037848
C       -1.48895571       0.06641033       0.03960271
O       -2.53731751       0.81696217       0.47655402
N       -0.25282233       0.27047942       0.67281639
H        2.67996982      -0.62984301      -0.69489727
H        2.34378288      -0.70425008       1.03663748
H        2.51600339       0.86827963       0.22573633
H       -1.82088097      -1.17886982      -0.30691917
H       -3.15003455       0.89907635      -0.26064023
H       -0.09848492       0.71366680       1.56121731
13
Frame=9 idx=009673 GeodesicLength=0.45173565431737955 rxn_smarts="[C:1]([c:2]1[n:3][c:4]([H:11])[c:5]([O:6][H:12])[n:7]1[H:13])([H:8])([H:9])[H:10]>>[C:1]([C:2]1=[N+:3]=[C-:4][C@@:5]([O:6][H:12])([H:11])[N:7]1[H:13])([H:8])([H:9])[H:10]"
C        2.14100058      -0.14894380       0.11984453
C        0.69035708      -0.13810822      -0.19674027
N        0.17703482      -0.48407259      -1.36150669
C       -1.19272595      -0.32370299      -1.30593660
C       -1.49068000       0.05599271       0.04774937
O       -2.53406286       0.81675233       0.48166963
N       -0.25253830       0.26059576       0.67926918
H        2.67747544      -0.65400537      -0.68095857
H        2.34579473      -0.67615825       1.05291861
H        2.52244978       0.87082474       0.19353282
H       -1.84142495      -1.18974045      -0.33888441
H       -3.14592797       0.90148717      -0.25580085
H       -0.09675239       0.70907896       1.56484327
13
Frame=10 idx=009673 GeodesicLength=0.5018521268260192 rxn_smarts="[C:1]([c:2]1[n:3][c:4]([H:11])[c:5]([O:6][H:12])[n:7]1[H:13])([H:8])([H:9])[H:10]>>[C:1]([C:2]1=[N+:3]=[C-:4][C@@:5]([O:6][H:12])([H:11])[N:7]1[H:13])([H:8])([H:9])[H:10]"
C        2.14234855      -0.14740898       0.12087442
C        0.69149199      -0.13611486      -0.19380506
N        0.17808771      -0.46842011      -1.36389747
C       -1.18936511      -0.31602352      -1.30108156
C       -1.49234922       0.04526363       0.05596036
O       -2.53075105       0.81614944       0.48686463
N       -0.25215140       0.25136229       0.68546459
H        2.67464528      -0.67767480      -0.66647363
H        2.34776607      -0.64780565       1.06835513
H        2.52919063       0.87222038       0.16161272
H       -1.86217136      -1.19974467      -0.37145133
H       -3.14168204       0.90364443      -0.25092246
H       -0.09506003       0.70455243       1.56849966
13
Frame=11 idx=009673 GeodesicLength=0.5519686054634421 rxn_smarts="[C:1]([c:2]1[n:3][c:4]([H:11])[c:5]([O:6][H:12])[n:7]1[H:13])([H:8])([H:9])[H:10]>>[C:1]([C:2]1=[N+:3]=[C-:4][C@@:5]([O:6][H:12])([H:11])[N:7]1[H:13])([H:8])([H:9])[H:10]"
C        2.14372582      -0.14574655       0.12191941
C        0.69267821      -0.13360483      -0.19094166
N        0.17906144      -0.45303453      -1.36591323
C       -1.18605296      -0.30901483      -1.29586152
C       -1.49396305       0.03417859       0.06423042
O       -2.52735680       0.81509152       0.49219185
N       -0.25168398       0.24255672       0.69150202
H        2.67145977      -0.70096499      -0.65133485
H        2.34981280      -0.61888485       1.08304659
H        2.53615286       0.87257144       0.12970507
H       -1.88325115      -1.20879130      -0.40479882
H       -3.13716665       0.90572653      -0.24600896
H       -0.09341632       0.69991709       1.57226368
13
Frame=12 idx=009673 GeodesicLength=0.6021119503057216 rxn_smarts="[C:1]([c:2]1[n:3][c:4]([H:11])[c:5]([O:6][H:12])[n:7]1[H:13])([H:8])([H:9])[H:10]>>[C:1]([C:2]1=[N+:3]=[C-:4][C@@:5]([O:6][H:12])([H:11])[N:7]1[H:13])([H:8])([H:9])[H:10]"
C        2.14513581      -0.14390911       0.12297141
C        0.69391071      -0.13064686      -0.18811605
N        0.17997061      -0.43798081      -1.36756064
C       -1.18276802      -0.30263585      -1.29031006
C       -1.49552008       0.02270393       0.07255493
O       -2.52387490       0.81353651       0.49770320
N       -0.25114950       0.23399539       0.69744621
H        2.66791533      -0.72396834      -0.63544089
H        2.35199268      -0.58914981       1.09706618
H        2.54329730       0.87193901       0.09759562
H       -1.90476258      -1.21677172      -0.43906478
H       -3.13230670       0.90784655      -0.24103700
H       -0.09184064       0.69504113       1.57619187
13
Frame=13 idx=009673 GeodesicLength=0.6522445374208279 rxn_smarts="[C:1]([c:2]1[n:3][c:4]([H:11])[c:5]([O:6][H:12])[n:7]1[H:13])([H:8])([H:9])[H:10]>>[C:1]([C:2]1=[N+:3]=[C-:4][C@@:5]([O:6][H:12])([H:11])[N:7]1[H:13])([H:8])([H:9])[H:10]"
C        2.14657343      -0.14196759       0.12403432
C        0.69521243      -0.12693068      -0.18542768
N        0.18081011      -0.42310476      -1.36891137
C       -1.17953322      -0.29702844      -1.28440254
C       -1.49699507       0.01088012       0.08093901
O       -2.52038804       0.81141126       0.50337421
N       -0.25052490       0.22592392       0.70322533
H        2.66397018      -0.74662008      -0.61888554
H        2.35414884      -0.55896970       1.11029299
H        2.55080153       0.87015714       0.06560026
H       -1.92653300      -1.22370515      -0.47403033
H       -3.12722489       0.90976737      -0.23601341
H       -0.09031740       0.69018661       1.58020476
13
Frame=14 idx=009673 GeodesicLength=0.7023711010487793 rxn_smarts="[C:1]([c:2]1[n:3][c:4]([H:11])[c:5]([O:6][H:12])[n:7]1[H:13])([H:8])([H:9])[H:10]>>[C:1]([C:2]1=[N+:3]=[C-:4][C@@:5]([O:6][H:12])([H:11])[N:7]1[H:13])([H:8])([H:9])[H:10]"
C        2.14801987      -0.13992608       0.12510860
C        0.69657004      -0.12241507      -0.18287549
N        0.18154536      -0.40841983      -1.36997186
C       -1.17635693      -0.29229388      -1.27812624
C       -1.49836197      -0.00127819       0.08938584
O       -2.51687354       0.80872402       0.50916808
N       -0.24980342       0.21834750       0.70885149
H        2.65957398      -0.76879125      -0.60175963
H        2.35627675      -0.52851844       1.12265461
H        2.55865027       0.86723280       0.03389981
H       -1.94853627      -1.22956731      -0.50962045
H       -3.12188592       0.91144326      -0.23097861
H       -0.08881822       0.68546247       1.58426386
13
Frame=15 idx=009673 GeodesicLength=0.7524887496929547 rxn_smarts="[C:1]([c:2]1[n:3][c:4]([H:11])[c:5]([O:6][H:12])[n:7]1[H:13])([H:8])([H:9])[H:10]>>[C:1]([C:2]1=[N+:3]=[C-:4][C@@:5]([O:6][H:12])([H:11])[N:7]1[H:13])([H:8])([H:9])[H:10]"
C        2.14949600      -0.13765646       0.12616196
C        0.69796835      -0.11732019      -0.18037678
N        0.18218631      -0.39420038      -1.37069072
C       -1.17321997      -0.28847973      -1.27150249
C       -1.49964663      -0.01379490       0.09788618
O       -2.51328727       0.80558603       0.51506561
N       -0.24901989       0.21092667       0.71443369
H        2.65481997      -0.79043133      -0.58398749
H        2.35857615      -0.49740083       1.13420340
H        2.56665135       0.86335027       0.00219820
H       -1.97100634      -1.23419126      -0.54593864
H       -3.11611782       0.91322662      -0.22602347
H       -0.08740021       0.68038550       1.58857055
13
Frame=16 idx=009673 GeodesicLength=0.8026250899116284 rxn_smarts="[C:1]([c:2]1[n:3][c:4]([H:11])[c:5]([O:6][H:12])[n:7]1[H:13])([H:8])([H:9])[H:10]>>[C:1]([C:2]1=[N+:3]=[C-:4][C@@:5]([O:6][H:12])([H:11])[N:7]1[H:13])([H:8])([H:9])[H:10]"
C        2.15098562      -0.13510534       0.12719028
C        0.69938955      -0.11169156      -0.17789908
N        0.18272734      -0.38043249      -1.37107139
C       -1.17010501      -0.28552601      -1.26456121
C       -1.50084321      -0.02673106       0.10643563
O       -2.50960254       0.80189096       0.52113285
N       -0.24818261       0.20348251       0.72002085
H        2.64964143      -0.81169649      -0.56534398
H        2.36107529      -0.46524502       1.14499751
H        2.57478491       0.85849345      -0.02979127
H       -1.99401331      -1.23742921      -0.58316436
H       -3.10979596       0.91520293      -0.22109998
H       -0.08606151       0.67478733       1.59315416
