10
Frame=0 idx=007208 GeodesicLength=0.0 rxn_smarts="[N:1](=[C:2](\[O:3][C:4](=[O:5])[H:9])[C:6](=[O:7])[H:10])\[H:8]>>[N:1](=[C:2](\[O+:3]=[C-:4][O:5][H:9])[C:6](=[O:7])[H:10])\[H:8]"
N       -0.86242912       1.56009132      -0.67623516
C       -0.51017113       0.39355681      -0.40501011
O        0.57121855      -0.25562810      -1.00643267
C        1.59388587      -0.61872747      -0.24626745
O        1.63662931      -0.20088498       0.95831064
C       -1.35998490      -0.45403392       0.50877760
O       -1.14552588      -1.60980982       0.71764162
H       -0.22312238       2.01815537      -1.32301680
H        2.50593943      -0.93662866       0.52939613
H       -2.20643974       0.10390945       0.94283620
10
Frame=1 idx=007208 GeodesicLength=0.0282978757388499 rxn_smarts="[N:1](=[C:2](\[O:3][C:4](=[O:5])[H:9])[C:6](=[O:7])[H:10])\[H:8]>>[N:1](=[C:2](\[O+:3]=[C-:4][O:5][H:9])[C:6](=[O:7])[H:10])\[H:8]"
N       -0.87086957       1.55988771      -0.68183368
C       -0.50987078       0.39671664      -0.40689926
O        0.57275719      -0.24842235      -1.00899271
C        1.60323377      -0.59887466      -0.25231911
O        1.63786826      -0.19479801       0.95533732
C       -1.35333856      -0.45387198       0.51002044
O       -1.12866463      -1.60679762       0.72436274
H       -0.23139454       2.02199980      -1.32564986
H        2.48446326      -0.97501275       0.54412549
H       -2.20418440       0.09917321       0.94184863
10
Frame=2 idx=007208 GeodesicLength=0.05652879989949258 rxn_smarts="[N:1](=[C:2](\[O:3][C:4](=[O:5])[H:9])[C:6](=[O:7])[H:10])\[H:8]>>[N:1](=[C:2](\[O+:3]=[C-:4][O:5][H:9])[C:6](=[O:7])[H:10])\[H:8]"
N       -0.87907564       1.55889875      -0.68841633
C       -0.50970770       0.39906410      -0.41005106
O        0.57504944      -0.24146482      -1.01146837
C        1.61218033      -0.57918268      -0.25708523
O        1.63743820      -0.18913184       0.95341278
C       -1.34760294      -0.45482178       0.50894590
O       -1.11289162      -1.60474958       0.72874451
H       -0.23882018       2.02556131      -1.32818978
H        2.46068515      -1.01016478       0.55821806
H       -2.19725504       0.09599133       0.94588953
10
Frame=3 idx=007208 GeodesicLength=0.08393120171987442 rxn_smarts="[N:1](=[C:2](\[O:3][C:4](=[O:5])[H:9])[C:6](=[O:7])[H:10])\[H:8]>>[N:1](=[C:2](\[O+:3]=[C-:4][O:5][H:9])[C:6](=[O:7])[H:10])\[H:8]"
N       -0.88553047       1.55793518      -0.69363509
C       -0.50927602       0.40118415      -0.41128620
O        0.57600969      -0.23668820      -1.01271893
C        1.61975280      -0.56281864      -0.26139568
O        1.63755393      -0.18665219       0.95160270
C       -1.34215440      -0.45433587       0.51073979
O       -1.09915834      -1.60152376       0.73595384
H       -0.24334304       2.02849147      -1.32862760
H        2.44322375      -1.03755830       0.56637086
H       -2.19707789       0.09196617       0.94299631
10
Frame=4 idx=007208 GeodesicLength=0.11117562197858255 rxn_smarts="[N:1](=[C:2](\[O:3][C:4](=[O:5])[H:9])[C:6](=[O:7])[H:10])\[H:8]>>[N:1](=[C:2](\[O+:3]=[C-:4][O:5][H:9])[C:6](=[O:7])[H:10])\[H:8]"
N       -0.89131929       1.55700967      -0.69854540
C       -0.50899228       0.40294720      -0.41287003
O        0.57721250      -0.23235224      -1.01368023
C        1.62669969      -0.54764161      -0.26458439
O        1.63655516      -0.18557263       0.95084784
C       -1.33780529      -0.45422393       0.51129696
O       -1.08708257      -1.59878302       0.74159350
H       -0.24769804       2.03087279      -1.32965608
H        2.42766156      -1.06134060       0.57325007
H       -2.19523143       0.08908436       0.94234775
10
Frame=5 idx=007208 GeodesicLength=0.13833158823173253 rxn_smarts="[N:1](=[C:2](\[O:3][C:4](=[O:5])[H:9])[C:6](=[O:7])[H:10])\[H:8]>>[N:1](=[C:2](\[O+:3]=[C-:4][O:5][H:9])[C:6](=[O:7])[H:10])\[H:8]"
N       -0.89665409       1.55602688      -0.70326068
C       -0.50869914       0.40454904      -0.41423733
O        0.57830881      -0.22852115      -1.01428335
C        1.63319233      -0.53330451      -0.26722961
O        1.63531111      -0.18542120       0.95046058
C       -1.33383495      -0.45398350       0.51197912
O       -1.07590666      -1.59598695       0.74721694
H       -0.25146628       2.03299296      -1.33046887
H        2.41373199      -1.08276594       0.57857128
H       -2.19398313       0.08641437       0.94125191
10
Frame=6 idx=007208 GeodesicLength=0.16538266320671227 rxn_smarts="[N:1](=[C:2](\[O:3][C:4](=[O:5])[H:9])[C:6](=[O:7])[H:10])\[H:8]>>[N:1](=[C:2](\[O+:3]=[C-:4][O:5][H:9])[C:6](=[O:7])[H:10])\[H:8]"
N       -0.90170672       1.55495248      -0.70795850
C       -0.50841559       0.40601298      -0.41554426
O        0.57942865      -0.22499899      -1.01458695
C        1.63931605      -0.51952354      -0.26928009
O        1.63365969      -0.18608711       0.95053284
C       -1.33030030      -0.45376440       0.51243378
O       -1.06561429      -1.59328928       0.75239602
H       -0.25492844       2.03485674      -1.33132259
H        2.40112890      -1.10232424       0.58278751
H       -2.19256795       0.08416537       0.94054223
10
Frame=7 idx=007208 GeodesicLength=0.19235025819578774 rxn_smarts="[N:1](=[C:2](\[O:3][C:4](=[O:5])[H:9])[C:6](=[O:7])[H:10])\[H:8]>>[N:1](=[C:2](\[O+:3]=[C-:4][O:5][H:9])[C:6](=[O:7])[H:10])\[H:8]"
N       -0.90647935       1.55389839      -0.71248756
C       -0.50806204       0.40747209      -0.41665085
O        0.58060766      -0.22162392      -1.01456304
C        1.64517721      -0.50615489      -0.27079861
O        1.63178273      -0.18750152       0.95101234
C       -1.32704667      -0.45349165       0.51282107
O       -1.05602157      -1.59063414       0.75722378
H       -0.25839331       2.03643121      -1.33250232
H        2.38965230      -1.12057332       0.58602942
H       -2.19121695       0.08217774       0.93991576
10
Frame=8 idx=007208 GeodesicLength=0.21925512605019196 rxn_smarts="[N:1](=[C:2](\[O:3][C:4](=[O:5])[H:9])[C:6](=[O:7])[H:10])\[H:8]>>[N:1](=[C:2](\[O+:3]=[C-:4][O:5][H:9])[C:6](=[O:7])[H:10])\[H:8]"
N       -0.91103196       1.55288361      -0.71685072
C       -0.50760608       0.40899064      -0.41750000
O        0.58185860      -0.21831247      -1.01421436
C        1.65084476      -0.49309048      -0.27184026
O        1.62979704      -0.18957672       0.95183962
C       -1.32397636      -0.45312337       0.51324120
O       -1.04699062      -1.58798242       0.76179449
H       -0.26196628       2.03774062      -1.33406754
H        2.37912728      -1.13788076       0.58839438
H       -2.19005638       0.08035134       0.93920319
10
Frame=9 idx=007208 GeodesicLength=0.2461200343015319 rxn_smarts="[N:1](=[C:2](\[O:3][C:4](=[O:5])[H:9])[C:6](=[O:7])[H:10])\[H:8]>>[N:1](=[C:2](\[O+:3]=[C-:4][O:5][H:9])[C:6](=[O:7])[H:10])\[H:8]"
N       -0.91541303       1.55190210      -0.72106811
C       -0.50703559       0.41059780      -0.41806481
O        0.58317238      -0.21502914      -1.01355870
C        1.65635947      -0.48025895      -0.27247107
O        1.62781120      -0.19219102       0.95292652
C       -1.32099790      -0.45262029       0.51380239
O       -1.03838117      -1.58528489       0.76624802
H       -0.26565245       2.03882635      -1.33596753
H        2.36937318      -1.15452005       0.58994857
H       -2.18923608       0.07857810       0.93820471
10
Frame=10 idx=007208 GeodesicLength=0.2729754330990025 rxn_smarts="[N:1](=[C:2](\[O:3][C:4](=[O:5])[H:9])[C:6](=[O:7])[H:10])\[H:8]>>[N:1](=[C:2](\[O+:3]=[C-:4][O:5][H:9])[C:6](=[O:7])[H:10])\[H:8]"
N       -0.91976922       1.55092180      -0.72533970
C       -0.50638099       0.41227265      -0.41865809
O        0.58483558      -0.21148600      -1.01264935
C        1.66177345      -0.46739690      -0.27239609
O        1.62537468      -0.19537855       0.95461133
C       -1.31835620      -0.45235143       0.51369005
O       -1.03035716      -1.58293270       0.76961868
H       -0.26988376       2.03959606      -1.33876289
H        2.35994037      -1.17066092       0.59120003
H       -2.18717675       0.07741599       0.93868605
10
Frame=11 idx=007208 GeodesicLength=0.29987899865405226 rxn_smarts="[N:1](=[C:2](\[O:3][C:4](=[O:5])[H:9])[C:6](=[O:7])[H:10])\[H:8]>>[N:1](=[C:2](\[O+:3]=[C-:4][O:5][H:9])[C:6](=[O:7])[H:10])\[H:8]"
N       -0.92411743       1.55002932      -0.72958351
C       -0.50560165       0.41409850      -0.41925905
O        0.58696346      -0.20749789      -1.01147437
C        1.66718183      -0.45439471      -0.27153412
O        1.62250596      -0.19916736       0.95698847
C       -1.31605566      -0.45237229       0.51280679
O       -1.02289103      -1.58100796       0.77172268
H       -0.27494417       2.03998559      -1.34283376
H        2.35061398      -1.18657810       0.59226551
H       -2.18365529       0.07690490       0.94090135
10
Frame=12 idx=007208 GeodesicLength=0.32675044338421133 rxn_smarts="[N:1](=[C:2](\[O:3][C:4](=[O:5])[H:9])[C:6](=[O:7])[H:10])\[H:8]>>[N:1](=[C:2](\[O+:3]=[C-:4][O:5][H:9])[C:6](=[O:7])[H:10])\[H:8]"
N       -0.92910204       1.54825390      -0.73532946
C       -0.50509836       0.41548789      -0.42040768
O        0.58906489      -0.20391145      -1.01036033
C        1.67223683      -0.44140084      -0.27028264
O        1.61908988      -0.20287269       0.95942822
C       -1.31416348      -0.45267070       0.51136187
O       -1.01585809      -1.57927326       0.77349664
H       -0.27883912       2.04080840      -1.34535693
H        2.34165239      -1.20152860       0.59300617
H       -2.17898290       0.07710736       0.94444413
10
Frame=13 idx=007208 GeodesicLength=0.3535255914815835 rxn_smarts="[N:1](=[C:2](\[O:3][C:4](=[O:5])[H:9])[C:6](=[O:7])[H:10])\[H:8]>>[N:1](=[C:2](\[O+:3]=[C-:4][O:5][H:9])[C:6](=[O:7])[H:10])\[H:8]"
N       -0.93334950       1.54712981      -0.73974048
C       -0.50429344       0.41725382      -0.42085604
O        0.59123782      -0.20009718      -1.00878605
C        1.67722444      -0.42866373      -0.26867314
O        1.61600397      -0.20716770       0.96202309
C       -1.31207129      -0.45260168       0.51047824
O       -1.00900482      -1.57733918       0.77535932
H       -0.28365365       2.04095259      -1.34935322
H        2.33340256      -1.21637337       0.59291169
H       -2.17549609       0.07690662       0.94663659
10
Frame=14 idx=007208 GeodesicLength=0.3802628250698155 rxn_smarts="[N:1](=[C:2](\[O:3][C:4](=[O:5])[H:9])[C:6](=[O:7])[H:10])\[H:8]>>[N:1](=[C:2](\[O+:3]=[C-:4][O:5][H:9])[C:6](=[O:7])[H:10])\[H:8]"
N       -0.93752056       1.54587035      -0.74425200
C       -0.50357836       0.41890548      -0.42121289
O        0.59320023      -0.19664186      -1.00712086
C        1.68198525      -0.41621889      -0.26698149
O        1.61308796      -0.21156464       0.96442785
C       -1.31004388      -0.45232663       0.51004377
O       -1.00239672      -1.57519683       0.77780044
H       -0.28783071       2.04118788      -1.35269933
H        2.32609836      -1.23056455       0.59210486
H       -2.17300156       0.07654969       0.94788964
10
Frame=15 idx=007208 GeodesicLength=0.4069568225054705 rxn_smarts="[N:1](=[C:2](\[O:3][C:4](=[O:5])[H:9])[C:6](=[O:7])[H:10])\[H:8]>>[N:1](=[C:2](\[O+:3]=[C-:4][O:5][H:9])[C:6](=[O:7])[H:10])\[H:8]"
N       -0.94161628       1.54451704      -0.74881031
C       -0.50290529       0.42048896      -0.42151685
O        0.59508744      -0.19337041      -1.00533931
C        1.68654562      -0.40395277      -0.26508609
O        1.61020540      -0.21607983       0.96677495
C       -1.30809375      -0.45195258       0.50978588
O       -0.99601932      -1.57296523       0.78043536
H       -0.29169915       2.04140729      -1.35577389
H        2.31942436      -1.24428329       0.59077556
H       -2.17092904       0.07619081       0.94875471
10
Frame=16 idx=007208 GeodesicLength=0.43362312625252697 rxn_smarts="[N:1](=[C:2](\[O:3][C:4](=[O:5])[H:9])[C:6](=[O:7])[H:10])\[H:8]>>[N:1](=[C:2](\[O+:3]=[C-:4][O:5][H:9])[C:6](=[O:7])[H:10])\[H:8]"
N       -0.94566238       1.54310148      -0.75341479
C       -0.50226342       0.42202434      -0.42185653
O        0.59703276      -0.19012366      -1.00344339
C        1.69093352      -0.39176375      -0.26284914
O        1.60719568      -0.22074538       0.96921423
C       -1.30629692      -0.45161729       0.50939723
O       -0.98991874      -1.57080044       0.78285637
H       -0.29552116       2.04153473      -1.35891458
H        2.31316022      -1.25763908       0.58911989
H       -2.16865957       0.07602904       0.94989070
