15
Frame=0 idx=011743 GeodesicLength=0.0 rxn_smarts="[C:1]([C@:2]12[C:3]([H:11])([H:12])[O:4][C@@:5]1([H:13])[C@:6]2([O:7][H:15])[H:14])([H:8])([H:9])[H:10]>>[C:1]([C:2]1([C:6][O:7][H:15])[C:3]([H:11])([H:12])[O:4][C:5]1([H:13])[H:14])([H:8])([H:9])[H:10]"
C       -1.36877995       1.12643980      -0.31734565
C       -0.24380151       0.15255889      -0.11701513
C        0.05887583      -0.46627894       1.25638266
O        1.48017176      -0.33647910       1.02957065
C        1.22691751       0.41150832      -0.12672706
C        0.23744364      -0.67963640      -1.29102692
O        0.49340790      -1.98722007      -1.07922121
H       -1.38238415       1.88868333       0.46533530
H       -1.27333103       1.61852812      -1.28487715
H       -2.32895041       0.60528359      -0.30601836
H       -0.24361087      -1.49812362       1.46843096
H       -0.25546552       0.17315045       2.08268111
H        1.75693815       1.34932103      -0.27648564
H        1.40528960      -0.11051820      -1.35488034
H        0.43727911      -2.24721717      -0.14880328
15
Frame=1 idx=011743 GeodesicLength=0.04759190369944974 rxn_smarts="[C:1]([C@:2]12[C:3]([H:11])([H:12])[O:4][C@@:5]1([H:13])[C@:6]2([O:7][H:15])[H:14])([H:8])([H:9])[H:10]>>[C:1]([C:2]1([C:6][O:7][H:15])[C:3]([H:11])([H:12])[O:4][C:5]1([H:13])[H:14])([H:8])([H:9])[H:10]"
C       -1.36755319       1.13069526      -0.31794605
C       -0.24903150       0.15025160      -0.11486842
C        0.05410420      -0.46686272       1.25815845
O        1.47568967      -0.34674959       1.02773690
C        1.22483378       0.40359438      -0.12990509
C        0.22658515      -0.68699007      -1.28609272
O        0.48832199      -1.99294562      -1.07950901
H       -1.37631415       1.89446109       0.46331949
H       -1.26945748       1.62157891      -1.28594683
H       -2.33043336       0.61465200      -0.30647121
H       -0.25562542      -1.49646531       1.46970769
H       -0.25422674       0.17590037       2.08432655
H        1.74922137       1.34685536      -0.26500002
H        1.39865280      -0.10205199      -1.37224735
H        0.48523288      -2.24592367      -0.14526236
15
Frame=2 idx=011743 GeodesicLength=0.09511277593017323 rxn_smarts="[C:1]([C@:2]12[C:3]([H:11])([H:12])[O:4][C@@:5]1([H:13])[C@:6]2([O:7][H:15])[H:14])([H:8])([H:9])[H:10]>>[C:1]([C:2]1([C:6][O:7][H:15])[C:3]([H:11])([H:12])[O:4][C:5]1([H:13])[H:14])([H:8])([H:9])[H:10]"
C       -1.36626539       1.13476182      -0.31859346
C       -0.25413772       0.14799299      -0.11264994
C        0.04948121      -0.46748910       1.25995553
O        1.47127183      -0.35662071       1.02612052
C        1.22282537       0.39579152      -0.13305335
C        0.21595065      -0.69447292      -1.28092058
O        0.48314905      -1.99876252      -1.07869512
H       -1.37025823       1.90005318       0.46120088
H       -1.26554908       1.62432490      -1.28709983
H       -2.33176288       0.62372314      -0.30697424
H       -0.26710369      -1.49492011       1.47095324
H       -0.25305690       0.17845805       2.08595401
H        1.74164265       1.34416297      -0.25366315
H        1.39193496      -0.09359889      -1.38929167
H        0.53187817      -2.24340433      -0.14324286
15
Frame=3 idx=011743 GeodesicLength=0.1426055788652712 rxn_smarts="[C:1]([C@:2]12[C:3]([H:11])([H:12])[O:4][C@@:5]1([H:13])[C@:6]2([O:7][H:15])[H:14])([H:8])([H:9])[H:10]>>[C:1]([C:2]1([C:6][O:7][H:15])[C:3]([H:11])([H:12])[O:4][C:5]1([H:13])[H:14])([H:8])([H:9])[H:10]"
C       -1.36494385       1.13866050      -0.31929319
C       -0.25912598       0.14578042      -0.11036221
C        0.04500469      -0.46815079       1.26180514
O        1.46693479      -0.36618188       1.02470400
C        1.22089519       0.38809810      -0.13616367
C        0.20555107      -0.70206132      -1.27555017
O        0.47800121      -2.00466012      -1.07688946
H       -1.36426277       1.90548679       0.45898948
H       -1.26163599       1.62680367      -1.28835547
H       -2.33296910       0.63251549      -0.30753548
H       -0.27811648      -1.49346137       1.47226255
H       -0.25192601       0.18087568       2.08760383
H        1.73421697       1.34125327      -0.24247167
H        1.38517023      -0.08513561      -1.40605012
H        0.57720604      -2.23982285      -0.14269356
15
Frame=4 idx=011743 GeodesicLength=0.19006888686117304 rxn_smarts="[C:1]([C@:2]12[C:3]([H:11])([H:12])[O:4][C@@:5]1([H:13])[C@:6]2([O:7][H:15])[H:14])([H:8])([H:9])[H:10]>>[C:1]([C:2]1([C:6][O:7][H:15])[C:3]([H:11])([H:12])[O:4][C:5]1([H:13])[H:14])([H:8])([H:9])[H:10]"
C       -1.36358694       1.14238842      -0.32004825
C       -0.26399584       0.14360157      -0.10801340
C        0.04067550      -0.46883133       1.26371383
O        1.46267876      -0.37550201       1.02345765
C        1.21903897       0.38051090      -0.13922872
C        0.19538277      -0.70974805      -1.27000412
O        0.47296328      -2.01063490      -1.07418987
H       -1.35833301       1.91076040       0.45669177
H       -1.25771822       1.62903104      -1.28970888
H       -2.33404684       0.64101792      -0.30816818
H       -0.28873790      -1.49204839       1.47369269
H       -0.25078390       0.18320756       2.08928076
H        1.72692324       1.33815442      -0.23138096
H        1.37835550      -0.07662153      -1.42254682
H        0.62118462      -2.23528605      -0.14354749
15
Frame=5 idx=011743 GeodesicLength=0.23750206166386792 rxn_smarts="[C:1]([C@:2]12[C:3]([H:11])([H:12])[O:4][C@@:5]1([H:13])[C@:6]2([O:7][H:15])[H:14])([H:8])([H:9])[H:10]>>[C:1]([C:2]1([C:6][O:7][H:15])[C:3]([H:11])([H:12])[O:4][C:5]1([H:13])[H:14])([H:8])([H:9])[H:10]"
C       -1.36219668       1.14593928      -0.32085083
C       -0.26876146       0.14144350      -0.10559965
C        0.03647620      -0.46951809       1.26567404
O        1.45849358      -0.38464318       1.02233825
C        1.21724791       0.37301384      -0.14224152
C        0.18542976      -0.71751116      -1.26427382
O        0.46810317      -2.01663491      -1.07066022
H       -1.35245309       1.91587041       0.45429200
H       -1.25379945       1.63098303      -1.29114689
H       -2.33501193       0.64925042      -0.30885100
H       -0.29906126      -1.49062672       1.47526338
H       -0.24960644       0.18548889       2.09096133
H        1.71977295       1.33483773      -0.22037155
H        1.37148360      -0.06801986      -1.43878488
H        0.66388313      -2.22987318      -0.14574862
15
Frame=6 idx=011743 GeodesicLength=0.2849215246936516 rxn_smarts="[C:1]([C@:2]12[C:3]([H:11])([H:12])[O:4][C@@:5]1([H:13])[C@:6]2([O:7][H:15])[H:14])([H:8])([H:9])[H:10]>>[C:1]([C:2]1([C:6][O:7][H:15])[C:3]([H:11])([H:12])[O:4][C:5]1([H:13])[H:14])([H:8])([H:9])[H:10]"
C       -1.36076034       1.14930498      -0.32169948
C       -0.27343261       0.13928603      -0.10312746
C        0.03239338      -0.47020297       1.26768416
O        1.45436606      -0.39364932       1.02131688
C        1.21551357       0.36559920      -0.14520453
C        0.17567159      -0.72535417      -1.25836296
O        0.46347568      -2.02265117      -1.06636642
H       -1.34659761       1.92080274       0.45179179
H       -1.24985747       1.63266640      -1.29265653
H       -2.33586349       0.65721596      -0.30958371
H       -0.30916770      -1.48916429       1.47700195
H       -0.24836768       0.18774609       2.09263523
H        1.71275409       1.33131411      -0.20941934
H        1.36453059      -0.05928585      -1.45478539
H        0.70534195      -2.22362774      -0.14922419
15
Frame=7 idx=011743 GeodesicLength=0.33234397369587126 rxn_smarts="[C:1]([C@:2]12[C:3]([H:11])([H:12])[O:4][C@@:5]1([H:13])[C@:6]2([O:7][H:15])[H:14])([H:8])([H:9])[H:10]>>[C:1]([C:2]1([C:6][O:7][H:15])[C:3]([H:11])([H:12])[O:4][C:5]1([H:13])[H:14])([H:8])([H:9])[H:10]"
C       -1.35930425       1.15252089      -0.32260503
C       -0.27801477       0.13713292      -0.10060145
C        0.02843401      -0.47088244       1.26977568
O        1.45030440      -0.40258938       1.02039989
C        1.21383107       0.35826392      -0.14810584
C        0.16610886      -0.73328042      -1.25231147
O        0.45912866      -2.02871487      -1.06140203
H       -1.34080703       1.92561118       0.44920192
H       -1.24592967       1.63412981      -1.29426559
H       -2.33662232       0.66494199      -0.31038901
H       -0.31909245      -1.48765562       1.47895727
H       -0.24703213       0.19002209       2.09435020
H        1.70585562       1.32760332      -0.19849757
H        1.35751117      -0.05042220      -1.47057247
H        0.74562886      -2.21668118      -0.15393450
15
Frame=8 idx=011743 GeodesicLength=0.3797581771217456 rxn_smarts="[C:1]([C@:2]12[C:3]([H:11])([H:12])[O:4][C@@:5]1([H:13])[C@:6]2([O:7][H:15])[H:14])([H:8])([H:9])[H:10]>>[C:1]([C:2]1([C:6][O:7][H:15])[C:3]([H:11])([H:12])[O:4][C:5]1([H:13])[H:14])([H:8])([H:9])[H:10]"
C       -1.35780794       1.15555565      -0.32355567
C       -0.28251677       0.13497105      -0.09801644
C        0.02457481      -0.47154311       1.27192473
O        1.44628224      -0.41148951       1.01953618
C        1.21219214       0.35100135      -0.15094628
C        0.15671838      -0.74126654      -1.24608869
O        0.45505985      -2.03476101      -1.05578177
H       -1.33504067       1.93025260       0.44650414
H       -1.24198525       1.63532686      -1.29594402
H       -2.33728016       0.67241441      -0.31124311
H       -0.32892062      -1.48604821       1.48111601
H       -0.24558457       0.19232943       2.09605697
H        1.69909039       1.32368347      -0.18759767
H        1.35041608      -0.04139262      -1.48612655
H        0.78480209      -2.20903381      -0.15983784
15
Frame=9 idx=011743 GeodesicLength=0.42719976266880866 rxn_smarts="[C:1]([C@:2]12[C:3]([H:11])([H:12])[O:4][C@@:5]1([H:13])[C@:6]2([O:7][H:15])[H:14])([H:8])([H:9])[H:10]>>[C:1]([C:2]1([C:6][O:7][H:15])[C:3]([H:11])([H:12])[O:4][C:5]1([H:13])[H:14])([H:8])([H:9])[H:10]"
C       -1.35628631       1.15844143      -0.32455981
C       -0.28695244       0.13278969      -0.09538039
C        0.02081372      -0.47218824       1.27415519
O        1.44230053      -0.42040360       1.01873464
C        1.21058839       0.34379733      -0.15372235
C        0.14749109      -0.74933908      -1.23972356
O        0.45133489      -2.04082966      -1.04957411
H       -1.32929741       1.93478013       0.44369980
H       -1.23804927       1.63629398      -1.29771691
H       -2.33785990       0.67968013      -0.31214952
H       -0.33868775      -1.48434206       1.48350996
H       -0.24400772       0.19469260       2.09779132
H        1.69243415       1.31956531      -0.17668522
H        1.34322928      -0.03218366      -1.50148316
H        0.82294876      -2.20075430      -0.16689588
15
Frame=10 idx=011743 GeodesicLength=0.47468883147081653 rxn_smarts="[C:1]([C@:2]12[C:3]([H:11])([H:12])[O:4][C@@:5]1([H:13])[C@:6]2([O:7][H:15])[H:14])([H:8])([H:9])[H:10]>>[C:1]([C:2]1([C:6][O:7][H:15])[C:3]([H:11])([H:12])[O:4][C:5]1([H:13])[H:14])([H:8])([H:9])[H:10]"
C       -1.35475051       1.16118882      -0.32561784
C       -0.29133509       0.13058547      -0.09269051
C        0.01714001      -0.47281281       1.27647414
O        1.43835351      -0.42937104       1.01798518
C        1.20901566       0.33663916      -0.15642752
C        0.13841183      -0.75749973      -1.23321800
O        0.44796909      -2.04691194      -1.04281109
H       -1.32357433       1.93921347       0.44078173
H       -1.23413350       1.63703025      -1.29958973
H       -2.33838353       0.68676670      -0.31310503
H       -0.34843726      -1.48251398       1.48614805
H       -0.24229216       0.19712958       2.09955991
H        1.68589332       1.31523209      -0.16574317
H        1.33595208      -0.02279411      -1.51664451
H        0.86017087      -2.19188192      -0.17510161
15
Frame=11 idx=011743 GeodesicLength=0.5222043417860095 rxn_smarts="[C:1]([C@:2]12[C:3]([H:11])([H:12])[O:4][C@@:5]1([H:13])[C@:6]2([O:7][H:15])[H:14])([H:8])([H:9])[H:10]>>[C:1]([C:2]1([C:6][O:7][H:15])[C:3]([H:11])([H:12])[O:4][C:5]1([H:13])[H:14])([H:8])([H:9])[H:10]"
C       -1.35316658       1.16376577      -0.32672110
C       -0.29566784       0.12833481      -0.08995341
C        0.01353415      -0.47341235       1.27885847
O        1.43440620      -0.43840963       1.01724664
C        1.20745955       0.32952675      -0.15906919
C        0.12947048      -0.76574914      -1.22654993
O        0.44503603      -2.05296859      -1.03551879
H       -1.31779151       1.94352520       0.43771984
H       -1.23021424       1.63748938      -1.30154588
H       -2.33882158       0.69365543      -0.31405724
H       -0.35823609      -1.48053473       1.48901504
H       -0.24042106       0.19964182       2.10131826
H        1.67944453       1.31069029      -0.15475206
H        1.32855250      -0.01315791      -1.53160620
H        0.89641547      -2.18239713      -0.18438444
15
Frame=12 idx=011743 GeodesicLength=0.5697342584572701 rxn_smarts="[C:1]([C@:2]12[C:3]([H:11])([H:12])[O:4][C@@:5]1([H:13])[C@:6]2([O:7][H:15])[H:14])([H:8])([H:9])[H:10]>>[C:1]([C:2]1([C:6][O:7][H:15])[C:3]([H:11])([H:12])[O:4][C:5]1([H:13])[H:14])([H:8])([H:9])[H:10]"
C       -1.35153859       1.16618559      -0.32787978
C       -0.29994950       0.12605355      -0.08715982
C        0.01000426      -0.47398669       1.28131686
O        1.43044813      -0.44754988       1.01651203
C        1.20590704       0.32247379      -0.16163467
C        0.12065144      -0.77407193      -1.21971358
O        0.44244758      -2.05900526      -1.02768563
H       -1.31199920       1.94771714       0.43452221
H       -1.22627843       1.63770915      -1.30358523
H       -2.33916289       0.70033780      -0.31505918
H       -0.36807899      -1.47840820       1.49212558
H       -0.23837363       0.20223873       2.10307010
H        1.67308888       1.30595705      -0.14372027
H        1.32105449      -0.00330130      -1.54633872
H        0.93177941      -2.17234955      -0.19476990
15
Frame=13 idx=011743 GeodesicLength=0.6173244985930034 rxn_smarts="[C:1]([C@:2]12[C:3]([H:11])([H:12])[O:4][C@@:5]1([H:13])[C@:6]2([O:7][H:15])[H:14])([H:8])([H:9])[H:10]>>[C:1]([C:2]1([C:6][O:7][H:15])[C:3]([H:11])([H:12])[O:4][C:5]1([H:13])[H:14])([H:8])([H:9])[H:10]"
C       -1.34989241       1.16845720      -0.32908889
C       -0.30419363       0.12372692      -0.08431911
C        0.00653934      -0.47452156       1.28386456
O        1.42649435      -0.45683699       1.01577795
C        1.20437585       0.31544701      -0.16412773
C        0.11196432      -0.78249099      -1.21273685
O        0.44033253      -2.06501602      -1.01939518
H       -1.30619636       1.95180930       0.43119588
H       -1.22236254       1.63767518      -1.30572099
H       -2.33945854       0.70685955      -0.31607792
H       -0.37801089      -1.47608988       1.49549096
H       -0.23614795       0.20494894       2.10484373
H        1.66683806       1.30099219      -0.13261553
H        1.31346925       0.00678931      -1.56088261
H        0.96624862      -2.16175015      -0.20620828
15
Frame=14 idx=011743 GeodesicLength=0.6649505718641391 rxn_smarts="[C:1]([C@:2]12[C:3]([H:11])([H:12])[O:4][C@@:5]1([H:13])[C@:6]2([O:7][H:15])[H:14])([H:8])([H:9])[H:10]>>[C:1]([C:2]1([C:6][O:7][H:15])[C:3]([H:11])([H:12])[O:4][C:5]1([H:13])[H:14])([H:8])([H:9])[H:10]"
C       -1.34822803       1.17058074      -0.33035742
C       -0.30839545       0.12136014      -0.08143239
C        0.00314982      -0.47501625       1.28650435
O        1.42253972      -0.46629919       1.01503570
C        1.20286202       0.30846344      -0.16653739
C        0.10340118      -0.79099809      -1.20562119
O        0.43869043      -2.07099851      -1.01067545
H       -1.30039297       1.95580586       0.42773340
H       -1.21847625       1.63739858      -1.30796093
H       -2.33969792       0.71319509      -0.31713317
H       -0.38803624      -1.47358308       1.49911352
H       -0.23370597       0.20778307       2.10663643
H        1.66069630       1.29582480      -0.12142304
H        1.30580755       0.01713545      -1.57522092
H        0.99978582      -2.15065203      -0.21866149
15
Frame=15 idx=011743 GeodesicLength=0.7125977510632571 rxn_smarts="[C:1]([C@:2]12[C:3]([H:11])([H:12])[O:4][C@@:5]1([H:13])[C@:6]2([O:7][H:15])[H:14])([H:8])([H:9])[H:10]>>[C:1]([C:2]1([C:6][O:7][H:15])[C:3]([H:11])([H:12])[O:4][C:5]1([H:13])[H:14])([H:8])([H:9])[H:10]"
C       -1.34654498       1.17254360      -0.33168147
C       -0.31255044       0.11895476      -0.07850138
C       -0.00016490      -0.47545838       1.28923031
O        1.41857587      -0.47595878       1.01426151
C        1.20136854       0.30152262      -0.16886474
C        0.09496542      -0.79958066      -1.19836536
O        0.43753862      -2.07692295      -1.00155900
H       -1.29460331       1.95968297       0.42414021
H       -1.21461727       1.63687107      -1.31029313
H       -2.33987582       0.71932451      -0.31822520
H       -0.39817198      -1.47085797       1.50298719
H       -0.23103004       0.21075308       2.10843537
H        1.65467065       1.29044781      -0.11013930
H        1.29809680       0.02774738      -1.58934412
H        1.03234284      -2.13906905      -0.23208089
15
Frame=16 idx=011743 GeodesicLength=0.7602551908676397 rxn_smarts="[C:1]([C@:2]12[C:3]([H:11])([H:12])[O:4][C@@:5]1([H:13])[C@:6]2([O:7][H:15])[H:14])([H:8])([H:9])[H:10]>>[C:1]([C:2]1([C:6][O:7][H:15])[C:3]([H:11])([H:12])[O:4][C:5]1([H:13])[H:14])([H:8])([H:9])[H:10]"
C       -1.34484848       1.17434202      -0.33306182
C       -0.31665482       0.11651332      -0.07552999
C       -0.00339951      -0.47584022       1.29204190
O        1.41460170      -0.48583585       1.01344279
C        1.19989996       0.29462763      -0.17110861
C        0.08665848      -0.80823166      -1.19097620
O        0.43689713      -2.08277442      -0.99208988
H       -1.28884643       1.96343083       0.42042334
H       -1.21079254       1.63609828      -1.31271425
H       -2.33999394       0.72523254      -0.31936257
H       -0.40842213      -1.46789910       1.50710805
H       -0.22809849       0.21386878       2.11023806
H        1.64876845       1.28486531      -0.09875823
H        1.29036436       0.03863661      -1.60324789
H        1.06386627      -2.12703409      -0.24640470
