12
Frame=0 idx=001417 GeodesicLength=0.0 rxn_smarts="[C:1]([C:2](=[O:3])[C:4]([C:5](=[O:6])[H:12])([H:10])[H:11])([H:7])([H:8])[H:9]>>[C:1](/[C:2]([O:3][H:11])=[C:4](/[C:5](=[O:6])[H:12])[H:10])([H:7])([H:8])[H:9]"
C        1.60113531       0.42509014      -0.67316680
C        0.40355623       0.45200867       0.19615351
O       -0.05187178       1.52979484       0.68479655
C       -0.43581785      -0.63120446       0.62363293
C       -1.78796718      -0.66559266       0.04926876
O       -2.51986865      -1.62288823       0.09145258
H        1.28778130       0.19904275      -1.69544209
H        2.25538670      -0.39029391      -0.35977463
H        2.13642249       1.37081083      -0.64735212
H       -0.02534367      -1.60696802       0.86054892
H       -0.74036120       0.65637378       1.29131811
H       -2.12305166       0.28382632      -0.42143571
12
Frame=1 idx=001417 GeodesicLength=0.04212361324263157 rxn_smarts="[C:1]([C:2](=[O:3])[C:4]([C:5](=[O:6])[H:12])([H:10])[H:11])([H:7])([H:8])[H:9]>>[C:1](/[C:2]([O:3][H:11])=[C:4](/[C:5](=[O:6])[H:12])[H:10])([H:7])([H:8])[H:9]"
C        1.60758577       0.42223451      -0.67142547
C        0.39398035       0.45571824       0.17496031
O       -0.04322595       1.52830408       0.69204554
C       -0.43906062      -0.63053931       0.60779818
C       -1.79942736      -0.66028879       0.05063035
O       -2.52342162      -1.62386653       0.07739617
H        1.31789549       0.13819336      -1.68599304
H        2.28201752      -0.35508882      -0.30796218
H        2.11542194       1.38336555      -0.68378920
H       -0.02131989      -1.61020262       0.81402712
H       -0.73505392       0.64878440       1.30587396
H       -2.15539172       0.30338593      -0.37356175
12
Frame=2 idx=001417 GeodesicLength=0.08417941003524981 rxn_smarts="[C:1]([C:2](=[O:3])[C:4]([C:5](=[O:6])[H:12])([H:10])[H:11])([H:7])([H:8])[H:9]>>[C:1](/[C:2]([O:3][H:11])=[C:4](/[C:5](=[O:6])[H:12])[H:10])([H:7])([H:8])[H:9]"
C        1.61394270       0.41935461      -0.66950563
C        0.38396029       0.45996627       0.15272200
O       -0.03455173       1.52657040       0.69826153
C       -0.44222571      -0.62967450       0.59124105
C       -1.81083187      -0.65507335       0.05197421
O       -2.52722613      -1.62437288       0.06317945
H        1.34992919       0.07861028      -1.67337089
H        2.30548681      -0.31755442      -0.25714773
H        2.09518421       1.39295885      -0.72071187
H       -0.01784171      -1.61244977       0.76703253
H       -0.72891548       0.64058569       1.32003377
H       -2.18691057       0.32107880      -0.32370843
12
Frame=3 idx=001417 GeodesicLength=0.1255011051921614 rxn_smarts="[C:1]([C:2](=[O:3])[C:4]([C:5](=[O:6])[H:12])([H:10])[H:11])([H:7])([H:8])[H:9]>>[C:1](/[C:2]([O:3][H:11])=[C:4](/[C:5](=[O:6])[H:12])[H:10])([H:7])([H:8])[H:9]"
C        1.61967623       0.41654150      -0.66753821
C        0.37399770       0.46476468       0.13073143
O       -0.02603079       1.52495335       0.70347341
C       -0.44515112      -0.62833884       0.57507551
C       -1.82158727      -0.65022641       0.05346908
O       -2.53066401      -1.62466187       0.04926399
H        1.38130209       0.02319436      -1.65830343
H        2.32437978      -0.28026266      -0.21012321
H        2.07707821       1.39904890      -0.75605321
H       -0.01475193      -1.61332057       0.72153428
H       -0.72264540       0.63251496       1.33370740
H       -2.21560349       0.33579261      -0.27523703
12
Frame=4 idx=001417 GeodesicLength=0.1668514259416118 rxn_smarts="[C:1]([C:2](=[O:3])[C:4]([C:5](=[O:6])[H:12])([H:10])[H:11])([H:7])([H:8])[H:9]>>[C:1](/[C:2]([O:3][H:11])=[C:4](/[C:5](=[O:6])[H:12])[H:10])([H:7])([H:8])[H:9]"
C        1.62509277       0.41360199      -0.66539325
C        0.36412471       0.46990185       0.10873628
O       -0.01750163       1.52319268       0.70783066
C       -0.44798784      -0.62675860       0.55877401
C       -1.83191065      -0.64538545       0.05459826
O       -2.53397229      -1.62440939       0.03436420
H        1.41299520      -0.03085379      -1.64019319
H        2.34060676      -0.24133372      -0.16485110
H        2.05959782       1.40247378      -0.79190738
H       -0.01224815      -1.61328618       0.67635987
H       -0.71586232       0.62410255       1.34706563
H       -2.24293438       0.34875428      -0.22538399
12
Frame=5 idx=001417 GeodesicLength=0.20799004698074508 rxn_smarts="[C:1]([C:2](=[O:3])[C:4]([C:5](=[O:6])[H:12])([H:10])[H:11])([H:7])([H:8])[H:9]>>[C:1](/[C:2]([O:3][H:11])=[C:4](/[C:5](=[O:6])[H:12])[H:10])([H:7])([H:8])[H:9]"
C        1.63002181       0.41065421      -0.66316036
C        0.35451166       0.47539358       0.08721169
O       -0.00917726       1.52154868       0.71125060
C       -0.45065304      -0.62482685       0.54285799
C       -1.84166079      -0.64075156       0.05567077
O       -2.53700179      -1.62381569       0.01913768
H        1.44374555      -0.08183218      -1.61977936
H        2.35361230      -0.20242977      -0.12270859
H        2.04370408       1.40316575      -0.82682044
H       -0.01017959      -1.61223291       0.63241497
H       -0.70891337       0.61574339       1.36007833
H       -2.26800957       0.35938335      -0.17615328
12
Frame=6 idx=001417 GeodesicLength=0.24933086883809613 rxn_smarts="[C:1]([C:2](=[O:3])[C:4]([C:5](=[O:6])[H:12])([H:10])[H:11])([H:7])([H:8])[H:9]>>[C:1](/[C:2]([O:3][H:11])=[C:4](/[C:5](=[O:6])[H:12])[H:10])([H:7])([H:8])[H:9]"
C        1.63464209       0.40753758      -0.66074753
C        0.34513926       0.48109039       0.06591463
O       -0.00101644       1.51986376       0.71371241
C       -0.45325798      -0.62264468       0.52699314
C       -1.85097715      -0.63601511       0.05639197
O       -2.53977705      -1.62259367       0.00238890
H        1.47437096      -0.13150749      -1.59653022
H        2.36446562      -0.16217798      -0.08246643
H        2.02838968       1.40138653      -0.86215305
H       -0.00870740      -1.61037727       0.58899000
H       -0.70149219       0.60716035       1.37283516
H       -2.29177939       0.36827761      -0.12532896
12
Frame=7 idx=001417 GeodesicLength=0.2903846009151546 rxn_smarts="[C:1]([C:2](=[O:3])[C:4]([C:5](=[O:6])[H:12])([H:10])[H:11])([H:7])([H:8])[H:9]>>[C:1](/[C:2]([O:3][H:11])=[C:4](/[C:5](=[O:6])[H:12])[H:10])([H:7])([H:8])[H:9]"
C        1.63871129       0.40445580      -0.65829339
C        0.33625193       0.48700163       0.04559385
O        0.00683012       1.51841124       0.71546852
C       -0.45565726      -0.62012673       0.51190694
C       -1.85958567      -0.63155168       0.05702504
O       -2.54224951      -1.62100231      -0.01428351
H        1.50299071      -0.17753322      -1.57174924
H        2.37260300      -0.12301191      -0.04599394
H        2.01482420       1.39732355      -0.89585303
H       -0.00754637      -1.60760253       0.54737193
H       -0.69425410       0.59883751       1.38533150
H       -2.31291833       0.37479865      -0.07652467
12
Frame=8 idx=001417 GeodesicLength=0.33151041649719093 rxn_smarts="[C:1]([C:2](=[O:3])[C:4]([C:5](=[O:6])[H:12])([H:10])[H:11])([H:7])([H:8])[H:9]>>[C:1](/[C:2]([O:3][H:11])=[C:4](/[C:5](=[O:6])[H:12])[H:10])([H:7])([H:8])[H:9]"
C        1.64242490       0.40121673      -0.65574897
C        0.32777691       0.49301407       0.02587953
O        0.01435786       1.51713055       0.71632107
C       -0.45796884      -0.61732555       0.49730108
C       -1.86764231      -0.62708752       0.05726304
O       -2.54434579      -1.61886265      -0.03218702
H        1.53052495      -0.22138022      -1.54510601
H        2.37890982      -0.08380499      -0.01218753
H        2.00226435       1.39112138      -0.92895285
H       -0.00682185      -1.60405136       0.50709129
H       -0.68694646       0.59064728       1.39756131
H       -2.33253355       0.37938227      -0.02723494
12
Frame=9 idx=001417 GeodesicLength=0.3726152372967262 rxn_smarts="[C:1]([C:2](=[O:3])[C:4]([C:5](=[O:6])[H:12])([H:10])[H:11])([H:7])([H:8])[H:9]>>[C:1](/[C:2]([O:3][H:11])=[C:4](/[C:5](=[O:6])[H:12])[H:10])([H:7])([H:8])[H:9]"
C        1.64576693       0.39794231      -0.65313452
C        0.31974656       0.49911765       0.00693813
O        0.02156107       1.51604944       0.71653777
C       -0.46015702      -0.61428066       0.48330408
C       -1.87516893      -0.62270477       0.05728753
O       -2.54622564      -1.61619029      -0.05059835
H        1.55651568      -0.26265873      -1.51703144
H        2.38351732      -0.04513564       0.01868967
H        1.99085785       1.38308373      -0.96105917
H       -0.00644281      -1.59981756       0.46824521
H       -0.67971638       0.58260130       1.40963491
H       -2.35025461       0.38199324       0.02118619
12
Frame=10 idx=001417 GeodesicLength=0.4135983975415004 rxn_smarts="[C:1]([C:2](=[O:3])[C:4]([C:5](=[O:6])[H:12])([H:10])[H:11])([H:7])([H:8])[H:9]>>[C:1](/[C:2]([O:3][H:11])=[C:4](/[C:5](=[O:6])[H:12])[H:10])([H:7])([H:8])[H:9]"
C        1.64873441       0.39462375      -0.65050301
C        0.31218002       0.50527079      -0.01118279
O        0.02843751       1.51519715       0.71619756
C       -0.46221479      -0.61099591       0.47000641
C       -1.88213424      -0.61844454       0.05702163
O       -2.54788316      -1.61305388      -0.06914870
H        1.58073162      -0.30111428      -1.48810118
H        2.38662886      -0.00749995       0.04654139
H        1.98071185       1.37347344      -0.99173081
H       -0.00632215      -1.59493303       0.43110608
H       -0.67273768       0.57480043       1.42153814
H       -2.36613225       0.38267604       0.06825527
12
Frame=11 idx=001417 GeodesicLength=0.45448877339926763 rxn_smarts="[C:1]([C:2](=[O:3])[C:4]([C:5](=[O:6])[H:12])([H:10])[H:11])([H:7])([H:8])[H:9]>>[C:1](/[C:2]([O:3][H:11])=[C:4](/[C:5](=[O:6])[H:12])[H:10])([H:7])([H:8])[H:9]"
C        1.65138315       0.39127494      -0.64783944
C        0.30502585       0.51146983      -0.02859300
O        0.03499326       1.51457390       0.71535050
C       -0.46415546      -0.60748895       0.45733984
C       -1.88861923      -0.61428172       0.05651418
O       -2.54935658      -1.60947354      -0.08779817
H        1.60327712      -0.33699127      -1.45847560
H        2.38850443       0.02909395       0.07165253
H        1.97172274       1.36250375      -1.02104273
H       -0.00643246      -1.58946705       0.39552931
H       -0.66598699       0.56721725       1.43330871
H       -2.38035582       0.38156891       0.11405386
12
Frame=12 idx=001417 GeodesicLength=0.4952576064128451 rxn_smarts="[C:1]([C:2](=[O:3])[C:4]([C:5](=[O:6])[H:12])([H:10])[H:11])([H:7])([H:8])[H:9]>>[C:1](/[C:2]([O:3][H:11])=[C:4](/[C:5](=[O:6])[H:12])[H:10])([H:7])([H:8])[H:9]"
C        1.65372605       0.38795131      -0.64513832
C        0.29826285       0.51770706      -0.04528554
O        0.04128860       1.51411917       0.71420781
C       -0.46597286      -0.60379951       0.44527220
C       -1.89466469      -0.61022514       0.05583494
O       -2.55072957      -1.60547758      -0.10621546
H        1.62413291      -0.37042658      -1.42832028
H        2.38935697       0.06460637       0.09419631
H        1.96374103       1.35040122      -1.04905871
H       -0.00673624      -1.58349589       0.36137370
H       -0.65948330       0.55975946       1.44503546
H       -2.39292175       0.37888013       0.15809788
12
Frame=13 idx=001417 GeodesicLength=0.5359803398665881 rxn_smarts="[C:1]([C:2](=[O:3])[C:4]([C:5](=[O:6])[H:12])([H:10])[H:11])([H:7])([H:8])[H:9]>>[C:1](/[C:2]([O:3][H:11])=[C:4](/[C:5](=[O:6])[H:12])[H:10])([H:7])([H:8])[H:9]"
C        1.65581893       0.38460944      -0.64240503
C        0.29186582       0.52395656      -0.06135846
O        0.04735187       1.51381987       0.71277648
C       -0.46770318      -0.59994507       0.43373228
C       -1.90033570      -0.60618664       0.05490239
O       -2.55200669      -1.60102137      -0.12467691
H        1.64356269      -0.40181373      -1.39762061
H        2.38944692       0.09932757       0.11447206
H        1.95656481       1.33723473      -1.07602553
H       -0.00724853      -1.57708367       0.32852907
H       -0.65318823       0.55239762       1.45673590
H       -2.40412869       0.37470470       0.20093836
12
Frame=14 idx=001417 GeodesicLength=0.5766336586221061 rxn_smarts="[C:1]([C:2](=[O:3])[C:4]([C:5](=[O:6])[H:12])([H:10])[H:11])([H:7])([H:8])[H:9]>>[C:1](/[C:2]([O:3][H:11])=[C:4](/[C:5](=[O:6])[H:12])[H:10])([H:7])([H:8])[H:9]"
C        1.65767607       0.38123183      -0.63965903
C        0.28580968       0.53020118      -0.07687655
O        0.05320706       1.51365613       0.71107942
C       -0.46935670      -0.59593207       0.42268941
C       -1.90565785      -0.60213326       0.05369431
O       -2.55318829      -1.59611626      -0.14310269
H        1.66164830      -0.43125688      -1.36655216
H        2.38888439       0.13324381       0.13263421
H        1.95013612       1.32312988      -1.10190254
H       -0.00794540      -1.57026541       0.29697711
H       -0.64711377       0.54512493       1.46841495
H       -2.41409960       0.36911611       0.24260356
12
Frame=15 idx=001417 GeodesicLength=0.6171998769730418 rxn_smarts="[C:1]([C:2](=[O:3])[C:4]([C:5](=[O:6])[H:12])([H:10])[H:11])([H:7])([H:8])[H:9]>>[C:1](/[C:2]([O:3][H:11])=[C:4](/[C:5](=[O:6])[H:12])[H:10])([H:7])([H:8])[H:9]"
C        1.65930459       0.37788267      -0.63689733
C        0.28007148       0.53646629      -0.09181627
O        0.05892537       1.51358498       0.70932189
C       -0.47092010      -0.59178569       0.41212965
C       -1.91066767      -0.59811400       0.05231086
O       -2.55433611      -1.59087112      -0.16114608
H        1.67833280      -0.45879326      -1.33525949
H        2.38779648       0.16625155       0.14876272
H        1.94438562       1.30825807      -1.12670704
H       -0.00877523      -1.56308904       0.26661161
H       -0.64129482       0.53786559       1.48015348
H       -2.42282240       0.36234398       0.28253602
12
Frame=16 idx=001417 GeodesicLength=0.6576784849287219 rxn_smarts="[C:1]([C:2](=[O:3])[C:4]([C:5](=[O:6])[H:12])([H:10])[H:11])([H:7])([H:8])[H:9]>>[C:1](/[C:2]([O:3][H:11])=[C:4](/[C:5](=[O:6])[H:12])[H:10])([H:7])([H:8])[H:9]"
C        1.66072798       0.37456619      -0.63410985
C        0.27461958       0.54276454      -0.10624776
O        0.06451573       1.51360853       0.70750205
C       -0.47239950      -0.58749867       0.40201231
C       -1.91539293      -0.59412382       0.05076205
O       -2.55542850      -1.58533754      -0.17880298
H        1.69367646      -0.48453567      -1.30383463
H        2.38627373       0.19832031       0.16302314
H        1.93927247       1.29270440      -1.15047128
H       -0.00971366      -1.55556745       0.23737154
H       -0.63572929       0.53061515       1.49195221
H       -2.43042208       0.35448405       0.32084319
