14
Frame=0 idx=006287 GeodesicLength=0.0 rxn_smarts="[C:1]([C@@:2]1([H:10])[C:3]([H:11])([H:12])[O:4][C:5]([H:13])([H:14])[O:6]1)([H:7])([H:8])[H:9]>>[C:1]([C-:2]([O+:6]=[C:5]([O:4][C:3]([H:11])([H:12])[H:14])[H:13])[H:10])([H:7])([H:8])[H:9]"
C       -2.00803726       0.45834411       0.68239150
C       -0.55238458       0.19412183       0.56595883
C        1.07981743      -1.22446000      -0.76436469
O        1.90487585      -0.37896832       0.07463877
C        1.41499349       0.80090450      -0.42319238
O        0.19148145       1.16512237       0.14126497
H       -2.56048730      -0.48112625       0.65560648
H       -2.24671120       0.95303769       1.63057651
H       -2.35079645       1.09820316      -0.13033728
H       -0.07758705      -0.59300498       1.13459462
H        0.60046966      -2.03637713      -0.21963409
H        1.69283323      -1.62517897      -1.57388926
H        2.09483652       1.65062261      -0.40174509
H        0.81669618       0.01875935      -1.37186885
14
Frame=1 idx=006287 GeodesicLength=0.06599930998519006 rxn_smarts="[C:1]([C@@:2]1([H:10])[C:3]([H:11])([H:12])[O:4][C:5]([H:13])([H:14])[O:6]1)([H:7])([H:8])[H:9]>>[C:1]([C-:2]([O+:6]=[C:5]([O:4][C:3]([H:11])([H:12])[H:14])[H:13])[H:10])([H:7])([H:8])[H:9]"
C       -2.00206308       0.44801331       0.67620179
C       -0.54407985       0.18990299       0.56597464
C        1.06078827      -1.21819348      -0.76029627
O        1.90605881      -0.37667614       0.05896147
C        1.41723551       0.81121568      -0.42422221
O        0.19658244       1.16960545       0.14475629
H       -2.55224292      -0.49288144       0.64293574
H       -2.24731121       0.93715639       1.62544098
H       -2.34351120       1.09014483      -0.13545727
H       -0.06750142      -0.57579957       1.16287853
H        0.58679493      -2.02739896      -0.20617090
H        1.65663615      -1.64586125      -1.56885340
H        2.10085090       1.65720468      -0.38189766
H        0.83176268       0.03356749      -1.40025172
14
Frame=2 idx=006287 GeodesicLength=0.13204364229663357 rxn_smarts="[C:1]([C@@:2]1([H:10])[C:3]([H:11])([H:12])[O:4][C:5]([H:13])([H:14])[O:6]1)([H:7])([H:8])[H:9]>>[C:1]([C-:2]([O+:6]=[C:5]([O:4][C:3]([H:11])([H:12])[H:14])[H:13])[H:10])([H:7])([H:8])[H:9]"
C       -1.99605234       0.43775545       0.67024842
C       -0.53576100       0.18581785       0.56642146
C        1.04211146      -1.21177496      -0.75625667
O        1.90680569      -0.37447276       0.04347090
C        1.41934955       0.82132643      -0.42526904
O        0.20147119       1.17400968       0.14790344
H       -2.54388210      -0.50457330       0.63085320
H       -2.24786176       0.92165008       1.62031375
H       -2.33628366       1.08182630      -0.14055637
H       -0.05809768      -0.55855087       1.19001970
H        0.57355738      -2.01839464      -0.19303819
H        1.62027044      -1.66533413      -1.56354994
H        2.10674919       1.66304222      -0.36216663
H        0.84762362       0.04767264      -1.42839404
14
Frame=3 idx=006287 GeodesicLength=0.1981441469328643 rxn_smarts="[C:1]([C@@:2]1([H:10])[C:3]([H:11])([H:12])[O:4][C:5]([H:13])([H:14])[O:6]1)([H:7])([H:8])[H:9]>>[C:1]([C-:2]([O+:6]=[C:5]([O:4][C:3]([H:11])([H:12])[H:14])[H:13])[H:10])([H:7])([H:8])[H:9]"
C       -1.99001973       0.42757657       0.66452322
C       -0.52745389       0.18185628       0.56725378
C        1.02379169      -1.20522916      -0.75223107
O        1.90713436      -0.37233910       0.02817571
C        1.42132668       0.83124291      -0.42634500
O        0.20616102       1.17834119       0.15075173
H       -2.53543695      -0.51618886       0.61928722
H       -2.24836605       0.90646388       1.61522494
H       -2.32911490       1.07331912      -0.14559846
H       -0.04934436      -0.54128129       1.21612680
H        0.56074434      -2.00938294      -0.18021957
H        1.58378091      -1.68360879      -1.55801210
H        2.11250589       1.66815739      -0.34261662
H        0.86429098       0.06107280      -1.45632059
14
Frame=4 idx=006287 GeodesicLength=0.26431144713148313 rxn_smarts="[C:1]([C@@:2]1([H:10])[C:3]([H:11])([H:12])[O:4][C:5]([H:13])([H:14])[O:6]1)([H:7])([H:8])[H:9]>>[C:1]([C-:2]([O+:6]=[C:5]([O:4][C:3]([H:11])([H:12])[H:14])[H:13])[H:10])([H:7])([H:8])[H:9]"
C       -1.98397872       0.41748210       0.65902057
C       -0.51918036       0.17800491       0.56843297
C        1.00582761      -1.19857704      -0.74820852
O        1.90705962      -0.37025939       0.01308347
C        1.42315749       0.84097074      -0.42746111
O        0.21066282       1.18260205       0.15334552
H       -2.52693873      -0.52771467       0.60818257
H       -2.24882451       0.89155547       1.61020103
H       -2.32200772       1.06468277      -0.15055364
H       -0.04121919      -0.52401354       1.24129327
H        0.54834314      -2.00038444      -0.16770612
H        1.54721657      -1.70069654      -1.55226304
H        2.11809847       1.67257447      -0.32331009
H        0.88178353       0.07377311      -1.48405689
14
Frame=5 idx=006287 GeodesicLength=0.3305555714738793 rxn_smarts="[C:1]([C@@:2]1([H:10])[C:3]([H:11])([H:12])[O:4][C:5]([H:13])([H:14])[O:6]1)([H:7])([H:8])[H:9]>>[C:1]([C-:2]([O+:6]=[C:5]([O:4][C:3]([H:11])([H:12])[H:14])[H:13])[H:10])([H:7])([H:8])[H:9]"
C       -1.97793386       0.40746940       0.65372900
C       -0.51095040       0.17425894       0.56994464
C        0.98820780      -1.19183536      -0.74417523
O        1.90659654      -0.36822058      -0.00180133
C        1.42483371       0.85051713      -0.42862318
O        0.21499451       1.18679950       0.15573792
H       -2.51839756      -0.53915105       0.59748344
H       -2.24924919       0.87688561       1.60525119
H       -2.31495072       1.05595206      -0.15541249
H       -0.03369580      -0.50675679       1.26561436
H        0.53633243      -1.99141274      -0.15547950
H        1.51058675      -1.71660751      -1.54634598
H        2.12351089       1.67631997      -0.30430506
H        0.90011491       0.08578141      -1.51161779
14
Frame=6 idx=006287 GeodesicLength=0.39687642032467163 rxn_smarts="[C:1]([C@@:2]1([H:10])[C:3]([H:11])([H:12])[O:4][C:5]([H:13])([H:14])[O:6]1)([H:7])([H:8])[H:9]>>[C:1]([C-:2]([O+:6]=[C:5]([O:4][C:3]([H:11])([H:12])[H:14])[H:13])[H:10])([H:7])([H:8])[H:9]"
C       -1.97189163       0.39753683       0.64864210
C       -0.50277203       0.17060929       0.57177771
C        0.97091420      -1.18501419      -0.74012783
O        1.90575610      -0.36621284      -0.01647795
C        1.42634778       0.85989085      -0.42983848
O        0.21916788       1.19093755       0.15797455
H       -2.50982712      -0.55049686       0.58715242
H       -2.24964983       0.86242807       1.60038214
H       -2.30793664       1.04715212      -0.16016614
H       -0.02675480      -0.48952087       1.28917148
H        0.52469469      -1.98248245      -0.14352990
H        1.47390963      -1.73135631      -1.54029227
H        2.12873159       1.67942221      -0.28565045
H        0.91931018       0.09710660      -1.53901738
14
Frame=7 idx=006287 GeodesicLength=0.46327988592503877 rxn_smarts="[C:1]([C@@:2]1([H:10])[C:3]([H:11])([H:12])[O:4][C:5]([H:13])([H:14])[O:6]1)([H:7])([H:8])[H:9]>>[C:1]([C-:2]([O+:6]=[C:5]([O:4][C:3]([H:11])([H:12])[H:14])[H:13])[H:10])([H:7])([H:8])[H:9]"
C       -1.96585358       0.38767893       0.64375026
C       -0.49464947       0.16705104       0.57392540
C        0.95392664      -1.17812155      -0.73605769
O        1.90454880      -0.36422581      -0.03094532
C        1.42769275       0.86910037      -0.43111090
O        0.22319678       1.19502268       0.16010026
H       -2.50122978      -0.56175727       0.57714810
H       -2.25003700       0.84815144       1.59559728
H       -2.30095530       1.03830209      -0.16481098
H       -0.02037523      -0.47230654       1.31204488
H        0.51340871      -1.97360499      -0.13184096
H        1.43717829      -1.74495443      -1.53414160
H        2.13375026       1.68191102      -0.26739241
H        0.93939814       0.10775301      -1.56626630
14
Frame=8 idx=006287 GeodesicLength=0.529772209109999 rxn_smarts="[C:1]([C@@:2]1([H:10])[C:3]([H:11])([H:12])[O:4][C:5]([H:13])([H:14])[O:6]1)([H:7])([H:8])[H:9]>>[C:1]([C-:2]([O+:6]=[C:5]([O:4][C:3]([H:11])([H:12])[H:14])[H:13])[H:10])([H:7])([H:8])[H:9]"
C       -1.95982112       0.37789028       0.63904639
C       -0.48658540       0.16357868       0.57638670
C        0.93722517      -1.17116379      -0.73195476
O        1.90298368      -0.36225207      -0.04520346
C        1.42886108       0.87815524      -0.43244521
O        0.22709265       1.19906032       0.16215693
H       -2.49260754      -0.57293685       0.56743773
H       -2.25042279       0.83403053       1.59089642
H       -2.29399550       1.02941466      -0.16934436
H       -0.01454197      -0.45511616       1.33430366
H        0.50245576      -1.96479254      -0.12039993
H        1.40038617      -1.75740657      -1.52793065
H        2.13856170       1.68381504      -0.24957704
H        0.96040811       0.11772324      -1.59337243
14
Frame=9 idx=006287 GeodesicLength=0.5962490738622056 rxn_smarts="[C:1]([C@@:2]1([H:10])[C:3]([H:11])([H:12])[O:4][C:5]([H:13])([H:14])[O:6]1)([H:7])([H:8])[H:9]>>[C:1]([C-:2]([O+:6]=[C:5]([O:4][C:3]([H:11])([H:12])[H:14])[H:13])[H:10])([H:7])([H:8])[H:9]"
C       -1.95379562       0.36816676       0.63452718
C       -0.47857901       0.16019434       0.57916378
C        0.92078588      -1.16413056      -0.72785154
O        1.90106639      -0.36027312      -0.05925112
C        1.42984178       0.88707128      -0.43385545
O        0.23086524       1.20305786       0.16418333
H       -2.48396209      -0.58404010       0.55798629
H       -2.25081260       0.82003447       1.58629180
H       -2.28704973       1.02050952      -0.17375543
H       -0.00923134      -0.43795963       1.35600297
H        0.49180448      -1.95603076      -0.10923169
H        1.36351892      -1.76877102      -1.52166689
H        2.14313822       1.68519715      -0.23224091
H        0.98240949       0.12697381      -1.62030231
14
Frame=10 idx=006287 GeodesicLength=0.6628114838132526 rxn_smarts="[C:1]([C@@:2]1([H:10])[C:3]([H:11])([H:12])[O:4][C:5]([H:13])([H:14])[O:6]1)([H:7])([H:8])[H:9]>>[C:1]([C-:2]([O+:6]=[C:5]([O:4][C:3]([H:11])([H:12])[H:14])[H:13])[H:10])([H:7])([H:8])[H:9]"
C       -1.94777918       0.35850283       0.63018846
C       -0.47063907       0.15688322       0.58223935
C        0.90459224      -1.15703864      -0.72370840
O        1.89880417      -0.35829011      -0.07308630
C        1.43062683       0.89584863      -0.43534036
O        0.23452034       1.20701559       0.16620756
H       -2.47529749      -0.59506995       0.54878242
H       -2.25121105       0.80614912       1.58177941
H       -2.28011586       1.01159096      -0.17804104
H       -0.00444055      -0.42082836       1.37720588
H        0.48143938      -1.94735265      -0.09831223
H        1.32658820      -1.77901440      -1.51539447
H        2.14749130       1.68606234      -0.21542851
H        1.00542075       0.13554143      -1.64709177
14
Frame=11 idx=006287 GeodesicLength=0.7294736158184484 rxn_smarts="[C:1]([C@@:2]1([H:10])[C:3]([H:11])([H:12])[O:4][C:5]([H:13])([H:14])[O:6]1)([H:7])([H:8])[H:9]>>[C:1]([C-:2]([O+:6]=[C:5]([O:4][C:3]([H:11])([H:12])[H:14])[H:13])[H:10])([H:7])([H:8])[H:9]"
C       -1.94177248       0.34889132       0.62602774
C       -0.46276813       0.15363888       0.58560607
C        0.88862166      -1.14988990      -0.71952183
O        1.89620080      -0.35629631      -0.08671094
C        1.43120624       0.90449558      -0.43690565
O        0.23806310       1.21093623       0.16825631
H       -2.46661413      -0.60603401       0.53981116
H       -2.25162031       0.79235694       1.57736329
H       -2.27319255       1.00266331      -0.18219671
H       -0.00015740      -0.40371836       1.39796389
H        0.47133557      -1.93876688      -0.08764039
H        1.28958485      -1.78815969      -1.50913809
H        2.15161495       1.68644369      -0.19917361
H        1.02949782       0.14343921      -1.67374124
14
Frame=12 idx=006287 GeodesicLength=0.7962376310836234 rxn_smarts="[C:1]([C@@:2]1([H:10])[C:3]([H:11])([H:12])[O:4][C:5]([H:13])([H:14])[O:6]1)([H:7])([H:8])[H:9]>>[C:1]([C-:2]([O+:6]=[C:5]([O:4][C:3]([H:11])([H:12])[H:14])[H:13])[H:10])([H:7])([H:8])[H:9]"
C       -1.93577711       0.33932734       0.62204466
C       -0.45496894       0.15045417       0.58925935
C        0.87285513      -1.14268475      -0.71529262
O        1.89325989      -0.35428496      -0.10012656
C        1.43156762       0.91302054      -0.43855922
O        0.24149774       1.21482165       0.17035847
H       -2.45791487      -0.61693581       0.53106172
H       -2.25204261       0.77864290       1.57304806
H       -2.26627762       0.99373224      -0.18621587
H        0.00362592      -0.38663305       1.41831863
H        0.46146907      -1.93028116      -0.07722292
H        1.25250728      -1.79622622      -1.50291435
H        2.15550404       1.68637818      -0.18351408
H        1.05469447       0.15066892      -1.70024528
14
Frame=13 idx=006287 GeodesicLength=0.8631106423363832 rxn_smarts="[C:1]([C@@:2]1([H:10])[C:3]([H:11])([H:12])[O:4][C:5]([H:13])([H:14])[O:6]1)([H:7])([H:8])[H:9]>>[C:1]([C-:2]([O+:6]=[C:5]([O:4][C:3]([H:11])([H:12])[H:14])[H:13])[H:10])([H:7])([H:8])[H:9]"
C       -1.92978969       0.32980074       0.61823686
C       -0.44723911       0.14732756       0.59320218
C        0.85726623      -1.13541965      -0.71101972
O        1.88998230      -0.35224870      -0.11333858
C        1.43170034       0.92143264      -0.44030762
O        0.24483036       1.21867793       0.17254015
H       -2.44919010      -0.62778920       0.52252364
H       -2.25248301       0.76499052       1.56883188
H       -2.25936446       0.98479022      -0.19010024
H        0.00692182      -0.36956685       1.43831449
H        0.45181053      -1.92189807      -0.06706242
H        1.21532494      -1.80322955      -1.49674721
H        2.15915569       1.68590073      -0.16848195
H        1.08107417       0.15723169      -1.72659145
14
Frame=14 idx=006287 GeodesicLength=0.9300924111527245 rxn_smarts="[C:1]([C@@:2]1([H:10])[C:3]([H:11])([H:12])[O:4][C:5]([H:13])([H:14])[O:6]1)([H:7])([H:8])[H:9]>>[C:1]([C-:2]([O+:6]=[C:5]([O:4][C:3]([H:11])([H:12])[H:14])[H:13])[H:10])([H:7])([H:8])[H:9]"
C       -1.92380782       0.32030234       0.61460330
C       -0.43957577       0.14425568       0.59744090
C        0.84183040      -1.12809029      -0.70670354
O        1.88636873      -0.35018235      -0.12635118
C        1.43159186       0.92974080      -0.44215929
O        0.24806625       1.22250915       0.17482901
H       -2.44043287      -0.63860525       0.51418960
H       -2.25294677       0.75138688       1.56471375
H       -2.25244610       0.97583073      -0.19385069
H        0.00973849      -0.35251844       1.45799088
H        0.44233087      -1.91362294      -0.05716679
H        1.17801577      -1.80917187      -1.49065768
H        2.16256765       1.68504664      -0.15411765
H        1.10869931       0.16311894      -1.75276062
14
Frame=15 idx=006287 GeodesicLength=0.9971900230199551 rxn_smarts="[C:1]([C@@:2]1([H:10])[C:3]([H:11])([H:12])[O:4][C:5]([H:13])([H:14])[O:6]1)([H:7])([H:8])[H:9]>>[C:1]([C-:2]([O+:6]=[C:5]([O:4][C:3]([H:11])([H:12])[H:14])[H:13])[H:10])([H:7])([H:8])[H:9]"
C       -1.91782523       0.31081927       0.61114216
C       -0.43197326       0.14123913       0.60198496
C        0.82651917      -1.12069032      -0.70234291
O        1.88241720      -0.34808047      -0.13917215
C        1.43122963       0.93795430      -0.44412382
O        0.25121164       1.22632288       0.17724903
H       -2.43162696      -0.64940193       0.50605306
H       -2.25344027       0.73781596       1.56068850
H       -2.24551306       0.96683835      -0.19747253
H        0.01208799      -0.33547937       1.47738706
H        0.43299711      -1.90545708      -0.04754160
H        1.14053697      -1.81405303      -1.48466917
H        2.16574178       1.68385080      -0.14045394
H        1.13763731       0.16832151      -1.77872865
14
Frame=16 idx=006287 GeodesicLength=1.0644020999116057 rxn_smarts="[C:1]([C@@:2]1([H:10])[C:3]([H:11])([H:12])[O:4][C:5]([H:13])([H:14])[O:6]1)([H:7])([H:8])[H:9]>>[C:1]([C-:2]([O+:6]=[C:5]([O:4][C:3]([H:11])([H:12])[H:14])[H:13])[H:10])([H:7])([H:8])[H:9]"
C       -1.91183583       0.30133993       0.60785343
C       -0.42442556       0.13827857       0.60684585
C        0.81130368      -1.11321020      -0.69794053
O        1.87812414      -0.34593626      -0.15180943
C        1.43059906       0.94608370      -0.44621180
O        0.25427230       1.23012667       0.17982602
H       -2.42275704      -0.66019556       0.49810889
H       -2.25396866       0.72426291       1.55675330
H       -2.23855522       0.95779956      -0.20096888
H        0.01397981      -0.31844535       1.49653842
H        0.42377318      -1.89740148      -0.03820012
H        1.10285533      -1.81786621      -1.47880290
H        2.16867708       1.68234991      -0.12752933
H        1.16795773       0.17281380      -1.80446293
