10
Frame=0 idx=001799 GeodesicLength=0.0 rxn_smarts="[O:1]([c:2]1[c:3]([H:8])[c:4]([H:9])[n:5][n:6]1[H:10])[H:7]>>[O:1]=[C:2]1[C:3]([H:8])=[C:4]([H:9])[N-:5][N+:6]1([H:7])[H:10]"
O       -1.99751501       0.52334649       0.39960021
C       -0.74122529       0.29378620       0.42062793
C        0.49427736       0.79137572       0.69833604
C        1.34710528       0.08461195      -0.21836460
N        0.78811916      -0.82044092      -0.96978397
N       -0.56407664      -0.80405466      -0.50997423
H       -1.72316157      -0.29523769      -0.68455566
H        0.74888604       1.65253491       1.28997813
H        2.40457589       0.27503025      -0.35949229
H       -0.75698522      -1.70095224      -0.06637155
10
Frame=1 idx=001799 GeodesicLength=0.053899790772662756 rxn_smarts="[O:1]([c:2]1[c:3]([H:8])[c:4]([H:9])[n:5][n:6]1[H:10])[H:7]>>[O:1]=[C:2]1[C:3]([H:8])=[C:4]([H:9])[N-:5][N+:6]1([H:7])[H:10]"
O       -1.99383670       0.50757811       0.42577420
C       -0.73788024       0.27377625       0.44583419
C        0.49496653       0.79612612       0.69401953
C        1.35128853       0.07837187      -0.20765776
N        0.78945378      -0.81735355      -0.96897262
N       -0.56115027      -0.80312258      -0.51135763
H       -1.72854718      -0.27101019      -0.69360734
H        0.74008016       1.68169806       1.25319314
H        2.41028429       0.26380212      -0.34334551
H       -0.76465890      -1.70986621      -0.09388020
10
Frame=2 idx=001799 GeodesicLength=0.1076338031977559 rxn_smarts="[O:1]([c:2]1[c:3]([H:8])[c:4]([H:9])[n:5][n:6]1[H:10])[H:7]>>[O:1]=[C:2]1[C:3]([H:8])=[C:4]([H:9])[N-:5][N+:6]1([H:7])[H:10]"
O       -1.98951172       0.49174584       0.45129246
C       -0.73388973       0.25387235       0.47017023
C        0.49529880       0.80044527       0.68949976
C        1.35567523       0.07145765      -0.19613763
N        0.79123969      -0.81515841      -0.96703907
N       -0.55804314      -0.80224504      -0.51247169
H       -1.73351422      -0.24554276      -0.70163864
H        0.73007125       1.70874352       1.21602861
H        2.41540282       0.25439327      -0.32855514
H       -0.77272898      -1.71771169      -0.12114889
10
Frame=3 idx=001799 GeodesicLength=0.16141387292270185 rxn_smarts="[O:1]([c:2]1[c:3]([H:8])[c:4]([H:9])[n:5][n:6]1[H:10])[H:7]>>[O:1]=[C:2]1[C:3]([H:8])=[C:4]([H:9])[N-:5][N+:6]1([H:7])[H:10]"
O       -1.98480443       0.47597340       0.47601434
C       -0.72941411       0.23436766       0.49343693
C        0.49540633       0.80426412       0.68491381
C        1.35996754       0.06503822      -0.18504876
N        0.79341074      -0.81373257      -0.96433355
N       -0.55478422      -0.80152975      -0.51328704
H       -1.73830173      -0.21928337      -0.70857200
H        0.71906393       1.73357603       1.17891857
H        2.42030609       0.24590494      -0.31428964
H       -0.78085015      -1.72457868      -0.14775267
10
Frame=4 idx=001799 GeodesicLength=0.21523998572117545 rxn_smarts="[O:1]([c:2]1[c:3]([H:8])[c:4]([H:9])[n:5][n:6]1[H:10])[H:7]>>[O:1]=[C:2]1[C:3]([H:8])=[C:4]([H:9])[N-:5][N+:6]1([H:7])[H:10]"
O       -1.97977389       0.46087393       0.49913302
C       -0.72460961       0.21551131       0.51543962
C        0.49540072       0.80717992       0.68081481
C        1.36420993       0.05911522      -0.17442868
N        0.79603145      -0.81357670      -0.96042865
N       -0.55136014      -0.80117980      -0.51361575
H       -1.74281930      -0.19243655      -0.71478060
H        0.70734769       1.75572711       1.14276165
H        2.42477507       0.23934529      -0.30169348
H       -0.78920192      -1.73055972      -0.17320195
10
Frame=5 idx=001799 GeodesicLength=0.2690334840558085 rxn_smarts="[O:1]([c:2]1[c:3]([H:8])[c:4]([H:9])[n:5][n:6]1[H:10])[H:7]>>[O:1]=[C:2]1[C:3]([H:8])=[C:4]([H:9])[N-:5][N+:6]1([H:7])[H:10]"
O       -1.97450129       0.44642987       0.52064505
C       -0.71956344       0.19734384       0.53619472
C        0.49531375       0.80932280       0.67715840
C        1.36830374       0.05397893      -0.16463542
N        0.79900766      -0.81451955      -0.95551924
N       -0.54777227      -0.80120911      -0.51345373
H       -1.74712894      -0.16519340      -0.72031743
H        0.69505217       1.77531984       1.10775859
H        2.42889528       0.23424583      -0.29044190
H       -0.79760666      -1.73571906      -0.19738903
10
Frame=6 idx=001799 GeodesicLength=0.3229375399262596 rxn_smarts="[O:1]([c:2]1[c:3]([H:8])[c:4]([H:9])[n:5][n:6]1[H:10])[H:7]>>[O:1]=[C:2]1[C:3]([H:8])=[C:4]([H:9])[N-:5][N+:6]1([H:7])[H:10]"
O       -1.96906802       0.43236732       0.54104165
C       -0.71430507       0.17980187       0.55588857
C        0.49513296       0.81097309       0.67369024
C        1.37217879       0.04987232      -0.15589675
N        0.80215872      -0.81607373      -0.95017816
N       -0.54404372      -0.80153178      -0.51294491
H       -1.75147101      -0.13767556      -0.72500874
H        0.68217879       1.79282200       1.07343020
H        2.43300795       0.22963171      -0.27946957
H       -0.80576939      -1.74018724      -0.22055253
10
Frame=7 idx=001799 GeodesicLength=0.37678834998149935 rxn_smarts="[O:1]([c:2]1[c:3]([H:8])[c:4]([H:9])[n:5][n:6]1[H:10])[H:7]>>[O:1]=[C:2]1[C:3]([H:8])=[C:4]([H:9])[N-:5][N+:6]1([H:7])[H:10]"
O       -1.96351781       0.41911953       0.55971550
C       -0.70896356       0.16299181       0.57443218
C        0.49491410       0.81200850       0.67060888
C        1.37589688       0.04652677      -0.14800697
N        0.80559388      -0.81866115      -0.94397604
N       -0.54015079      -0.80233399      -0.51193357
H       -1.75563702      -0.10994113      -0.72928375
H        0.66903812       1.80794355       1.04070637
H        2.43671492       0.22642191      -0.26992362
H       -0.81388873      -1.74407579      -0.24233899
10
Frame=8 idx=001799 GeodesicLength=0.43074939754296027 rxn_smarts="[O:1]([c:2]1[c:3]([H:8])[c:4]([H:9])[n:5][n:6]1[H:10])[H:7]>>[O:1]=[C:2]1[C:3]([H:8])=[C:4]([H:9])[N-:5][N+:6]1([H:7])[H:10]"
O       -1.95790730       0.40620868       0.57739836
C       -0.70350717       0.14673382       0.59209871
C        0.49461592       0.81276303       0.66761288
C        1.37947189       0.04395059      -0.14095089
N        0.80911986      -0.82167367      -0.93755410
N       -0.53612919      -0.80345827      -0.51062679
H       -1.75990418      -0.08197247      -0.73286490
H        0.65549016       1.82138886       1.00869942
H        2.44044805       0.22352911      -0.26059178
H       -0.82169803      -1.74746967      -0.26322090
10
Frame=9 idx=001799 GeodesicLength=0.4846563318685743 rxn_smarts="[O:1]([c:2]1[c:3]([H:8])[c:4]([H:9])[n:5][n:6]1[H:10])[H:7]>>[O:1]=[C:2]1[C:3]([H:8])=[C:4]([H:9])[N-:5][N+:6]1([H:7])[H:10]"
O       -1.95225446       0.39397496       0.59360561
C       -0.69804084       0.13109877       0.60882684
C        0.49426557       0.81310940       0.66485034
C        1.38292429       0.04195249      -0.13457214
N        0.81284524      -0.82547898      -0.93049871
N       -0.53196182      -0.80505164      -0.50889985
H       -1.76409172      -0.05379260      -0.73609902
H        0.64180673       1.83292450       0.97815006
H        2.44389365       0.22173006      -0.25241352
H       -0.82938663      -1.75046697      -0.28294962
10
Frame=10 idx=001799 GeodesicLength=0.5386169890687065 rxn_smarts="[O:1]([c:2]1[c:3]([H:8])[c:4]([H:9])[n:5][n:6]1[H:10])[H:7]>>[O:1]=[C:2]1[C:3]([H:8])=[C:4]([H:9])[N-:5][N+:6]1([H:7])[H:10]"
O       -1.94658199       0.38220628       0.60868086
C       -0.69254547       0.11600487       0.62476519
C        0.49384076       0.81319582       0.66216034
C        1.38627122       0.04049304      -0.12881205
N        0.81669670      -0.82981692      -0.92307895
N       -0.52766170      -0.80705123      -0.50685036
H       -1.76834191      -0.02537253      -0.73889548
H        0.62795912       1.84288131       0.94865533
H        2.44720647       0.22058747      -0.24486733
H       -0.83684319      -1.75312811      -0.30175754
10
Frame=11 idx=001799 GeodesicLength=0.5925867458517161 rxn_smarts="[O:1]([c:2]1[c:3]([H:8])[c:4]([H:9])[n:5][n:6]1[H:10])[H:7]>>[O:1]=[C:2]1[C:3]([H:8])=[C:4]([H:9])[N-:5][N+:6]1([H:7])[H:10]"
O       -1.94089093       0.37069568       0.62289344
C       -0.68699697       0.10134319       0.64003517
C        0.49332942       0.81313933       0.65945067
C        1.38953252       0.03951013      -0.12361911
N        0.82064501      -0.83447053      -0.91549490
N       -0.52322990      -0.80939611      -0.50455834
H       -1.77272371       0.00335857      -0.74112773
H        0.61385650       1.85158416       0.91983359
H        2.45050131       0.21972122      -0.23755329
H       -0.84402325      -1.75548566      -0.31985950
10
Frame=12 idx=001799 GeodesicLength=0.6465938963991248 rxn_smarts="[O:1]([c:2]1[c:3]([H:8])[c:4]([H:9])[n:5][n:6]1[H:10])[H:7]>>[O:1]=[C:2]1[C:3]([H:8])=[C:4]([H:9])[N-:5][N+:6]1([H:7])[H:10]"
O       -1.93517976       0.35925323       0.63651337
C       -0.68135087       0.08703705       0.65473729
C        0.49270390       0.81307761       0.65659116
C        1.39273888       0.03902014      -0.11903719
N        0.82459990      -0.83920927      -0.90799932
N       -0.51868991      -0.81203586      -0.50210332
H       -1.77738691       0.03243241      -0.74263129
H        0.59936175       1.85933449       0.89132919
H        2.45401271       0.21865073      -0.22995705
H       -0.85080969      -1.75756053      -0.33744285
10
Frame=13 idx=001799 GeodesicLength=0.7007185048496477 rxn_smarts="[O:1]([c:2]1[c:3]([H:8])[c:4]([H:9])[n:5][n:6]1[H:10])[H:7]>>[O:1]=[C:2]1[C:3]([H:8])=[C:4]([H:9])[N-:5][N+:6]1([H:7])[H:10]"
O       -1.92940801       0.34793249       0.64945100
C       -0.67564313       0.07300154       0.66897222
C        0.49204923       0.81274588       0.65387338
C        1.39581012       0.03884723      -0.11475340
N        0.82881810      -0.84435184      -0.90004561
N       -0.51395153      -0.81496678      -0.49944760
H       -1.78208740       0.06210345      -0.74365225
H        0.58469805       1.86594730       0.86298310
H        2.45719617       0.21810717      -0.22270812
H       -0.85748161      -1.75936644      -0.35467271
10
Frame=14 idx=001799 GeodesicLength=0.7548581901825027 rxn_smarts="[O:1]([c:2]1[c:3]([H:8])[c:4]([H:9])[n:5][n:6]1[H:10])[H:7]>>[O:1]=[C:2]1[C:3]([H:8])=[C:4]([H:9])[N-:5][N+:6]1([H:7])[H:10]"
O       -1.92364106       0.33669959       0.66175729
C       -0.66986378       0.05931304       0.68267378
C        0.49126975       0.81245576       0.65093475
C        1.39884168       0.03910091      -0.11104426
N        0.83305445      -0.84955436      -0.89220456
N       -0.50910031      -0.81824055      -0.49661745
H       -1.78712604       0.09216136      -0.74398620
H        0.56972345       1.87167651       0.83504964
H        2.46059012       0.21737947      -0.21519647
H       -0.86374825      -1.76099173      -0.37136652
10
Frame=15 idx=001799 GeodesicLength=0.8089954898885456 rxn_smarts="[O:1]([c:2]1[c:3]([H:8])[c:4]([H:9])[n:5][n:6]1[H:10])[H:7]>>[O:1]=[C:2]1[C:3]([H:8])=[C:4]([H:9])[N-:5][N+:6]1([H:7])[H:10]"
O       -1.91786303       0.32569729       0.67323641
C       -0.66406189       0.04598648       0.69585373
C        0.49039735       0.81208229       0.64787249
C        1.40177279       0.03967835      -0.10777337
N        0.83737142      -0.85498729      -0.88424356
N       -0.50409342      -0.82192283      -0.49355530
H       -1.79236976       0.12265759      -0.74383147
H        0.55463895       1.87638186       0.80776131
H        2.46388758       0.21690967      -0.20786362
H       -0.86967999      -1.76248343      -0.38745662
10
Frame=16 idx=001799 GeodesicLength=0.8631577173386219 rxn_smarts="[O:1]([c:2]1[c:3]([H:8])[c:4]([H:9])[n:5][n:6]1[H:10])[H:7]>>[O:1]=[C:2]1[C:3]([H:8])=[C:4]([H:9])[N-:5][N+:6]1([H:7])[H:10]"
O       -1.91213592       0.31495389       0.68385499
C       -0.65828919       0.03301849       0.70852888
C        0.48942660       0.81162686       0.64468981
C        1.40462888       0.04052793      -0.10490449
N        0.84180431      -0.86066109      -0.87615713
N       -0.49892878      -0.82605795      -0.49025085
H       -1.79785716       0.15363284      -0.74323501
H        0.53953548       1.88013684       0.78120844
H        2.46710066       0.21676204      -0.20080007
H       -0.87528489      -1.76393985      -0.40293458
