14
Frame=0 idx=000661 GeodesicLength=0.0 rxn_smarts="[O:1]([C@@:2]1([H:8])[C:3]([H:9])([H:10])[C@@:4]2([H:11])[C:5]([H:12])([H:13])[C@@:6]12[H:14])[H:7]>>[O:1]([C:2][C:3]([C:4]1([H:11])[C:5]([H:12])([H:13])[C:6]1([H:8])[H:14])([H:9])[H:10])[H:7]"
O       -1.06328574       1.90275845      -0.16256714
C       -1.12239619       0.77268625       0.53869518
C       -1.12996416      -0.52887608      -0.26409779
C        0.26514979      -1.02576885       0.01238875
C        1.33408513      -0.05965305      -0.41934633
C        0.80158421       0.01201028       0.95333525
H       -0.84113750       1.73875206      -1.09276292
H       -0.33837876       0.69888661       1.44622800
H       -1.31249202      -0.34365483      -1.33089196
H       -1.92164499      -1.19331092       0.08794660
H        0.49615418      -2.08297042       0.07118109
H        1.09977311       0.71737477      -1.14791964
H        2.33371518      -0.46240698      -0.53468480
H        1.39883780      -0.14582735       1.84249577
14
Frame=1 idx=000661 GeodesicLength=0.05965332279481023 rxn_smarts="[O:1]([C@@:2]1([H:8])[C:3]([H:9])([H:10])[C@@:4]2([H:11])[C:5]([H:12])([H:13])[C@@:6]12[H:14])[H:7]>>[O:1]([C:2][C:3]([C:4]1([H:11])[C:5]([H:12])([H:13])[C:6]1([H:8])[H:14])([H:9])[H:10])[H:7]"
O       -1.08123455       1.90755645      -0.16847413
C       -1.11419915       0.77554802       0.53246671
C       -1.12773374      -0.52673901      -0.26778919
C        0.26702649      -1.02582501       0.01018949
C        1.33907937      -0.06255077      -0.41757947
C        0.80127687       0.01095686       0.95462496
H       -0.86207465       1.74714100      -1.09999894
H       -0.33359662       0.69768936       1.46291474
H       -1.31225009      -0.34700555      -1.33512536
H       -1.92007303      -1.18575196       0.09328432
H        0.49497397      -2.08335227       0.07119146
H        1.10890715       0.71517711      -1.14613491
H        2.33822165      -0.46717466      -0.52974116
H        1.40167633      -0.15566956       1.84017148
14
Frame=2 idx=000661 GeodesicLength=0.11931648441531877 rxn_smarts="[O:1]([C@@:2]1([H:8])[C:3]([H:9])([H:10])[C@@:4]2([H:11])[C:5]([H:12])([H:13])[C@@:6]12[H:14])[H:7]>>[O:1]([C:2][C:3]([C:4]1([H:11])[C:5]([H:12])([H:13])[C:6]1([H:8])[H:14])([H:9])[H:10])[H:7]"
O       -1.09969615       1.91223227      -0.17437437
C       -1.10563441       0.77871026       0.52600238
C       -1.12540937      -0.52443766      -0.27150941
C        0.26894633      -1.02585707       0.00796843
C        1.34422954      -0.06556053      -0.41576418
C        0.80104859       0.00988652       0.95591910
H       -0.88375922       1.75552619      -1.10727565
H       -0.32870101       0.69613971       1.47973799
H       -1.31191584      -0.35031405      -1.33937405
H       -1.91842466      -1.17782191       0.09861809
H        0.49370471      -2.08372326       0.07120082
H        1.11832066       0.71288398      -1.14429661
H        2.34282774      -0.47216709      -0.52468924
H        1.40446309      -0.16549735       1.83783670
14
Frame=3 idx=000661 GeodesicLength=0.17900511901395272 rxn_smarts="[O:1]([C@@:2]1([H:8])[C:3]([H:9])([H:10])[C@@:4]2([H:11])[C:5]([H:12])([H:13])[C@@:6]12[H:14])[H:7]>>[O:1]([C:2][C:3]([C:4]1([H:11])[C:5]([H:12])([H:13])[C:6]1([H:8])[H:14])([H:9])[H:10])[H:7]"
O       -1.11869624       1.91677072      -0.18025135
C       -1.09669203       0.78218953       0.51927735
C       -1.12298934      -0.52196259      -0.27526331
C        0.27091137      -1.02586281       0.00572737
C        1.34954834      -0.06868908      -0.41390157
C        0.80090617       0.00880312       0.95721704
H       -0.90622732       1.76390561      -1.11457870
H       -0.32369101       0.69422760       1.49669348
H       -1.31148773      -0.35357474      -1.34364547
H       -1.91670368      -1.16950256       0.10394595
H        0.49234152      -2.08408186       0.07121793
H        1.12803334       0.71048504      -1.14241493
H        2.34754620      -0.47739751      -0.51952387
H        1.40720041      -0.17531048       1.83550008
14
Frame=4 idx=000661 GeodesicLength=0.23871352954106992 rxn_smarts="[O:1]([C@@:2]1([H:8])[C:3]([H:9])([H:10])[C@@:4]2([H:11])[C:5]([H:12])([H:13])[C@@:6]12[H:14])[H:7]>>[O:1]([C:2][C:3]([C:4]1([H:11])[C:5]([H:12])([H:13])[C:6]1([H:8])[H:14])([H:9])[H:10])[H:7]"
O       -1.13825746       1.92115349      -0.18608352
C       -1.08735490       0.78600416       0.51226364
C       -1.12046556      -0.51930370      -0.27905611
C        0.27292324      -1.02583914       0.00346645
C        1.35504291      -0.07194506      -0.41199065
C        0.80085187       0.00771266       0.95851441
H       -0.92951576       1.77227447      -1.12188689
H       -0.31856767       0.69194455       1.51377169
H       -1.31095716      -0.35678392      -1.34794291
H       -1.91490249      -1.16077265       0.10926501
H        0.49087810      -2.08442451       0.07124831
H        1.13806131       0.70796525      -1.14049447
H        2.35237935      -0.48288179      -0.51423703
H        1.40988421      -0.18510382       1.83316207
14
Frame=5 idx=000661 GeodesicLength=0.29844078088689197 rxn_smarts="[O:1]([C@@:2]1([H:8])[C:3]([H:9])([H:10])[C@@:4]2([H:11])[C:5]([H:12])([H:13])[C@@:6]12[H:14])[H:7]>>[O:1]([C:2][C:3]([C:4]1([H:11])[C:5]([H:12])([H:13])[C:6]1([H:8])[H:14])([H:9])[H:10])[H:7]"
O       -1.15840354       1.92536022      -0.19184552
C       -1.07760626       0.79017270       0.50493061
C       -1.11783072      -0.51645069      -0.28289437
C        0.27498370      -1.02578318       0.00118630
C        1.36072227      -0.07533793      -0.41003096
C        0.80088864       0.00662178       0.95980686
H       -0.95366446       1.78062880      -1.12917599
H       -0.31333221       0.68928353       1.53096190
H       -1.31031622      -0.35993684      -1.35227180
H       -1.91301543      -1.15161040       0.11457105
H        0.48930779      -2.08474790       0.07129982
H        1.14842326       0.70530806      -1.13854259
H        2.35733208      -0.48863699      -0.50882006
H        1.41251111      -0.19487119       1.83082475
14
Frame=6 idx=000661 GeodesicLength=0.35818590798829997 rxn_smarts="[O:1]([C@@:2]1([H:8])[C:3]([H:9])([H:10])[C@@:4]2([H:11])[C:5]([H:12])([H:13])[C@@:6]12[H:14])[H:7]>>[O:1]([C:2][C:3]([C:4]1([H:11])[C:5]([H:12])([H:13])[C:6]1([H:8])[H:14])([H:9])[H:10])[H:7]"
O       -1.17915751       1.92936807      -0.19750737
C       -1.06742837       0.79471437       0.49724443
C       -1.11507693      -0.51339295      -0.28678593
C        0.27709456      -1.02569203      -0.00111239
C        1.36659600      -0.07887811      -0.40802207
C        0.80101917       0.00553817       0.96108931
H       -0.97871742       1.78896437      -1.13641760
H       -0.30798629       0.68623970       1.54825105
H       -1.30955614      -0.36302827      -1.35663879
H       -1.91103632      -1.14199284       0.11985852
H        0.48762340      -2.08504848       0.07138157
H        1.15913961       0.70249470      -1.13656805
H        2.36240954      -0.49468168      -0.50326297
H        1.41507668      -0.20460503       1.82849028
14
Frame=7 idx=000661 GeodesicLength=0.41794772959108184 rxn_smarts="[O:1]([C@@:2]1([H:8])[C:3]([H:9])([H:10])[C@@:4]2([H:11])[C:5]([H:12])([H:13])[C@@:6]12[H:14])[H:7]>>[O:1]([C:2][C:3]([C:4]1([H:11])[C:5]([H:12])([H:13])[C:6]1([H:8])[H:14])([H:9])[H:10])[H:7]"
O       -1.20054074       1.93315189      -0.20303350
C       -1.05680265       0.79964874       0.48916763
C       -1.11219566      -0.51011976      -0.29074029
C        0.27925769      -1.02556286      -0.00342883
C        1.37267428      -0.08257718      -0.40596357
C        0.80124569       0.00447080       0.96235579
H       -1.00472321       1.79727658      -1.14357818
H       -0.30253203       0.68281087       1.56562351
H       -1.30866715      -0.36605241      -1.36105211
H       -1.90895848      -1.13189616       0.12511991
H        0.48581707      -2.08532260       0.07150430
H        1.17023262       0.69950371      -1.13458132
H        2.36761713      -0.50103608      -0.49755416
H        1.41757545      -0.21429554       1.82616080
14
Frame=8 idx=000661 GeodesicLength=0.4777245566128813 rxn_smarts="[O:1]([C@@:2]1([H:8])[C:3]([H:9])([H:10])[C@@:4]2([H:11])[C:5]([H:12])([H:13])[C@@:6]12[H:14])[H:7]>>[O:1]([C:2][C:3]([C:4]1([H:11])[C:5]([H:12])([H:13])[C:6]1([H:8])[H:14])([H:9])[H:10])[H:7]"
O       -1.22257243       1.93668300      -0.20838269
C       -1.04570914       0.80499645       0.48065858
C       -1.10917736      -0.50661969      -0.29476840
C        0.28147504      -1.02539254      -0.00576224
C        1.37896780      -0.08644800      -0.40385491
C        0.80156970       0.00343003       0.96359933
H       -1.03173629       1.80555978      -1.15061939
H       -0.29697280       0.67899671       1.58306137
H       -1.30763792      -0.36900281      -1.36552105
H       -1.90677397      -1.12129443       0.13034600
H        0.48388038      -2.08556579       0.07167991
H        1.18172662       0.69631060      -1.13259430
H        2.37296013      -0.50772230      -0.49168034
H        1.42000024      -0.22393101       1.82383812
14
Frame=9 idx=000661 GeodesicLength=0.5375140809920173 rxn_smarts="[O:1]([C@@:2]1([H:8])[C:3]([H:9])([H:10])[C@@:4]2([H:11])[C:5]([H:12])([H:13])[C@@:6]12[H:14])[H:7]>>[O:1]([C:2][C:3]([C:4]1([H:11])[C:5]([H:12])([H:13])[C:6]1([H:8])[H:14])([H:9])[H:10])[H:7]"
O       -1.24526636       1.93993160      -0.21350506
C       -1.03412825       0.81077717       0.47167132
C       -1.10601207      -0.50288198      -0.29888429
C        0.28374839      -1.02517849      -0.00811137
C        1.38548768      -0.09050486      -0.40169586
C        0.80199209       0.00242836       0.96481149
H       -1.05981665       1.81380796      -1.15749438
H       -0.29131248       0.67480114       1.60054340
H       -1.30645603      -0.37187185      -1.37005820
H       -1.90447494      -1.11016294       0.13552301
H        0.48180400      -2.08577395       0.07192407
H        1.19364758       0.69288686      -1.13062222
H        2.37844397      -0.51476441      -0.48562621
H        1.42234307      -0.23349461       1.82152430
14
Frame=10 idx=000661 GeodesicLength=0.5973133689991491 rxn_smarts="[O:1]([C@@:2]1([H:8])[C:3]([H:9])([H:10])[C@@:4]2([H:11])[C:5]([H:12])([H:13])[C@@:6]12[H:14])[H:7]>>[O:1]([C:2][C:3]([C:4]1([H:11])[C:5]([H:12])([H:13])[C:6]1([H:8])[H:14])([H:9])[H:10])[H:7]"
O       -1.26863082       1.94286484      -0.21834355
C       -1.02203921       0.81701139       0.46215465
C       -1.10268868      -0.49889535      -0.30310411
C        0.28607955      -1.02491780      -0.01047506
C        1.39224553      -0.09476345      -0.39948599
C        0.80251267       0.00148023       0.96598254
H       -1.08903254       1.82201270      -1.16414982
H       -0.28555650       0.67023081       1.61804581
H       -1.30510725      -0.37465114      -1.37467794
H       -1.90205218      -1.09847513       0.14063455
H        0.47957792      -2.08594202       0.07225405
H        1.20602385       0.68920023      -1.12868216
H        2.38407392      -0.52218834      -0.47937403
H        1.42459373      -0.24296696       1.81922107
14
Frame=11 idx=000661 GeodesicLength=0.6571192371090347 rxn_smarts="[O:1]([C@@:2]1([H:8])[C:3]([H:9])([H:10])[C@@:4]2([H:11])[C:5]([H:12])([H:13])[C@@:6]12[H:14])[H:7]>>[O:1]([C:2][C:3]([C:4]1([H:11])[C:5]([H:12])([H:13])[C:6]1([H:8])[H:14])([H:9])[H:10])[H:7]"
O       -1.29266659       1.94544820      -0.22283255
C       -1.00942082       0.82371948       0.45205156
C       -1.09919535      -0.49464872      -0.30744701
C        0.28847030      -1.02460769      -0.01285201
C        1.39925350      -0.09924090      -0.39722476
C        0.80313017       0.00060234       0.96710114
H       -1.11946068       1.83016309      -1.17052373
H       -0.27971160       0.66529641       1.63554167
H       -1.30357581      -0.37733149      -1.37939769
H       -1.89949602      -1.08620402       0.14566045
H        0.47719124      -2.08606461       0.07268968
H        1.21888626       0.68521462      -1.12679358
H        2.38985528      -0.53002195      -0.47290339
H        1.42674012      -0.25232474       1.81693021
14
Frame=12 idx=000661 GeodesicLength=0.7169320672706259 rxn_smarts="[O:1]([C@@:2]1([H:8])[C:3]([H:9])([H:10])[C@@:4]2([H:11])[C:5]([H:12])([H:13])[C@@:6]12[H:14])[H:7]>>[O:1]([C:2][C:3]([C:4]1([H:11])[C:5]([H:12])([H:13])[C:6]1([H:8])[H:14])([H:9])[H:10])[H:7]"
O       -1.31736654       1.94764769      -0.22689867
C       -0.99625213       0.83092247       0.44129824
C       -1.09552038      -0.49013106      -0.31193506
C        0.29092283      -1.02424602      -0.01524063
C        1.40652598      -0.10395573      -0.39491162
C        0.80384280      -0.00018678       0.96815464
H       -1.15119017       1.83824636      -1.17654670
H       -0.27378712       0.66001180       1.65300168
H       -1.30184548      -0.37990239      -1.38423833
H       -1.89679779      -1.07332237       0.15057782
H        0.47463289      -2.08613721       0.07325406
H        1.23227001       0.68089095      -1.12497903
H        2.39579607      -0.53829529      -0.46619074
H        1.42876905      -0.26154242       1.81465434
14
Frame=13 idx=000661 GeodesicLength=0.7767890111765394 rxn_smarts="[O:1]([C@@:2]1([H:8])[C:3]([H:9])([H:10])[C@@:4]2([H:11])[C:5]([H:12])([H:13])[C@@:6]12[H:14])[H:7]>>[O:1]([C:2][C:3]([C:4]1([H:11])[C:5]([H:12])([H:13])[C:6]1([H:8])[H:14])([H:9])[H:10])[H:7]"
O       -1.34273276       1.94944761      -0.23047039
C       -0.98252247       0.83864719       0.42982051
C       -1.09166337      -0.48533268      -0.31659213
C        0.29344397      -1.02383925      -0.01763439
C        1.41409663      -0.10892757      -0.39254733
C        0.80465675      -0.00087219       0.96913185
H       -1.18433984       1.84626909      -1.18215355
H       -0.26780022       0.65438911       1.67039692
H       -1.29991237      -0.38234682      -1.38922717
H       -1.89397048      -1.05980990       0.15536765
H        0.47189738      -2.08617297       0.07398443
H        1.24623078       0.67619779      -1.12327178
H        2.40193515      -0.54704421      -0.45920855
H        1.43068083      -0.27060518       1.81240392
14
Frame=14 idx=000661 GeodesicLength=0.8365641822603238 rxn_smarts="[O:1]([C@@:2]1([H:8])[C:3]([H:9])([H:10])[C@@:4]2([H:11])[C:5]([H:12])([H:13])[C@@:6]12[H:14])[H:7]>>[O:1]([C:2][C:3]([C:4]1([H:11])[C:5]([H:12])([H:13])[C:6]1([H:8])[H:14])([H:9])[H:10])[H:7]"
O       -1.36863827       1.95076650      -0.23342807
C       -0.96819436       0.84689172       0.41755408
C       -1.08758353      -0.48024484      -0.32145068
C        0.29602092      -1.02336012      -0.02004836
C        1.42192391      -0.11417026      -0.39012684
C        0.80553562      -0.00140907       0.97000553
H       -1.21894812       1.85411561      -1.18720329
H       -0.26175210       0.64847254       1.68767997
H       -1.29772755      -0.38467341      -1.39438126
H       -1.89094956      -1.04562255       0.15997569
H        0.46895703      -2.08611448       0.07487266
H        1.26075410       0.67106321      -1.12167741
H        2.40819345      -0.55627589      -0.45192845
H        1.43240846      -0.27943899       1.81015643
14
Frame=15 idx=000661 GeodesicLength=0.8963161337546133 rxn_smarts="[O:1]([C@@:2]1([H:8])[C:3]([H:9])([H:10])[C@@:4]2([H:11])[C:5]([H:12])([H:13])[C@@:6]12[H:14])[H:7]>>[O:1]([C:2][C:3]([C:4]1([H:11])[C:5]([H:12])([H:13])[C:6]1([H:8])[H:14])([H:9])[H:10])[H:7]"
O       -1.39509998       1.95156667      -0.23566063
C       -0.95320844       0.85569678       0.40439213
C       -1.08325212      -0.47484116      -0.32655402
C        0.29866031      -1.02280628      -0.02247927
C        1.43004150      -0.11972370      -0.38764551
C        0.80648782      -0.00177377       0.97075795
H       -1.25523531       1.86177564      -1.19160007
H       -0.25564864       0.64227562       1.70481408
H       -1.29524943      -0.38685612      -1.39974562
H       -1.88771587      -1.03070683       0.16435724
H        0.46578423      -2.08595580       0.07596492
H        1.27590987       0.66542056      -1.12022015
H        2.41458905      -0.56605917      -0.44430224
H        1.43393703      -0.28801245       1.80792120
14
Frame=16 idx=000661 GeodesicLength=0.9560930993344124 rxn_smarts="[O:1]([C@@:2]1([H:8])[C:3]([H:9])([H:10])[C@@:4]2([H:11])[C:5]([H:12])([H:13])[C@@:6]12[H:14])[H:7]>>[O:1]([C:2][C:3]([C:4]1([H:11])[C:5]([H:12])([H:13])[C:6]1([H:8])[H:14])([H:9])[H:10])[H:7]"
O       -1.42204703       1.95187077      -0.23708084
C       -0.93758837       0.86508324       0.39024033
C       -1.07868816      -0.46912179      -0.33193443
C        0.30137170      -1.02219385      -0.02491623
C        1.43849902      -0.12560297      -0.38510602
C        0.80751634      -0.00194474       0.97137294
H       -1.29334993       1.86923096      -1.19524144
H       -0.24952831       0.63582914       1.72176321
H       -1.29249293      -0.38887279      -1.40536134
H       -1.88431429      -1.01506267       0.16848368
H        0.46238490      -2.08572835       0.07731370
H        1.29177351       0.65924528      -1.11895353
H        2.42119232      -0.57642433      -0.43629397
H        1.43527122      -0.29630789       1.80571394
