12
Frame=0 idx=003903 GeodesicLength=0.0 rxn_smarts="[C:1]([C:2]([N:3]([C:4](=[O:5])[H:12])[H:11])([H:9])[H:10])([H:6])([H:7])[H:8]>>[C-:2](=[N+:3]([C:4](=[O:5])[H:12])[H:11])[H:9].[C:1]([H:6])([H:7])([H:8])[H:10]"
C       -1.42362893       0.69531175       0.55545715
C       -0.26039463      -1.07735617      -0.00067789
N        0.77387152      -0.53127515      -0.72170269
C        1.94299933      -0.07936001      -0.14137289
O        2.14452517      -0.00924885       1.03782319
H       -2.34961553       0.52398384       1.10126198
H       -1.61281678       0.92895797      -0.48493164
H       -0.79527942       1.44742114       1.02801269
H       -1.06067934      -1.41296902      -0.65858722
H       -0.73916794      -0.36031445       0.89910487
H        0.69772324      -0.36193683      -1.71490652
H        2.68246330       0.23678578      -0.89948103
12
Frame=1 idx=003903 GeodesicLength=0.05430991335354211 rxn_smarts="[C:1]([C:2]([N:3]([C:4](=[O:5])[H:12])[H:11])([H:9])[H:10])([H:6])([H:7])[H:8]>>[C-:2](=[N+:3]([C:4](=[O:5])[H:12])[H:11])[H:9].[C:1]([H:6])([H:7])([H:8])[H:10]"
C       -1.42099997       0.69624592       0.55884671
C       -0.26515422      -1.07497351      -0.00741975
N        0.77581772      -0.53974103      -0.72736330
C        1.94104972      -0.08042734      -0.14368698
O        2.13728926      -0.00333117       1.03591115
H       -2.35346140       0.52432680       1.09395436
H       -1.60722343       0.94743257      -0.47874280
H       -0.80321574       1.45251632       1.03929501
H       -1.05641904      -1.42555144      -0.66903603
H       -0.73222010      -0.36070762       0.92054575
H        0.70507903      -0.37875508      -1.72250495
H        2.67945817       0.24296559      -0.89979918
12
Frame=2 idx=003903 GeodesicLength=0.10791331800528796 rxn_smarts="[C:1]([C:2]([N:3]([C:4](=[O:5])[H:12])[H:11])([H:9])[H:10])([H:6])([H:7])[H:8]>>[C-:2](=[N+:3]([C:4](=[O:5])[H:12])[H:11])[H:9].[C:1]([H:6])([H:7])([H:8])[H:10]"
C       -1.41807993       0.69766468       0.56211048
C       -0.27044257      -1.07212392      -0.01432515
N        0.77773124      -0.54875279      -0.73282208
C        1.93890084      -0.08170415      -0.14598990
O        2.13019516       0.00147489       1.03386825
H       -2.35683483       0.52482190       1.08593427
H       -1.60105078       0.96678331      -0.47214032
H       -0.81139520       1.45758625       1.05115239
H       -1.05156961      -1.43928374      -0.67924281
H       -0.72526977      -0.36086669       0.94150144
H        0.71281512      -0.39679484      -1.72978734
H        2.67500033       0.25119512      -0.90025924
12
Frame=3 idx=003903 GeodesicLength=0.16186990867147602 rxn_smarts="[C:1]([C:2]([N:3]([C:4](=[O:5])[H:12])[H:11])([H:9])[H:10])([H:6])([H:7])[H:8]>>[C-:2](=[N+:3]([C:4](=[O:5])[H:12])[H:11])[H:9].[C:1]([H:6])([H:7])([H:8])[H:10]"
C       -1.41528430       0.69916240       0.56529454
C       -0.27579987      -1.06899331      -0.02137979
N        0.77965338      -0.55763442      -0.73828626
C        1.93678425      -0.08296873      -0.14832181
O        2.12324111       0.00593213       1.03180362
H       -2.36018964       0.52523567       1.07799293
H       -1.59512895       0.98614104      -0.46538751
H       -0.81992958       1.46277779       1.06291897
H       -1.04630562      -1.45348644      -0.68934310
H       -0.71820620      -0.36069912       0.96242462
H        0.72049526      -0.41446045      -1.73698655
H        2.67067016       0.25899343      -0.90072966
12
Frame=4 idx=003903 GeodesicLength=0.2158121998373554 rxn_smarts="[C:1]([C:2]([N:3]([C:4](=[O:5])[H:12])[H:11])([H:9])[H:10])([H:6])([H:7])[H:8]>>[C-:2](=[N+:3]([C:4](=[O:5])[H:12])[H:11])[H:9].[C:1]([H:6])([H:7])([H:8])[H:10]"
C       -1.41251943       0.70086062       0.56842959
C       -0.28135603      -1.06548254      -0.02867871
N        0.78155318      -0.56646089      -0.74372619
C        1.93456869      -0.08408657      -0.15068764
O        2.11634757       0.01004022       1.02967393
H       -2.36340852       0.52560215       1.06991754
H       -1.58926112       1.00579054      -0.45832957
H       -0.82881452       1.46798593       1.07487716
H       -1.04050217      -1.46840011      -0.69926258
H       -0.71111548      -0.36028743       0.98313531
H        0.72827432      -0.43215909      -1.74406848
H        2.66623350       0.26659717      -0.90128036
12
Frame=5 idx=003903 GeodesicLength=0.2697390545530485 rxn_smarts="[C:1]([C:2]([N:3]([C:4](=[O:5])[H:12])[H:11])([H:9])[H:10])([H:6])([H:7])[H:8]>>[C-:2](=[N+:3]([C:4](=[O:5])[H:12])[H:11])[H:9].[C:1]([H:6])([H:7])([H:8])[H:10]"
C       -1.40977229       0.70276638       0.57152310
C       -0.28711840      -1.06159331      -0.03627636
N        0.78342229      -0.57521850      -0.74915797
C        1.93222247      -0.08501835      -0.15308697
O        2.10947094       0.01384502       1.02748466
H       -2.36648310       0.52595179       1.06171133
H       -1.58344397       1.02573962      -0.45094971
H       -0.83801073       1.47317609       1.08703571
H       -1.03413792      -1.48405283      -0.70895628
H       -0.70402763      -0.35967275       1.00362367
H        0.73615718      -0.44988400      -1.75104584
H        2.66172116       0.27396085      -0.90190534
12
Frame=6 idx=003903 GeodesicLength=0.3236493987723514 rxn_smarts="[C:1]([C:2]([N:3]([C:4](=[O:5])[H:12])[H:11])([H:9])[H:10])([H:6])([H:7])[H:8]>>[C-:2](=[N+:3]([C:4](=[O:5])[H:12])[H:11])[H:9].[C:1]([H:6])([H:7])([H:8])[H:10]"
C       -1.40703254       0.70488954       0.57457884
C       -0.29309812      -1.05732170      -0.04423298
N        0.78525089      -0.58388808      -0.75460066
C        1.92972604      -0.08575122      -0.15551971
O        2.10257272       0.01736512       1.02524559
H       -2.36940357       0.52631690       1.05339176
H       -1.57769566       1.04598817      -0.44323862
H       -0.84747537       1.47832314       1.09938330
H       -1.02718162      -1.50047757      -0.71836232
H       -0.69697070      -0.35889085       1.02387706
H        0.74415020      -0.46761877      -1.75793252
H        2.65715775       0.28106531      -0.90258973
12
Frame=7 idx=003903 GeodesicLength=0.3775396618120794 rxn_smarts="[C:1]([C:2]([N:3]([C:4](=[O:5])[H:12])[H:11])([H:9])[H:10])([H:6])([H:7])[H:8]>>[C-:2](=[N+:3]([C:4](=[O:5])[H:12])[H:11])[H:9].[C:1]([H:6])([H:7])([H:8])[H:10]"
C       -1.40427796       0.70724059       0.57759482
C       -0.29931251      -1.05267528      -0.05260108
N        0.78703082      -0.59248108      -0.76006901
C        1.92706051      -0.08630097      -0.15798684
O        2.09560800       0.02062265       1.02296371
H       -2.37215634       0.52674855       1.04494493
H       -1.57198023       1.06655708      -0.43518018
H       -0.85715101       1.48338893       1.11193149
H       -1.01961663      -1.51771116      -0.72742047
H       -0.68997683      -0.35798589       1.04388434
H        0.75226617      -0.48539073      -1.76474238
H        2.65250597       0.28798731      -0.90331932
12
Frame=8 idx=003903 GeodesicLength=0.4314087304754092 rxn_smarts="[C:1]([C:2]([N:3]([C:4](=[O:5])[H:12])[H:11])([H:9])[H:10])([H:6])([H:7])[H:8]>>[C-:2](=[N+:3]([C:4](=[O:5])[H:12])[H:11])[H:9].[C:1]([H:6])([H:7])([H:8])[H:10]"
C       -1.40148905       0.70983225       0.58056868
C       -0.30578377      -1.04765275      -0.06144354
N        0.78875238      -0.60099945      -0.76558138
C        1.92421118      -0.08668866      -0.16048777
O        2.08854137       0.02359313       1.02065099
H       -2.37472609       0.52729897       1.03637213
H       -1.56628554       1.08745767      -0.42676905
H       -0.86698009       1.48834929       1.12466694
H       -1.01140964      -1.53579823      -0.73604601
H       -0.68307534      -0.35699806       1.06363157
H        0.76052086      -0.50321404      -1.77148933
H        2.64772371       0.29481988      -0.90407323
12
Frame=9 idx=003903 GeodesicLength=0.48526976167068775 rxn_smarts="[C:1]([C:2]([N:3]([C:4](=[O:5])[H:12])[H:11])([H:9])[H:10])([H:6])([H:7])[H:8]>>[C-:2](=[N+:3]([C:4](=[O:5])[H:12])[H:11])[H:9].[C:1]([H:6])([H:7])([H:8])[H:10]"
C       -1.39868216       0.71266418       0.58351595
C       -0.31251812      -1.04221609      -0.07083391
N        0.79040443      -0.60937800      -0.77116315
C        1.92114961      -0.08684300      -0.16303038
O        2.08133008       0.02635091       1.01830389
H       -2.37712548       0.52796452       1.02769833
H       -1.56065932       1.10868876      -0.41798381
H       -0.87696326       1.49318361       1.13760227
H       -1.00250783      -1.55476655      -0.74417159
H       -0.67629100      -0.35596672       1.08311322
H        0.76891756      -0.52103196      -1.77819375
H        2.64294549       0.30135034      -0.90485706
12
Frame=10 idx=003903 GeodesicLength=0.539109272347617 rxn_smarts="[C:1]([C:2]([N:3]([C:4](=[O:5])[H:12])[H:11])([H:9])[H:10])([H:6])([H:7])[H:8]>>[C-:2](=[N+:3]([C:4](=[O:5])[H:12])[H:11])[H:9].[C:1]([H:6])([H:7])([H:8])[H:10]"
C       -1.39582740       0.71574939       0.58642686
C       -0.31955018      -1.03636989      -0.08084962
N        0.79197440      -0.61763428      -0.77684046
C        1.91784923      -0.08679167      -0.16561497
O        2.07391655       0.02888442       1.01592584
H       -2.37933698       0.52881590       1.01890181
H       -1.55504595       1.13028999      -0.40880251
H       -0.88702509       1.49784288       1.15074835
H       -0.99286479      -1.57466735      -0.75167377
H       -0.66966665      -0.35494905       1.10230001
H        0.77748437      -0.53889346      -1.78487647
H        2.63809249       0.30772310      -0.90564509
12
Frame=11 idx=003903 GeodesicLength=0.5929284802809054 rxn_smarts="[C:1]([C:2]([N:3]([C:4](=[O:5])[H:12])[H:11])([H:9])[H:10])([H:6])([H:7])[H:8]>>[C-:2](=[N+:3]([C:4](=[O:5])[H:12])[H:11])[H:9].[C:1]([H:6])([H:7])([H:8])[H:10]"
C       -1.39290436       0.71909585       0.58930168
C       -0.32691029      -1.03009944      -0.09157715
N        0.79345086      -0.62576295      -0.78264019
C        1.91427789      -0.08652175      -0.16824626
O        2.06624032       0.03120624       1.01352170
H       -2.38134940       0.52990450       1.00997778
H       -1.54941784       1.15228955      -0.39920516
H       -0.89710585       1.50228747       1.16411749
H       -0.98243089      -1.59554121      -0.75843839
H       -0.66324387      -0.35400985       1.12116833
H        0.78624901      -0.55683001      -1.79155859
H        2.63314443       0.31398160      -0.90642123
12
Frame=12 idx=003903 GeodesicLength=0.6467291945984551 rxn_smarts="[C:1]([C:2]([N:3]([C:4](=[O:5])[H:12])[H:11])([H:9])[H:10])([H:6])([H:7])[H:8]>>[C-:2](=[N+:3]([C:4](=[O:5])[H:12])[H:11])[H:9].[C:1]([H:6])([H:7])([H:8])[H:10]"
C       -1.38988426       0.72271570       0.59213140
C       -0.33463807      -1.02339046      -0.10311938
N        0.79481969      -0.63376678      -0.78859427
C        1.91039849      -0.08603003      -0.17092347
O        2.05824082       0.03327984       1.01110131
H       -2.38314293       0.53129469       1.00092360
H       -1.54373979       1.17471860      -0.38917697
H       -0.90712077       1.50647469       1.17770606
H       -0.97114598      -1.61743021      -0.76431364
H       -0.65707024      -0.35321997       1.13968417
H        0.79524882      -0.57489553      -1.79826046
H        2.62803422       0.32024947      -0.90715835
12
Frame=13 idx=003903 GeodesicLength=0.7005175914480228 rxn_smarts="[C:1]([C:2]([N:3]([C:4](=[O:5])[H:12])[H:11])([H:9])[H:10])([H:6])([H:7])[H:8]>>[C-:2](=[N+:3]([C:4](=[O:5])[H:12])[H:11])[H:9].[C:1]([H:6])([H:7])([H:8])[H:10]"
C       -1.38672513       0.72661598       0.59491798
C       -0.34278403      -1.01622672      -0.11559917
N        0.79606830      -0.64166476      -0.79473759
C        1.90613774      -0.08526098      -0.17365817
O        2.04980950       0.03517048       1.00865816
H       -2.38470560       0.53306071       0.99168708
H       -1.53789735       1.19765265      -0.37867262
H       -0.91698000       1.51032235       1.19158450
H       -0.95894333      -1.64039149      -0.76912942
H       -0.65121744      -0.35269491       1.15780525
H        0.80453065      -0.59317598      -1.80500807
H        2.62270670       0.32659265      -0.90784793
12
Frame=14 idx=003903 GeodesicLength=0.7542943588531313 rxn_smarts="[C:1]([C:2]([N:3]([C:4](=[O:5])[H:12])[H:11])([H:9])[H:10])([H:6])([H:7])[H:8]>>[C-:2](=[N+:3]([C:4](=[O:5])[H:12])[H:11])[H:9].[C:1]([H:6])([H:7])([H:8])[H:10]"
C       -1.38336039       0.73079928       0.59765337
C       -0.35140824      -1.00860893      -0.12915961
N        0.79718315      -0.64949584      -0.80110393
C        1.90141175      -0.08416604      -0.17644895
O        2.04081858       0.03690116       1.00619615
H       -2.38599168       0.53530446       0.98225418
H       -1.53177795       1.22114360      -0.36765497
H       -0.92652911       1.51374084       1.20576794
H       -0.94577483      -1.66443168      -0.77270653
H       -0.64577361      -0.35257480       1.17547414
H        0.81417728      -0.61182046      -1.81181370
H        2.61702506       0.33320840      -0.90845810
12
Frame=15 idx=003903 GeodesicLength=0.8080757826400612 rxn_smarts="[C:1]([C:2]([N:3]([C:4](=[O:5])[H:12])[H:11])([H:9])[H:10])([H:6])([H:7])[H:8]>>[C-:2](=[N+:3]([C:4](=[O:5])[H:12])[H:11])[H:9].[C:1]([H:6])([H:7])([H:8])[H:10]"
C       -1.37970005       0.73526835       0.60033561
C       -0.36058956      -1.00052767      -0.14398357
N        0.79815068      -0.65732470      -0.80773466
C        1.89609758      -0.08265651      -0.17931137
O        2.03108037       0.03858684       1.00370764
H       -2.38696007       0.53815529       0.97253640
H       -1.52515369       1.24530250      -0.35604780
H       -0.93560129       1.51658914       1.22036338
H       -0.93157224      -1.68959490      -0.77480695
H       -0.64086355      -0.35306124       1.19261434
H        0.82428290      -0.63103089      -1.81869415
H        2.61082892       0.34029379      -0.90897886
12
Frame=16 idx=003903 GeodesicLength=0.8619214547499844 rxn_smarts="[C:1]([C:2]([N:3]([C:4](=[O:5])[H:12])[H:11])([H:9])[H:10])([H:6])([H:7])[H:8]>>[C-:2](=[N+:3]([C:4](=[O:5])[H:12])[H:11])[H:9].[C:1]([H:6])([H:7])([H:8])[H:10]"
C       -1.37563528       0.74002255       0.60296244
C       -0.37042623      -0.99196692      -0.16030561
N        0.79895462      -0.66522111      -0.81467920
C        1.89003646      -0.08060506      -0.18226359
O        2.02036192       0.04036885       1.00118467
H       -2.38755754       0.54176002       0.96244391
H       -1.51776428       1.27026124      -0.34376398
H       -0.94398737       1.51870442       1.23548823
H       -0.91624990      -1.71591913      -0.77513602
H       -0.63664171      -0.35441516       1.20913124
H        0.83497355      -0.65105200      -1.82565978
H        2.60393577       0.34806232      -0.90940231
