13
Frame=0 idx=003217 GeodesicLength=0.0 rxn_smarts="[C:1]([C@@:2]1([H:9])[C:3]([H:10])([H:11])[C:4]([H:12])([H:13])[O:5]1)([H:6])([H:7])[H:8]>>[C:1]([C@@:2]([C:3](=[C:4]([H:12])[H:13])[H:11])([O:5][H:10])[H:9])([H:6])([H:7])[H:8]"
C        1.51586509      -0.18595077       0.22581380
C        0.31492129      -0.05459263      -0.68406031
C       -1.02482894      -0.72627192      -0.43286411
C       -1.25855180       0.32921331       0.61782620
O       -0.48963093       1.24387092      -0.34526646
H        2.19792278       0.66020635       0.12337449
H        1.25990364      -0.31617240       1.27593516
H        2.05112971      -1.08172898      -0.09709790
H        0.65416440       0.03304680      -1.71858580
H       -1.18040318       0.81486078      -1.07636153
H       -1.11222938      -1.79118112      -0.23101752
H       -0.66792450       0.35795994       1.53995111
H       -2.26033819       0.71673978       0.80235281
13
Frame=1 idx=003217 GeodesicLength=0.09747391242206711 rxn_smarts="[C:1]([C@@:2]1([H:9])[C:3]([H:10])([H:11])[C:4]([H:12])([H:13])[O:5]1)([H:6])([H:7])[H:8]>>[C:1]([C@@:2]([C:3](=[C:4]([H:12])[H:13])[H:11])([O:5][H:10])[H:9])([H:6])([H:7])[H:8]"
C        1.52030231      -0.18951266       0.22289256
C        0.31816033      -0.04534601      -0.68216214
C       -1.02273438      -0.71662039      -0.43069055
C       -1.26724940       0.32468220       0.62463298
O       -0.47716949       1.24956073      -0.34740418
H        2.20852369       0.65101546       0.11652596
H        1.26187800      -0.31206958       1.27348797
H        2.04372455      -1.09330732      -0.09698606
H        0.65345505       0.03431749      -1.71892073
H       -1.18703339       0.81362857      -1.08704801
H       -1.09634941      -1.78233501      -0.22770793
H       -0.68128777       0.36549326       1.54844497
H       -2.27422008       0.70049326       0.80493517
13
Frame=2 idx=003217 GeodesicLength=0.1949010142069862 rxn_smarts="[C:1]([C@@:2]1([H:9])[C:3]([H:10])([H:11])[C:4]([H:12])([H:13])[O:5]1)([H:6])([H:7])[H:8]>>[C:1]([C@@:2]([C:3](=[C:4]([H:12])[H:13])[H:11])([O:5][H:10])[H:9])([H:6])([H:7])[H:8]"
C        1.52477796      -0.19312207       0.21994565
C        0.32149418      -0.03602134      -0.68017375
C       -1.02057257      -0.70678309      -0.42837592
C       -1.27600675       0.32000694       0.63157983
O       -0.46438447       1.25550903      -0.34950515
H        2.21920402       0.64162717       0.10954607
H        1.26401183      -0.30782454       1.27100849
H        2.03613173      -1.10485236      -0.09681525
H        0.65275408       0.03557874      -1.71912987
H       -1.19363322       0.81208973      -1.09809150
H       -1.08078623      -1.77318760      -0.22466167
H       -0.69481432       0.37345395       1.55691744
H       -2.28817625       0.68352544       0.80775563
13
Frame=3 idx=003217 GeodesicLength=0.2923034556563962 rxn_smarts="[C:1]([C@@:2]1([H:9])[C:3]([H:10])([H:11])[C:4]([H:12])([H:13])[O:5]1)([H:6])([H:7])[H:8]>>[C:1]([C@@:2]([C:3](=[C:4]([H:12])[H:13])[H:11])([O:5][H:10])[H:9])([H:6])([H:7])[H:8]"
C        1.52928639      -0.19678367       0.21697323
C        0.32492345      -0.02661148      -0.67809572
C       -1.01834521      -0.69674283      -0.42591494
C       -1.28482327       0.31518472       0.63867518
O       -0.45125093       1.26173069      -0.35156512
H        2.22995798       0.63203318       0.10244241
H        1.26630544      -0.30345252       1.26849407
H        2.02834553      -1.11635927      -0.09659072
H        0.65206192       0.03684276      -1.71921081
H       -1.20020704       0.81021497      -1.10952060
H       -1.06554140      -1.76373518      -0.22187772
H       -0.70851609       0.38186831       1.56535988
H       -2.30219677       0.66581033       0.81083085
13
Frame=4 idx=003217 GeodesicLength=0.3896996657463517 rxn_smarts="[C:1]([C@@:2]1([H:9])[C:3]([H:10])([H:11])[C:4]([H:12])([H:13])[O:5]1)([H:6])([H:7])[H:8]>>[C:1]([C@@:2]([C:3](=[C:4]([H:12])[H:13])[H:11])([O:5][H:10])[H:9])([H:6])([H:7])[H:8]"
C        1.53382088      -0.20050109       0.21397645
C        0.32844898      -0.01710846      -0.67592847
C       -1.01605407      -0.68647928      -0.42330188
C       -1.29369891       0.31021591       0.64592692
O       -0.43774173       1.26824239      -0.35358011
H        2.24078042       0.62222245       0.09522169
H        1.26875872      -0.29896785       1.26594270
H        2.02035640      -1.12782439      -0.09631641
H        0.65137958       0.03812251      -1.71916078
H       -1.20675813       0.80797313      -1.12136629
H       -1.05061891      -1.75397204      -0.21935724
H       -0.72240803       0.39076911       1.57375937
H       -2.31626521       0.64730761       0.81418404
13
Frame=5 idx=003217 GeodesicLength=0.487091862875018 rxn_smarts="[C:1]([C@@:2]1([H:9])[C:3]([H:10])([H:11])[C:4]([H:12])([H:13])[O:5]1)([H:6])([H:7])[H:8]>>[C:1]([C@@:2]([C:3](=[C:4]([H:12])[H:13])[H:11])([O:5][H:10])[H:9])([H:6])([H:7])[H:8]"
C        1.53837633      -0.20427795       0.21095554
C        0.33207180      -0.00750394      -0.67367162
C       -1.01370005      -0.67597367      -0.42052881
C       -1.30263390       0.30509502       0.65334484
O       -0.42383285       1.27505797      -0.35554509
H        2.25166630       0.61218820       0.08789122
H        1.27137280      -0.29438614       1.26335269
H        2.01215758      -1.13924720      -0.09599948
H        0.65070716       0.03943217      -1.71897660
H       -1.21328981       0.80533112      -1.13365800
H       -1.03602140      -1.74389290      -0.21710315
H       -0.73650152       0.40018588       1.58210724
H       -2.33037244       0.62799145       0.81783121
13
Frame=6 idx=003217 GeodesicLength=0.5844983078332588 rxn_smarts="[C:1]([C@@:2]1([H:9])[C:3]([H:10])([H:11])[C:4]([H:12])([H:13])[O:5]1)([H:6])([H:7])[H:8]>>[C:1]([C@@:2]([C:3](=[C:4]([H:12])[H:13])[H:11])([O:5][H:10])[H:9])([H:6])([H:7])[H:8]"
C        1.54294525      -0.20811979       0.20791104
C        0.33579318       0.00221143      -0.67132527
C       -1.01128647      -0.66520181      -0.41758909
C       -1.31162585       0.29982060       0.66094087
O       -0.40949301       1.28219517      -0.35745468
H        2.26261085       0.60191643       0.08045603
H        1.27414771      -0.28972144       1.26072237
H        2.00373830      -1.15062160      -0.09564224
H        0.65004522       0.04078687      -1.71865549
H       -1.21980436       0.80225042      -1.14643024
H       -1.02175554      -1.73348664      -0.21512049
H       -0.75081872       0.41015626       1.59038743
H       -2.34449656       0.60781410       0.82179975
13
Frame=7 idx=003217 GeodesicLength=0.681918551921745 rxn_smarts="[C:1]([C@@:2]1([H:9])[C:3]([H:10])([H:11])[C:4]([H:12])([H:13])[O:5]1)([H:6])([H:7])[H:8]>>[C:1]([C@@:2]([C:3](=[C:4]([H:12])[H:13])[H:11])([O:5][H:10])[H:9])([H:6])([H:7])[H:8]"
C        1.54752068      -0.21202971       0.20484426
C        0.33961392       0.01204764      -0.66888795
C       -1.00881488      -0.65414178      -0.41447341
C       -1.32067489       0.29438951       0.66872591
O       -0.39469482       1.28966964      -0.35930103
H        2.27360909       0.59139572       0.07292337
H        1.27708287      -0.28499014       1.25805139
H        1.99509058      -1.16194451      -0.09525283
H        0.64939323       0.04220277      -1.71819450
H       -1.22630598       0.79868752      -1.15971731
H       -1.00782464      -1.72274635      -0.21341888
H       -0.76537905       0.42071596       1.59858795
H       -2.35861612       0.58674374       0.82611303
13
Frame=8 idx=003217 GeodesicLength=0.7793651245176134 rxn_smarts="[C:1]([C@@:2]1([H:9])[C:3]([H:10])([H:11])[C:4]([H:12])([H:13])[O:5]1)([H:6])([H:7])[H:8]>>[C:1]([C@@:2]([C:3](=[C:4]([H:12])[H:13])[H:11])([O:5][H:10])[H:9])([H:6])([H:7])[H:8]"
C        1.55209461      -0.21601263       0.20175603
C        0.34353621       0.02201763      -0.66635886
C       -1.00628816      -0.64276177      -0.41117357
C       -1.32977961       0.28879955       0.67671259
O       -0.37940444       1.29750128      -0.36107654
H        2.28465692       0.58061028       0.06529836
H        1.28017821      -0.28020680       1.25533921
H        1.98619904      -1.17321436      -0.09483483
H        0.64875256       0.04369856      -1.71758981
H       -1.23279426       0.79459363      -1.17355900
H       -0.99424055      -1.71165574      -0.21200703
H       -0.78020793       0.43191291       1.60668789
H       -2.37270259       0.56471747       0.83080556
13
Frame=9 idx=003217 GeodesicLength=0.8768171515885136 rxn_smarts="[C:1]([C@@:2]1([H:9])[C:3]([H:10])([H:11])[C:4]([H:12])([H:13])[O:5]1)([H:6])([H:7])[H:8]>>[C:1]([C@@:2]([C:3](=[C:4]([H:12])[H:13])[H:11])([O:5][H:10])[H:9])([H:6])([H:7])[H:8]"
C        1.55666038      -0.22007342       0.19864570
C        0.34756033       0.03213199      -0.66373470
C       -1.00370721      -0.63103859      -0.40767821
C       -1.33893840       0.28304347       0.68491721
O       -0.36359396       1.30570440      -0.36276726
H        2.29574857       0.56955045       0.05758755
H        1.28343579      -0.27539083       1.25258492
H        1.97705632      -1.18442785      -0.09440250
H        0.64812075       0.04529487      -1.71683641
H       -1.23927021       0.78991808      -1.18799058
H       -0.98100681      -1.70020568      -0.21089165
H       -0.79532173       0.44378154       1.61467877
H       -2.38674382       0.54171159       0.83588717
13
Frame=10 idx=003217 GeodesicLength=0.9743015935176612 rxn_smarts="[C:1]([C@@:2]1([H:9])[C:3]([H:10])([H:11])[C:4]([H:12])([H:13])[O:5]1)([H:6])([H:7])[H:8]>>[C:1]([C@@:2]([C:3](=[C:4]([H:12])[H:13])[H:11])([O:5][H:10])[H:9])([H:6])([H:7])[H:8]"
C        1.56120797      -0.22421780       0.19551487
C        0.35168953       0.04240803      -0.66101349
C       -1.00107708      -0.61893279      -0.40397602
C       -1.34814556       0.27712001       0.69335724
O       -0.34722076       1.31430247      -0.36436367
H        2.30688158       0.55819593       0.04979548
H        1.28685434      -0.27055500       1.24978951
H        1.96764037      -1.19558314      -0.09395688
H        0.64749892       0.04701284      -1.71593139
H       -1.24573387       0.78459170      -1.20305853
H       -0.96814005      -1.68836936      -0.21009633
H       -0.81076548       0.45638020       1.62252947
H       -2.40068992       0.51764692       0.84140974
13
Frame=11 idx=003217 GeodesicLength=1.0718015251588455 rxn_smarts="[C:1]([C@@:2]1([H:9])[C:3]([H:10])([H:11])[C:4]([H:12])([H:13])[O:5]1)([H:6])([H:7])[H:8]>>[C:1]([C@@:2]([C:3](=[C:4]([H:12])[H:13])[H:11])([O:5][H:10])[H:9])([H:6])([H:7])[H:8]"
C        1.56572793      -0.22845186       0.19236403
C        0.35592605       0.05286095      -0.65819226
C       -0.99840100      -0.60640981      -0.40005570
C       -1.35739647       0.27101872       0.70205179
O       -0.33024966       1.32331331      -0.36585390
H        2.31805054       0.54652941       0.04192765
H        1.29043346      -0.26571616       1.24695358
H        1.95793687      -1.20667675      -0.09350562
H        0.64688699       0.04887635      -1.71486960
H       -1.25218358       0.77854908      -1.21880382
H       -0.95565299      -1.67612782      -0.20964214
H       -0.82657684       0.46976272       1.63021448
H       -2.41450130       0.49247184       0.84741151
13
Frame=12 idx=003217 GeodesicLength=1.1693224404921552 rxn_smarts="[C:1]([C@@:2]1([H:9])[C:3]([H:10])([H:11])[C:4]([H:12])([H:13])[O:5]1)([H:6])([H:7])[H:8]>>[C:1]([C@@:2]([C:3](=[C:4]([H:12])[H:13])[H:11])([O:5][H:10])[H:9])([H:6])([H:7])[H:8]"
C        1.57021098      -0.23278080       0.18919349
C        0.36027317       0.06351113      -0.65526589
C       -0.99568235      -0.59342539      -0.39590157
C       -1.36668081       0.26473360       0.71102682
O       -0.31263746       1.33276093      -0.36721846
H        2.32925356       0.53452685       0.03398590
H        1.29417553      -0.26089204       1.24407824
H        1.94792430      -1.21770846      -0.09305941
H        0.64628389       0.05091455      -1.71364589
H       -1.25861605       0.77170667      -1.23527378
H       -0.94356257      -1.66345150      -0.20955067
H       -0.84280807       0.48399032       1.63770033
H       -2.42813413       0.46611415       0.85393090
13
Frame=13 idx=003217 GeodesicLength=1.266841698579741 rxn_smarts="[C:1]([C@@:2]1([H:9])[C:3]([H:10])([H:11])[C:4]([H:12])([H:13])[O:5]1)([H:6])([H:7])[H:8]>>[C:1]([C@@:2]([C:3](=[C:4]([H:12])[H:13])[H:11])([O:5][H:10])[H:9])([H:6])([H:7])[H:8]"
C        1.57464717      -0.23721200       0.18600205
C        0.36473374       0.07437687      -0.65222811
C       -0.99292456      -0.57993949      -0.39149749
C       -1.37598679       0.25824785       0.72031205
O       -0.29434486       1.34266283      -0.36843644
H        2.34048466       0.52217179       0.02597621
H        1.29808307      -0.25610297       1.24116412
H        1.93758536      -1.22867451      -0.09263306
H        0.64568720       0.05315664      -1.71225431
H       -1.26502741       0.76397482      -1.25251172
H       -0.93188341      -1.65031339      -0.20985187
H       -0.85951126       0.49912072       1.64495637
H       -2.44154291       0.43853085       0.86100219
13
Frame=14 idx=003217 GeodesicLength=1.3643514544515427 rxn_smarts="[C:1]([C@@:2]1([H:9])[C:3]([H:10])([H:11])[C:4]([H:12])([H:13])[O:5]1)([H:6])([H:7])[H:8]>>[C:1]([C@@:2]([C:3](=[C:4]([H:12])[H:13])[H:11])([O:5][H:10])[H:9])([H:6])([H:7])[H:8]"
C        1.57902330      -0.24175231       0.18279052
C        0.36931224       0.08548345      -0.64907284
C       -0.99013259      -0.56589523      -0.38682818
C       -1.38530376       0.25155828       0.72993235
O       -0.27532127       1.35304743      -0.36948620
H        2.35174023       0.50943448       0.01790099
H        1.30215496      -0.25136845       1.23821330
H        1.92688625      -1.23957709      -0.09223446
H        0.64509795       0.05563853      -1.71068828
H       -1.27140930       0.75524985      -1.27056984
H       -0.92064020      -1.63667432      -0.21058064
H       -0.87675486       0.51523639       1.65193550
H       -2.45465295       0.40961899       0.86868777
13
Frame=15 idx=003217 GeodesicLength=1.4618353228141656 rxn_smarts="[C:1]([C@@:2]1([H:9])[C:3]([H:10])([H:11])[C:4]([H:12])([H:13])[O:5]1)([H:6])([H:7])[H:8]>>[C:1]([C@@:2]([C:3](=[C:4]([H:12])[H:13])[H:11])([O:5][H:10])[H:9])([H:6])([H:7])[H:8]"
C        1.58332610      -0.24641048       0.17955803
C        0.37401344       0.09685814      -0.64579157
C       -0.98731099      -0.55123538      -0.38187499
C       -1.39461360       0.24464928       0.73992286
O       -0.25551603       1.36393972      -0.37034092
H        2.36301604       0.49628622       0.00976370
H        1.30639238      -0.24671008       1.23522764
H        1.91579657      -1.25041582      -0.09187819
H        0.64451548       0.05840057      -1.70893993
H       -1.27775281       0.74541173      -1.28949734
H       -0.90985767      -1.62249252      -0.21178002
H       -0.89461908       0.53241852       1.65858579
H       -2.46738982       0.37930010       0.87704495
13
Frame=16 idx=003217 GeodesicLength=1.5592624376543371 rxn_smarts="[C:1]([C@@:2]1([H:9])[C:3]([H:10])([H:11])[C:4]([H:12])([H:13])[O:5]1)([H:6])([H:7])[H:8]>>[C:1]([C@@:2]([C:3](=[C:4]([H:12])[H:13])[H:11])([O:5][H:10])[H:9])([H:6])([H:7])[H:8]"
C        1.58754238      -0.25119579       0.17630240
C        0.37884182       0.10852996      -0.64237447
C       -0.98446499      -0.53589713      -0.37661473
C       -1.40389195       0.23749841       0.75032682
O       -0.23487788       1.37536489      -0.37096860
H        2.37430601       0.48269741       0.00156824
H        1.31079830      -0.24215556       1.23220843
H        1.90428695      -1.26118989      -0.09158570
H        0.64393669       0.06148780      -1.70700068
H       -1.28404403       0.73432465      -1.30933787
H       -0.89956187      -1.60772246      -0.21349817
H       -0.91320469       0.55075498       1.66484547
H       -2.47966675       0.34750276       0.88612884
