12
Frame=0 idx=007470 GeodesicLength=0.0 rxn_smarts="[N:1]([c:2]1[c:3]([H:10])[n:4]([H:11])[c:5](=[O:6])[n:7]1[H:12])([H:8])[H:9]>>[N:1]([c:2]1[c:3]([H:10])[n:4]([H:11])[c:5]([O:6][H:12])[n:7]1)([H:8])[H:9]"
N        2.11478877      -0.00684128       0.05217152
C        0.73459064       0.09326224       0.02505628
C       -0.08040901       1.18358399       0.05583134
N       -1.41161476       0.69148282       0.09354676
C       -1.32889154      -0.63839958       0.07482304
O       -2.10583162      -1.65504055       0.08831102
N       -0.06139494      -1.03276495       0.03335128
H        2.45932027      -0.82628948      -0.42171579
H        2.59226343       0.82527561      -0.25129958
H        0.13942034       2.23571998       0.06941099
H       -2.25433153       1.23161603       0.12875465
H       -0.79791007      -2.10160486       0.05175847
12
Frame=1 idx=007470 GeodesicLength=0.03365842800818037 rxn_smarts="[N:1]([c:2]1[c:3]([H:10])[n:4]([H:11])[c:5](=[O:6])[n:7]1[H:12])([H:8])[H:9]>>[N:1]([c:2]1[c:3]([H:10])[n:4]([H:11])[c:5]([O:6][H:12])[n:7]1)([H:8])[H:9]"
N        2.11487768      -0.01003043       0.05054583
C        0.73431023       0.09380230       0.03010419
C       -0.07980246       1.18433155       0.05300195
N       -1.41000865       0.69275945       0.09087376
C       -1.32802367      -0.63751564       0.13257455
O       -2.10667741      -1.65151740       0.07401318
N       -0.06053465      -1.03289694       0.05797035
H        2.45505744      -0.82118376      -0.44070907
H        2.59320339       0.82607057      -0.24047856
H        0.14032519       2.23649643       0.05957768
H       -2.25473826       1.23053501       0.10995030
H       -0.79798881      -2.11085112       0.02257583
12
Frame=2 idx=007470 GeodesicLength=0.06770272596861138 rxn_smarts="[N:1]([c:2]1[c:3]([H:10])[n:4]([H:11])[c:5](=[O:6])[n:7]1[H:12])([H:8])[H:9]>>[N:1]([c:2]1[c:3]([H:10])[n:4]([H:11])[c:5]([O:6][H:12])[n:7]1)([H:8])[H:9]"
N        2.11505775      -0.01334366       0.04872590
C        0.73416413       0.09411418       0.03794750
C       -0.07915994       1.18467962       0.05425671
N       -1.40821635       0.69298727       0.08881954
C       -1.32751992      -0.63649554       0.17303172
O       -2.10679166      -1.64655649       0.06534198
N       -0.05945230      -1.03304742       0.08393635
H        2.44981055      -0.81599466      -0.46015100
H        2.59365482       0.82647011      -0.23101200
H        0.14086106       2.23687656       0.04966890
H       -2.25477116       1.22816809       0.09273769
H       -0.79763699      -2.11785807      -0.00330328
12
Frame=3 idx=007470 GeodesicLength=0.10191318407883056 rxn_smarts="[N:1]([c:2]1[c:3]([H:10])[n:4]([H:11])[c:5](=[O:6])[n:7]1[H:12])([H:8])[H:9]>>[N:1]([c:2]1[c:3]([H:10])[n:4]([H:11])[c:5]([O:6][H:12])[n:7]1)([H:8])[H:9]"
N        2.11511081      -0.01686967       0.04688268
C        0.73398006       0.09437989       0.04650063
C       -0.07847252       1.18500129       0.05782544
N       -1.40637964       0.69307471       0.08762240
C       -1.32754564      -0.63528952       0.20385385
O       -2.10645222      -1.64158541       0.05881928
N       -0.05850835      -1.03309085       0.10726712
H        2.44401744      -0.81059040      -0.47973838
H        2.59405262       0.82646906      -0.22152749
H        0.14141951       2.23708297       0.03980747
H       -2.25462412       1.22544979       0.07685278
H       -0.79659796      -2.12403186      -0.02416578
12
Frame=4 idx=007470 GeodesicLength=0.13616521001455126 rxn_smarts="[N:1]([c:2]1[c:3]([H:10])[n:4]([H:11])[c:5](=[O:6])[n:7]1[H:12])([H:8])[H:9]>>[N:1]([c:2]1[c:3]([H:10])[n:4]([H:11])[c:5]([O:6][H:12])[n:7]1)([H:8])[H:9]"
N        2.11501951      -0.02047860       0.04507270
C        0.73374296       0.09465049       0.05496542
C       -0.07776121       1.18536688       0.06260292
N       -1.40449232       0.69319481       0.08823989
C       -1.32783084      -0.63398734       0.23019631
O       -2.10587449      -1.63661010       0.05387631
N       -0.05773522      -1.03305671       0.12756898
H        2.43798691      -0.80494377      -0.49902901
H        2.59449740       0.82615294      -0.21188986
H        0.14201940       2.23713189       0.03011422
H       -2.25432773       1.22238714       0.06054737
H       -0.79524436      -2.12980763      -0.04226525
12
Frame=5 idx=007470 GeodesicLength=0.17040733036881617 rxn_smarts="[N:1]([c:2]1[c:3]([H:10])[n:4]([H:11])[c:5](=[O:6])[n:7]1[H:12])([H:8])[H:9]>>[N:1]([c:2]1[c:3]([H:10])[n:4]([H:11])[c:5]([O:6][H:12])[n:7]1)([H:8])[H:9]"
N        2.11477884      -0.02402838       0.04334060
C        0.73342654       0.09497716       0.06263837
C       -0.07708769       1.18581364       0.06734454
N       -1.40262733       0.69338884       0.08934903
C       -1.32828643      -0.63256252       0.25344407
O       -2.10515313      -1.63167397       0.05020237
N       -0.05711406      -1.03292926       0.14521327
H        2.43202721      -0.79922718      -0.51736966
H        2.59501711       0.82555140      -0.20236451
H        0.14263729       2.23710790       0.02156828
H       -2.25388205       1.21908624       0.04465069
H       -0.79373629      -2.13550386      -0.05801703
12
Frame=6 idx=007470 GeodesicLength=0.20462329371456633 rxn_smarts="[N:1]([c:2]1[c:3]([H:10])[n:4]([H:11])[c:5](=[O:6])[n:7]1[H:12])([H:8])[H:9]>>[N:1]([c:2]1[c:3]([H:10])[n:4]([H:11])[c:5]([O:6][H:12])[n:7]1)([H:8])[H:9]"
N        2.11440618      -0.02739499       0.04183583
C        0.73300671       0.09537990       0.06901735
C       -0.07651909       1.18633006       0.07087048
N       -1.40084702       0.69366527       0.09050442
C       -1.32885276      -0.63101103       0.27437541
O       -2.10433854      -1.62677513       0.04741435
N       -0.05661531      -1.03269947       0.16058415
H        2.42647669      -0.79369708      -0.53401334
H        2.59561523       0.82469867      -0.19319494
H        0.14321921       2.23711543       0.01442141
H       -2.25338325       1.21567159       0.03016713
H       -0.79216806      -2.14128322      -0.07198224
12
Frame=7 idx=007470 GeodesicLength=0.23880926234568411 rxn_smarts="[N:1]([c:2]1[c:3]([H:10])[n:4]([H:11])[c:5](=[O:6])[n:7]1[H:12])([H:8])[H:9]>>[N:1]([c:2]1[c:3]([H:10])[n:4]([H:11])[c:5]([O:6][H:12])[n:7]1)([H:8])[H:9]"
N        2.11393693      -0.03058805       0.04026864
C        0.73251165       0.09585938       0.07448893
C       -0.07601507       1.18692584       0.07381391
N       -1.39912415       0.69401593       0.09148619
C       -1.32950561      -0.62931010       0.29364452
O       -2.10341093      -1.62193775       0.04544867
N       -0.05619816      -1.03235860       0.17453603
H        2.42113719      -0.78840341      -0.54946330
H        2.59618932       0.82363198      -0.18487950
H        0.14380683       2.23724912       0.00942218
H       -2.25280633       1.21209292       0.01569176
H       -0.79052168      -2.14717726      -0.08445803
12
Frame=8 idx=007470 GeodesicLength=0.27298218714629957 rxn_smarts="[N:1]([c:2]1[c:3]([H:10])[n:4]([H:11])[c:5](=[O:6])[n:7]1[H:12])([H:8])[H:9]>>[N:1]([c:2]1[c:3]([H:10])[n:4]([H:11])[c:5]([O:6][H:12])[n:7]1)([H:8])[H:9]"
N        2.11338529      -0.03369692       0.03848479
C        0.73197446       0.09640214       0.07969059
C       -0.07552682       1.18760233       0.07686594
N       -1.39742113       0.69445249       0.09250325
C       -1.33025315      -0.62747031       0.31172951
O       -2.10233309      -1.61714999       0.04396912
N       -0.05584187      -1.03191514       0.18780742
H        2.41569048      -0.78321451      -0.56442843
H        2.59669373       0.82236961      -0.17739639
H        0.14443447       2.23750062       0.00614584
H       -2.25206394       1.20827811       0.00042433
H       -0.78873842      -2.15315845      -0.09579596
12
Frame=9 idx=007470 GeodesicLength=0.3071486807756777 rxn_smarts="[N:1]([c:2]1[c:3]([H:10])[n:4]([H:11])[c:5](=[O:6])[n:7]1[H:12])([H:8])[H:9]>>[N:1]([c:2]1[c:3]([H:10])[n:4]([H:11])[c:5]([O:6][H:12])[n:7]1)([H:8])[H:9]"
N        2.11274819      -0.03678460       0.03631164
C        0.73142048       0.09700748       0.08507765
C       -0.07501758       1.18837142       0.08053144
N       -1.39570535       0.69497683       0.09356331
C       -1.33110685      -0.62548057       0.32895744
O       -2.10107659      -1.61242037       0.04292203
N       -0.05553708      -1.03136616       0.20088746
H        2.40984576      -0.77802300      -0.57947776
H        2.59709373       0.82091350      -0.17081050
H        0.14514120       2.23788315       0.00471081
H       -2.25103575       1.20412218      -0.01652356
H       -0.78677016      -2.15919987      -0.10614997
12
Frame=10 idx=007470 GeodesicLength=0.3413210223276246 rxn_smarts="[N:1]([c:2]1[c:3]([H:10])[n:4]([H:11])[c:5](=[O:6])[n:7]1[H:12])([H:8])[H:9]>>[N:1]([c:2]1[c:3]([H:10])[n:4]([H:11])[c:5]([O:6][H:12])[n:7]1)([H:8])[H:9]"
N        2.11201376      -0.03993064       0.03378925
C        0.73087601       0.09767787       0.09115901
C       -0.07447711       1.18922730       0.08489920
N       -1.39396380       0.69553725       0.09398818
C       -1.33212454      -0.62332247       0.34526824
O       -2.09959343      -1.60778999       0.04193998
N       -0.05529398      -1.03070922       0.21414325
H        2.40334630      -0.77265991      -0.59498715
H        2.59740740       0.81924416      -0.16481867
H        0.14593830       2.23834981       0.00443352
H       -2.24961901       1.19972997      -0.03431444
H       -0.78450989      -2.16535414      -0.11550036
12
Frame=11 idx=007470 GeodesicLength=0.37545984194562476 rxn_smarts="[N:1]([c:2]1[c:3]([H:10])[n:4]([H:11])[c:5](=[O:6])[n:7]1[H:12])([H:8])[H:9]>>[N:1]([c:2]1[c:3]([H:10])[n:4]([H:11])[c:5]([O:6][H:12])[n:7]1)([H:8])[H:9]"
N        2.11122840      -0.04279426       0.03193458
C        0.73021181       0.09838555       0.09573162
C       -0.07407322       1.19010149       0.08794607
N       -1.39234848       0.69616324       0.09495824
C       -1.33310372      -0.62112177       0.36096402
O       -2.09813425      -1.60316810       0.04157736
N       -0.05511471      -1.03001663       0.22577850
H        2.39779475      -0.76784153      -0.60801853
H        2.59775859       0.81752959      -0.15903122
H        0.14656100       2.23885982       0.00331239
H       -2.24833563       1.19535268      -0.04956446
H       -0.78244456      -2.17145008      -0.12558857
12
Frame=12 idx=007470 GeodesicLength=0.4095776091814176 rxn_smarts="[N:1]([c:2]1[c:3]([H:10])[n:4]([H:11])[c:5](=[O:6])[n:7]1[H:12])([H:8])[H:9]>>[N:1]([c:2]1[c:3]([H:10])[n:4]([H:11])[c:5]([O:6][H:12])[n:7]1)([H:8])[H:9]"
N        2.11042662      -0.04545009       0.03071813
C        0.72945809       0.09911191       0.09917840
C       -0.07378278       1.19097076       0.08975832
N       -1.39084461       0.69680010       0.09585230
C       -1.33406697      -0.61886843       0.37596531
O       -2.09666707      -1.59858681       0.04156918
N       -0.05498756      -1.02930176       0.23614018
H        2.39306772      -0.76345495      -0.61902263
H        2.59815276       0.81578620      -0.15323844
H        0.14703769       2.23937060       0.00114910
H       -2.24728265       1.19117551      -0.06186858
H       -0.78051125      -2.17755305      -0.13620128
12
Frame=13 idx=007470 GeodesicLength=0.44367859754323113 rxn_smarts="[N:1]([c:2]1[c:3]([H:10])[n:4]([H:11])[c:5](=[O:6])[n:7]1[H:12])([H:8])[H:9]>>[N:1]([c:2]1[c:3]([H:10])[n:4]([H:11])[c:5]([O:6][H:12])[n:7]1)([H:8])[H:9]"
N        2.10961369      -0.04796777       0.02990474
C        0.72864307       0.09985391       0.10191570
C       -0.07356978       1.19183714       0.09070053
N       -1.38941665       0.69744226       0.09656366
C       -1.33503258      -0.61654223       0.39037884
O       -2.09514641      -1.59405898       0.04183845
N       -0.05490180      -1.02855525       0.24567819
H        2.38888153      -0.75939285      -0.62864626
H        2.59855538       0.81400771      -0.14755058
H        0.14742427       2.23989935      -0.00149142
H       -2.24641418       1.18715595      -0.07220718
H       -0.77863655      -2.18367923      -0.14708467
12
Frame=14 idx=007470 GeodesicLength=0.4777674989726314 rxn_smarts="[N:1]([c:2]1[c:3]([H:10])[n:4]([H:11])[c:5](=[O:6])[n:7]1[H:12])([H:8])[H:9]>>[N:1]([c:2]1[c:3]([H:10])[n:4]([H:11])[c:5]([O:6][H:12])[n:7]1)([H:8])[H:9]"
N        2.10878960      -0.05038849       0.02934225
C        0.72778279       0.10060956       0.10416863
C       -0.07341315       1.19270201       0.09098426
N       -1.38804407       0.69808809       0.09705549
C       -1.33600745      -0.61412561       0.40430931
O       -2.09355090      -1.58959368       0.04239976
N       -0.05485140      -1.02777062       0.25465200
H        2.38506407      -0.75558912      -0.63728755
H        2.59894759       0.81219223      -0.14203384
H        0.14775726       2.24046626      -0.00419466
H       -2.24568586       1.18324044      -0.08128084
H       -0.77678848      -2.18983108      -0.15811481
12
Frame=15 idx=007470 GeodesicLength=0.5118487154620434 rxn_smarts="[N:1]([c:2]1[c:3]([H:10])[n:4]([H:11])[c:5](=[O:6])[n:7]1[H:12])([H:8])[H:9]>>[N:1]([c:2]1[c:3]([H:10])[n:4]([H:11])[c:5]([O:6][H:12])[n:7]1)([H:8])[H:9]"
N        2.10795235      -0.05275653       0.02896933
C        0.72688962       0.10137018       0.10614774
C       -0.07328923       1.19356777       0.09094960
N       -1.38670763       0.69874343       0.09748187
C       -1.33699131      -0.61163015       0.41787498
O       -2.09187757      -1.58518299       0.04323121
N       -0.05483518      -1.02696163       0.26319390
H        2.38148312      -0.75192142      -0.64527478
H        2.59933064       0.81033786      -0.13656455
H        0.14805458       2.24102934      -0.00717768
H       -2.24504080       1.17938452      -0.08947346
H       -0.77496860      -2.19598037      -0.16935815
12
Frame=16 idx=007470 GeodesicLength=0.5459264329018135 rxn_smarts="[N:1]([c:2]1[c:3]([H:10])[n:4]([H:11])[c:5](=[O:6])[n:7]1[H:12])([H:8])[H:9]>>[N:1]([c:2]1[c:3]([H:10])[n:4]([H:11])[c:5]([O:6][H:12])[n:7]1)([H:8])[H:9]"
N        2.10709885      -0.05510292       0.02872212
C        0.72597430       0.10213548       0.10801141
C       -0.07318505       1.19443569       0.09073927
N       -1.38539576       0.69941067       0.09789246
C       -1.33798667      -0.60905421       0.43116024
O       -2.09011608      -1.58082638       0.04433070
N       -0.05485082      -1.02612971       0.27143635
H        2.37802524      -0.74831884      -0.65284308
H        2.59970513       0.80843387      -0.13111016
H        0.14833290       2.24157997      -0.01039890
H       -2.24443714       1.17554166      -0.09711869
H       -0.77316490      -2.20210528      -0.18082173
