11
Frame=0 idx=004217 GeodesicLength=0.0 rxn_smarts="[O:1]([c:2]1[c:3]([H:8])[c:4]([H:9])[c:5]([H:10])[n:6]1[H:11])[H:7]>>[O:1]([C:2][N:6]([C:5](=[C:4]=[C:3]([H:8])[H:9])[H:10])[H:11])[H:7]"
O        2.30871235       1.50513106      -0.13739936
C        1.40319952       0.55118086       0.13299322
C       -0.74487533      -2.21080197      -0.44803344
C       -1.02237101      -0.95289735      -0.06374109
C       -1.00055652       0.35930695       0.09511106
N        0.20362225       1.08896299      -0.02367616
H        3.17369778       1.11447146      -0.00770951
H       -0.52938634      -2.86306388       0.40992696
H       -2.03283651      -1.57287446      -0.03653924
H       -1.87994702       0.91729282       0.37637292
H        0.12074081       2.06329155      -0.29730540
11
Frame=1 idx=004217 GeodesicLength=0.09834531508628142 rxn_smarts="[O:1]([c:2]1[c:3]([H:8])[c:4]([H:9])[c:5]([H:10])[n:6]1[H:11])[H:7]>>[O:1]([C:2][N:6]([C:5](=[C:4]=[C:3]([H:8])[H:9])[H:10])[H:11])[H:7]"
O        2.30332041       1.46292844      -0.14076052
C        1.37342408       0.51913022       0.07974873
C       -0.67323212      -2.15354899      -0.42670108
C       -1.03689925      -0.93477351       0.01112806
C       -1.02742858       0.38442061       0.09956419
N        0.18527195       1.09897608      -0.01719269
H        3.15778128       1.05405878       0.00209688
H       -0.47356024      -2.84970541       0.39882243
H       -2.02286321      -1.60584159      -0.08852342
H       -1.90526899       0.94962041       0.37036730
H        0.11945469       2.07473495      -0.28854988
11
Frame=2 idx=004217 GeodesicLength=0.1981141424574001 rxn_smarts="[O:1]([c:2]1[c:3]([H:8])[c:4]([H:9])[c:5]([H:10])[n:6]1[H:11])[H:7]>>[O:1]([C:2][N:6]([C:5](=[C:4]=[C:3]([H:8])[H:9])[H:10])[H:11])[H:7]"
O        2.29622461       1.41821713      -0.14631015
C        1.34139038       0.49034506       0.03374310
C       -0.60469527      -2.09684061      -0.40078022
C       -1.05443984      -0.91638455       0.06492303
C       -1.05296665       0.40600805       0.10413653
N        0.16700921       1.10760328      -0.00766975
H        3.13902370       0.98850191       0.00438977
H       -0.41631282      -2.82521336       0.39770705
H       -2.00299944      -1.63538749      -0.14472967
H       -1.92939742       0.97728685       0.36608321
H        0.11716353       2.08586373      -0.27149291
11
Frame=3 idx=004217 GeodesicLength=0.29855545876714584 rxn_smarts="[O:1]([c:2]1[c:3]([H:8])[c:4]([H:9])[c:5]([H:10])[n:6]1[H:11])[H:7]>>[O:1]([C:2][N:6]([C:5](=[C:4]=[C:3]([H:8])[H:9])[H:10])[H:11])[H:7]"
O        2.28815826       1.37257390      -0.15477369
C        1.30850077       0.46440672      -0.00788752
C       -0.54269799      -2.04180819      -0.37401229
C       -1.07296462      -0.89868711       0.10410167
C       -1.07673390       0.42520440       0.11002408
N        0.14955192       1.11495475       0.00193629
H        3.11819899       0.92245440       0.00689849
H       -0.35861491      -2.79504903       0.40053699
H       -1.97633796      -1.66190274      -0.19843283
H       -1.95180295       1.00195590       0.36400996
H        0.11474239       2.09589699      -0.25240114
11
Frame=4 idx=004217 GeodesicLength=0.40010343056890185 rxn_smarts="[O:1]([c:2]1[c:3]([H:8])[c:4]([H:9])[c:5]([H:10])[n:6]1[H:11])[H:7]>>[O:1]([C:2][N:6]([C:5](=[C:4]=[C:3]([H:8])[H:9])[H:10])[H:11])[H:7]"
O        2.27896274       1.32656481      -0.16633042
C        1.27540778       0.44143448      -0.03666795
C       -0.48476833      -1.98935954      -0.34455998
C       -1.09233958      -0.88158418       0.12787355
C       -1.10027209       0.44318900       0.10996093
N        0.13257452       1.12172765       0.01428679
H        3.09662708       0.85540849      -0.00134966
H       -0.30320732      -2.75954379       0.41205707
H       -1.94335145      -1.68834104      -0.25442821
H       -1.97321615       1.02371662       0.36252130
H        0.11358280       2.10678750      -0.22336342
11
Frame=5 idx=004217 GeodesicLength=0.5022722106926739 rxn_smarts="[O:1]([c:2]1[c:3]([H:8])[c:4]([H:9])[c:5]([H:10])[n:6]1[H:11])[H:7]>>[O:1]([C:2][N:6]([C:5](=[C:4]=[C:3]([H:8])[H:9])[H:10])[H:11])[H:7]"
O        2.26962936       1.28180180      -0.17311114
C        1.24285956       0.42078492      -0.06150002
C       -0.43564559      -1.93728563      -0.32057596
C       -1.11096144      -0.86551529       0.14660533
C       -1.12201557       0.45986641       0.11111944
N        0.11671232       1.12759103       0.02529298
H        3.07457113       0.78929472      -0.00804556
H       -0.24489616      -2.72194939       0.41718745
H       -1.90961450      -1.71453943      -0.29510705
H       -1.99357644       1.04472316       0.35812824
H        0.11293732       2.11522769      -0.19999370
11
Frame=6 idx=004217 GeodesicLength=0.6048313595596851 rxn_smarts="[O:1]([c:2]1[c:3]([H:8])[c:4]([H:9])[c:5]([H:10])[n:6]1[H:11])[H:7]>>[O:1]([C:2][N:6]([C:5](=[C:4]=[C:3]([H:8])[H:9])[H:10])[H:11])[H:7]"
O        2.25923252       1.23786982      -0.18633245
C        1.21208982       0.40157977      -0.07158940
C       -0.38975685      -1.88765546      -0.29418448
C       -1.12978794      -0.85072965       0.15635856
C       -1.14267320       0.47532338       0.11200909
N        0.10152695       1.13270521       0.03730730
H        3.05291835       0.72789594      -0.01984542
H       -0.19382308      -2.68378104       0.42809897
H       -1.87088449      -1.73848920      -0.34387422
H       -2.01157958       1.06340182       0.36060344
H        0.11273752       2.12187939      -0.17855138
11
Frame=7 idx=004217 GeodesicLength=0.7075609393402508 rxn_smarts="[O:1]([c:2]1[c:3]([H:8])[c:4]([H:9])[c:5]([H:10])[n:6]1[H:11])[H:7]>>[O:1]([C:2][N:6]([C:5](=[C:4]=[C:3]([H:8])[H:9])[H:10])[H:11])[H:7]"
O        2.24887747       1.19570644      -0.19671956
C        1.18266326       0.38368270      -0.07952978
C       -0.35023590      -1.83950150      -0.27128376
C       -1.14753494      -0.83707032       0.16272455
C       -1.16181920       0.48974472       0.11368152
N        0.08721140       1.13719412       0.04649204
H        3.03138491       0.66917990      -0.02883755
H       -0.14341469      -2.64542986       0.43535870
H       -1.83200734      -1.76161880      -0.38444519
H       -2.02775426       1.08101525       0.36502237
H        0.11262929       2.12709735      -0.16246336
11
Frame=8 idx=004217 GeodesicLength=0.8104809629827397 rxn_smarts="[O:1]([c:2]1[c:3]([H:8])[c:4]([H:9])[c:5]([H:10])[n:6]1[H:11])[H:7]>>[O:1]([C:2][N:6]([C:5](=[C:4]=[C:3]([H:8])[H:9])[H:10])[H:11])[H:7]"
O        2.23791096       1.15489452      -0.20989981
C        1.15491409       0.36667898      -0.08079616
C       -0.31432763      -1.79367384      -0.24721731
C       -1.16497005      -0.82443959       0.16355512
C       -1.17995545       0.50326031       0.11430320
N        0.07360728       1.14112830       0.05630569
H        3.01042380       0.61391110      -0.04158036
H       -0.09786418      -2.60722620       0.44607831
H       -1.79014340      -1.78343154      -0.42689025
H       -2.04267851       1.09713487       0.37060647
H        0.11308308       2.13176308      -0.14446490
11
Frame=9 idx=004217 GeodesicLength=0.9134286266250976 rxn_smarts="[O:1]([c:2]1[c:3]([H:8])[c:4]([H:9])[c:5]([H:10])[n:6]1[H:11])[H:7]>>[O:1]([C:2][N:6]([C:5](=[C:4]=[C:3]([H:8])[H:9])[H:10])[H:11])[H:7]"
O        2.22733075       1.11586269      -0.21939880
C        1.12827488       0.35084274      -0.08358381
C       -0.28358977      -1.74933254      -0.22661109
C       -1.18097015      -0.81272802       0.16325126
C       -1.19671361       0.51590688       0.11593427
N        0.06071939       1.14473710       0.06285612
H        2.98951865       0.56067320      -0.05030182
H       -0.05268724      -2.56936814       0.45262456
H       -1.74923672      -1.80459483      -0.46144668
H       -2.05605366       1.11236020       0.37764473
H        0.11340748       2.13564070      -0.13096874
11
Frame=10 idx=004217 GeodesicLength=1.0165058759994687 rxn_smarts="[O:1]([c:2]1[c:3]([H:8])[c:4]([H:9])[c:5]([H:10])[n:6]1[H:11])[H:7]>>[O:1]([C:2][N:6]([C:5](=[C:4]=[C:3]([H:8])[H:9])[H:10])[H:11])[H:7]"
O        2.21622747       1.07794004      -0.23180384
C        1.10304305       0.33569528      -0.08236123
C       -0.25569903      -1.70718245      -0.20459823
C       -1.19667347      -0.80176194       0.15849727
C       -1.21262066       0.52788365       0.11671449
N        0.04843708       1.14792738       0.06978638
H        2.96904391       0.51045709      -0.06148920
H       -0.01205299      -2.53194160       0.46271271
H       -1.70560350      -1.82457321      -0.49807542
H       -2.06833045       1.12633020       0.38586357
H        0.11422858       2.13922556      -0.11524649
11
Frame=11 idx=004217 GeodesicLength=1.1196057944180635 rxn_smarts="[O:1]([c:2]1[c:3]([H:8])[c:4]([H:9])[c:5]([H:10])[n:6]1[H:11])[H:7]>>[O:1]([C:2][N:6]([C:5](=[C:4]=[C:3]([H:8])[H:9])[H:10])[H:11])[H:7]"
O        2.20523580       1.04143978      -0.24303693
C        1.07879498       0.32143544      -0.08188443
C       -0.23125426      -1.66674972      -0.18371044
C       -1.21150222      -0.79141072       0.15163065
C       -1.22758502       0.53925391       0.11746746
N        0.03673069       1.15086209       0.07521842
H        2.94872377       0.46210107      -0.07161785
H        0.02668140      -2.49487827       0.47231992
H       -1.66152189      -1.84396727      -0.53145378
H       -2.07950547       1.13938098       0.39501335
H        0.11520222       2.14253271      -0.09994637
11
Frame=12 idx=004217 GeodesicLength=1.2227669912505073 rxn_smarts="[O:1]([c:2]1[c:3]([H:8])[c:4]([H:9])[c:5]([H:10])[n:6]1[H:11])[H:7]>>[O:1]([C:2][N:6]([C:5](=[C:4]=[C:3]([H:8])[H:9])[H:10])[H:11])[H:7]"
O        2.19373545       1.00598502      -0.25655191
C        1.05563638       0.30780303      -0.07949301
C       -0.20931455      -1.62821772      -0.16142354
C       -1.22597732      -0.78150388       0.14084268
C       -1.24183852       0.55015171       0.11689826
N        0.02563016       1.15341906       0.08172074
H        2.92868318       0.41584877      -0.08507766
H        0.06161007      -2.45798029       0.48557836
H       -1.61485319      -1.86273874      -0.56554156
H       -2.09020748       1.15144748       0.40297090
H        0.11689582       2.14578556      -0.07992327
11
Frame=13 idx=004217 GeodesicLength=1.325900896541506 rxn_smarts="[O:1]([c:2]1[c:3]([H:8])[c:4]([H:9])[c:5]([H:10])[n:6]1[H:11])[H:7]>>[O:1]([C:2][N:6]([C:5](=[C:4]=[C:3]([H:8])[H:9])[H:10])[H:11])[H:7]"
O        2.18261744       0.97211640      -0.26776909
C        1.03302735       0.29501191      -0.08108809
C       -0.19035216      -1.59120378      -0.14022252
C       -1.23957120      -0.77202201       0.12858866
C       -1.25528108       0.56054486       0.11623471
N        0.01505300       1.15571397       0.08673851
H        2.90854177       0.37059526      -0.09737639
H        0.09526722      -2.42111866       0.49853449
H       -1.56800119      -1.88126043      -0.59591681
H       -2.10008902       1.16277185       0.41104897
H        0.11878789       2.14885062      -0.05877245
11
Frame=14 idx=004217 GeodesicLength=1.4290683190008042 rxn_smarts="[O:1]([c:2]1[c:3]([H:8])[c:4]([H:9])[c:5]([H:10])[n:6]1[H:11])[H:7]>>[O:1]([C:2][N:6]([C:5](=[C:4]=[C:3]([H:8])[H:9])[H:10])[H:11])[H:7]"
O        2.17101479       0.93917843      -0.28117763
C        1.01122752       0.28270007      -0.08212683
C       -0.17362706      -1.55578615      -0.11742975
C       -1.25284811      -0.76275784       0.11226272
C       -1.26811543       0.57060131       0.11456358
N        0.00502379       1.15762758       0.09269285
H        2.88848816       0.32710294      -0.11253148
H        0.12511435      -2.38417808       0.51558064
H       -1.51813253      -1.89918315      -0.62727368
H       -2.10952056       1.17314773       0.41864398
H        0.12137508       2.15154715      -0.03320441
11
Frame=15 idx=004217 GeodesicLength=1.5322139954809606 rxn_smarts="[O:1]([c:2]1[c:3]([H:8])[c:4]([H:9])[c:5]([H:10])[n:6]1[H:11])[H:7]>>[O:1]([C:2][N:6]([C:5](=[C:4]=[C:3]([H:8])[H:9])[H:10])[H:11])[H:7]"
O        2.15955001       0.90758951      -0.29381373
C        0.98983545       0.27099768      -0.08637722
C       -0.15936542      -1.52165794      -0.09450102
C       -1.26550971      -0.75365473       0.09308904
C       -1.28033359       0.58030936       0.11240450
N       -0.00450428       1.15919947       0.09836818
H        2.86828028       0.28451596      -0.12844031
H        0.15264259      -2.34680072       0.53464217
H       -1.46660410      -1.91688236      -0.65694208
H       -2.11838767       1.18267695       0.42626454
H        0.12439646       2.15370681      -0.00469408
11
Frame=16 idx=004217 GeodesicLength=1.6353576731994623 rxn_smarts="[O:1]([c:2]1[c:3]([H:8])[c:4]([H:9])[c:5]([H:10])[n:6]1[H:11])[H:7]>>[O:1]([C:2][N:6]([C:5](=[C:4]=[C:3]([H:8])[H:9])[H:10])[H:11])[H:7]"
O        2.14777984       0.87691943      -0.30758094
C        0.96902467       0.25970241      -0.09097670
C       -0.14739502      -1.48863238      -0.07066601
C       -1.27759866      -0.74452645       0.06994597
C       -1.29199196       0.58974883       0.10968733
N       -0.01353217       1.16042428       0.10470476
H        2.84802678       0.24321408      -0.14646390
H        0.17675112      -2.30896601       0.55692108
H       -1.41218997      -1.93407305      -0.68643408
H       -2.12682181       1.19117147       0.43409769
H        0.12794718       2.15501740       0.02676482
