14
Frame=0 idx=002982 GeodesicLength=0.0 rxn_smarts="[C:1]([C@@:2]1([H:10])[O:3][C@:4]1([C:5]([O:6][H:14])([H:12])[H:13])[H:11])([H:7])([H:8])[H:9]>>[C:1]([C:2](=[O:3])[H:10])([H:7])([H:8])[H:9].[C:4](=[C:5]([O:6][H:14])[H:13])([H:11])[H:12]"
C        1.74324693       0.41716587      -0.08491765
C        0.82491445      -0.59568402       0.59632814
O        0.40155375      -0.30634511       1.81389919
C       -0.62237303      -0.63169886       0.02703692
C       -1.27363998       0.49307331      -0.48252565
O       -2.54164945       0.80989509      -0.28108602
H        1.35176185       1.43056756       0.02683366
H        1.90626583       0.19154837      -1.14435326
H        2.70939386       0.38839185       0.42014982
H        1.26404326      -1.60611802       0.45452755
H       -1.23716263      -1.39662156       0.49072067
H       -0.88415995      -0.69470358      -1.20513471
H       -0.73330624       1.23852775      -1.05471620
H       -2.90888860       0.26200138       0.42323757
14
Frame=1 idx=002982 GeodesicLength=0.10448162145878356 rxn_smarts="[C:1]([C@@:2]1([H:10])[O:3][C@:4]1([C:5]([O:6][H:14])([H:12])[H:13])[H:11])([H:7])([H:8])[H:9]>>[C:1]([C:2](=[O:3])[H:10])([H:7])([H:8])[H:9].[C:4](=[C:5]([O:6][H:14])[H:13])([H:11])[H:12]"
C        1.74847436       0.42209984      -0.07272827
C        0.83156273      -0.59899323       0.59421205
O        0.35804572      -0.30360263       1.79078293
C       -0.63156313      -0.64964679      -0.00883783
C       -1.28592713       0.47452825      -0.51818000
O       -2.53607098       0.81887319      -0.24437149
H        1.33476747       1.42871046       0.01672982
H        1.94100429       0.18585336      -1.12473066
H        2.70338858       0.41563050       0.45420311
H        1.28775600      -1.60465240       0.48066948
H       -1.23882236      -1.42229943       0.45206521
H       -0.90849252      -0.71033974      -1.24790983
H       -0.75132050       1.22405071      -1.09058791
H       -2.85280253       0.31978790       0.51868339
14
Frame=2 idx=002982 GeodesicLength=0.20918735273445002 rxn_smarts="[C:1]([C@@:2]1([H:10])[O:3][C@:4]1([C:5]([O:6][H:14])([H:12])[H:13])[H:11])([H:7])([H:8])[H:9]>>[C:1]([C:2](=[O:3])[H:10])([H:7])([H:8])[H:9].[C:4](=[C:5]([O:6][H:14])[H:13])([H:11])[H:12]"
C        1.75272807       0.42714659      -0.06059162
C        0.83836982      -0.60233813       0.59275302
O        0.31710218      -0.30293169       1.76723626
C       -0.64137111      -0.66684327      -0.04332266
C       -1.29968508       0.45682106      -0.55103496
O       -2.52791637       0.82781896      -0.20732902
H        1.31752441       1.42615616       0.00647383
H        1.97387301       0.18089156      -1.10442860
H        2.69601851       0.44298982       0.48685514
H        1.31038011      -1.60256274       0.50685494
H       -1.24090123      -1.44649832       0.41586104
H       -0.93591458      -0.72507597      -1.28872292
H       -0.77070495       1.20944590      -1.12474950
H       -2.78950277       0.37498008       0.60414505
14
Frame=3 idx=002982 GeodesicLength=0.31414249837780367 rxn_smarts="[C:1]([C@@:2]1([H:10])[O:3][C@:4]1([C:5]([O:6][H:14])([H:12])[H:13])[H:11])([H:7])([H:8])[H:9]>>[C:1]([C:2](=[O:3])[H:10])([H:7])([H:8])[H:9].[C:4](=[C:5]([O:6][H:14])[H:13])([H:11])[H:12]"
C        1.75635487       0.43235486      -0.04856464
C        0.84568622      -0.60587490       0.59198863
O        0.27903157      -0.30435979       1.74369468
C       -0.65176968      -0.68332164      -0.07608666
C       -1.31454358       0.44020637      -0.58088547
O       -2.51718664       0.83749161      -0.17043125
H        1.30041449       1.42312877      -0.00356770
H        2.00498012       0.17699070      -1.08383299
H        2.68783688       0.47025968       0.51785797
H        1.33240897      -1.60017100       0.53281030
H       -1.24341329      -1.46938058       0.38248175
H       -0.96650603      -0.73900683      -1.32723731
H       -0.79106827       1.19484529      -1.15738745
H       -2.72222564       0.42683748       0.67916012
14
Frame=4 idx=002982 GeodesicLength=0.41940005874256236 rxn_smarts="[C:1]([C@@:2]1([H:10])[O:3][C@:4]1([C:5]([O:6][H:14])([H:12])[H:13])[H:11])([H:7])([H:8])[H:9]>>[C:1]([C:2](=[O:3])[H:10])([H:7])([H:8])[H:9].[C:4](=[C:5]([O:6][H:14])[H:13])([H:11])[H:12]"
C        1.75958941       0.43756826      -0.03662674
C        0.85352753      -0.60949149       0.59190567
O        0.24358485      -0.30756376       1.72010694
C       -0.66272914      -0.69892499      -0.10752125
C       -1.33046816       0.42477647      -0.60795143
O       -2.50458850       0.84703529      -0.13417004
H        1.28363198       1.41944301      -0.01374854
H        2.03488291       0.17364084      -1.06278469
H        2.67896062       0.49744703       0.54757178
H        1.35395510      -1.59737692       0.55890557
H       -1.24620141      -1.49100656       0.35118187
H       -1.00016217      -0.75176082      -1.36369688
H       -0.81256355       1.18065308      -1.18830972
H       -2.65141945       0.47556057       0.74513743
14
Frame=5 idx=002982 GeodesicLength=0.5248049487689134 rxn_smarts="[C:1]([C@@:2]1([H:10])[O:3][C@:4]1([C:5]([O:6][H:14])([H:12])[H:13])[H:11])([H:7])([H:8])[H:9]>>[C:1]([C:2](=[O:3])[H:10])([H:7])([H:8])[H:9].[C:4](=[C:5]([O:6][H:14])[H:13])([H:11])[H:12]"
C        1.76252582       0.44287693      -0.02466335
C        0.86210335      -0.61329810       0.59244171
O        0.21088471      -0.31267303       1.69655514
C       -0.67424831      -0.71383764      -0.13757275
C       -1.34714159       0.41038142      -0.63246299
O       -2.49015438       0.85663906      -0.09909045
H        1.26725586       1.41519560      -0.02349448
H        2.06343556       0.17132792      -1.04140627
H        2.66964302       0.52445024       0.57598939
H        1.37539260      -1.59426044       0.58480934
H       -1.24928751      -1.51158276       0.32196635
H       -1.03686574      -0.76367681      -1.39796895
H       -0.83490019       1.16666461      -1.21780470
H       -2.57864320       0.52179301       0.80270200
14
Frame=6 idx=002982 GeodesicLength=0.6304135647736726 rxn_smarts="[C:1]([C@@:2]1([H:10])[O:3][C@:4]1([C:5]([O:6][H:14])([H:12])[H:13])[H:11])([H:7])([H:8])[H:9]>>[C:1]([C:2](=[O:3])[H:10])([H:7])([H:8])[H:9].[C:4](=[C:5]([O:6][H:14])[H:13])([H:11])[H:12]"
C        1.76543916       0.44811931      -0.01277315
C        0.87143147      -0.61718885       0.59367234
O        0.18063651      -0.31924809       1.67305716
C       -0.68628603      -0.72789350      -0.16653384
C       -1.36453840       0.39721329      -0.65457324
O       -2.47433913       0.86613470      -0.06500756
H        1.25155031       1.41029453      -0.03333148
H        2.09120772       0.16945214      -1.01969809
H        2.66004778       0.55127104       0.60327615
H        1.39680092      -1.59080255       0.61106634
H       -1.25252086      -1.53115540       0.29431999
H       -1.07654301      -0.77440715      -1.43021717
H       -0.85816132       1.15336907      -1.24572042
H       -2.50472510       0.56484148       0.85246296
14
Frame=7 idx=002982 GeodesicLength=0.7361449993270455 rxn_smarts="[C:1]([C@@:2]1([H:10])[O:3][C@:4]1([C:5]([O:6][H:14])([H:12])[H:13])[H:11])([H:7])([H:8])[H:9]>>[C:1]([C:2](=[O:3])[H:10])([H:7])([H:8])[H:9].[C:4](=[C:5]([O:6][H:14])[H:13])([H:11])[H:12]"
C        1.76845420       0.45327754      -0.00093392
C        0.88159456      -0.62115019       0.59560259
O        0.15272494      -0.32714563       1.64957230
C       -0.69881879      -0.74112951      -0.19455738
C       -1.38250506       0.38524787      -0.67452022
O       -2.45716695       0.87569316      -0.03197018
H        1.23663793       1.40473509      -0.04323424
H        2.11834895       0.16798615      -0.99768047
H        2.65031334       0.57788386       0.62950812
H        1.41834109      -1.58697764       0.63779540
H       -1.25584206      -1.54983391       0.26798866
H       -1.11918959      -0.78399586      -1.46045722
H       -0.88222708       1.14078488      -1.27222394
H       -2.43066545       0.60462420       0.89511049
14
Frame=8 idx=002982 GeodesicLength=0.8420715087351591 rxn_smarts="[C:1]([C@@:2]1([H:10])[O:3][C@:4]1([C:5]([O:6][H:14])([H:12])[H:13])[H:11])([H:7])([H:8])[H:9]>>[C:1]([C:2](=[O:3])[H:10])([H:7])([H:8])[H:9].[C:4](=[C:5]([O:6][H:14])[H:13])([H:11])[H:12]"
C        1.77160615       0.45835931       0.01090693
C        0.89259561      -0.62522946       0.59820930
O        0.12691858      -0.33639362       1.62602956
C       -0.71184822      -0.75364435      -0.22192097
C       -1.40103230       0.37436042      -0.69260534
O       -2.43893287       0.88500858      -0.00002895
H        1.22244860       1.39848707      -0.05332663
H        2.14516057       0.16684988      -0.97524878
H        2.64034855       0.60446039       0.65494316
H        1.44015737      -1.58279022       0.66517323
H       -1.25920158      -1.56782999       0.24256099
H       -1.16472721      -0.79249333      -1.48884886
H       -0.90718382       1.12898170      -1.29743023
H       -2.35630943       0.64187362       0.93158661
14
Frame=9 idx=002982 GeodesicLength=0.9481508163680357 rxn_smarts="[C:1]([C@@:2]1([H:10])[O:3][C@:4]1([C:5]([O:6][H:14])([H:12])[H:13])[H:11])([H:7])([H:8])[H:9]>>[C:1]([C:2](=[O:3])[H:10])([H:7])([H:8])[H:9].[C:4](=[C:5]([O:6][H:14])[H:13])([H:11])[H:12]"
C        1.77478710       0.46343059       0.02293031
C        0.90446657      -0.62950083       0.60140216
O        0.10311961      -0.34724413       1.60223389
C       -0.72541883      -0.76563436      -0.24879360
C       -1.42009544       0.36424294      -0.70912290
O       -2.41976911       0.89372452       0.03066004
H        1.20877176       1.39149807      -0.06325295
H        2.17154803       0.16639175      -0.95224695
H        2.63004162       0.63104267       0.67978556
H        1.46243133      -1.57816264       0.69303688
H       -1.26262253      -1.58533600       0.21773878
H       -1.21312056      -0.80013099      -1.51538025
H       -0.93307803       1.11769488      -1.32148843
H       -2.28106152       0.67798354       0.96249746
14
Frame=10 idx=002982 GeodesicLength=1.054375646445981 rxn_smarts="[C:1]([C@@:2]1([H:10])[O:3][C@:4]1([C:5]([O:6][H:14])([H:12])[H:13])[H:11])([H:7])([H:8])[H:9]>>[C:1]([C:2](=[O:3])[H:10])([H:7])([H:8])[H:9].[C:4](=[C:5]([O:6][H:14])[H:13])([H:11])[H:12]"
C        1.77821701       0.46836941       0.03497005
C        0.91721976      -0.63385498       0.60533471
O        0.08111567      -0.35926433       1.57819721
C       -0.73947953      -0.77694761      -0.27537815
C       -1.43965331       0.35512627      -0.72413387
O       -2.39963987       0.90218126       0.06046591
H        1.19590889       1.38371697      -0.07356119
H        2.19790608       0.16608153      -0.92875041
H        2.61950148       0.65768010       0.70399024
H        1.48513282      -1.57303445       0.72201253
H       -1.26597412      -1.60234328       0.19323826
H       -1.26437796      -0.80661480      -1.54008842
H       -0.95990213       1.10729342      -1.34438440
H       -2.20597480       0.71161049       0.98808754
14
Frame=11 idx=002982 GeodesicLength=1.160729728247432 rxn_smarts="[C:1]([C@@:2]1([H:10])[O:3][C@:4]1([C:5]([O:6][H:14])([H:12])[H:13])[H:11])([H:7])([H:8])[H:9]>>[C:1]([C:2](=[O:3])[H:10])([H:7])([H:8])[H:9].[C:4](=[C:5]([O:6][H:14])[H:13])([H:11])[H:12]"
C        1.78189008       0.47317882       0.04707471
C        0.93086967      -0.63828416       0.61002919
O        0.06077850      -0.37246976       1.55376750
C       -0.75403692      -0.78763893      -0.30186474
C       -1.45968751       0.34692309      -0.73781936
O       -2.37846506       0.91037722       0.08943553
H        1.18384246       1.37508575      -0.08424255
H        2.22429821       0.16594291      -0.90466773
H        2.60867402       0.68442258       0.72763450
H        1.50831105      -1.56729689       0.75225950
H       -1.26921817      -1.61894282       0.16877640
H       -1.31854369      -0.81197089      -1.56293036
H       -0.98768775       1.09771069      -1.36625223
H       -2.13102489       0.74296239       1.00879963
14
Frame=12 idx=002982 GeodesicLength=1.267249275027746 rxn_smarts="[C:1]([C@@:2]1([H:10])[O:3][C@:4]1([C:5]([O:6][H:14])([H:12])[H:13])[H:11])([H:7])([H:8])[H:9]>>[C:1]([C:2](=[O:3])[H:10])([H:7])([H:8])[H:9].[C:4](=[C:5]([O:6][H:14])[H:13])([H:11])[H:12]"
C        1.78579214       0.47785241       0.05927076
C        0.94541162      -0.64280348       0.61551784
O        0.04197118      -0.38691722       1.52880863
C       -0.76910565      -0.79775494      -0.32846507
C       -1.48023399       0.33956081      -0.75032116
O       -2.35623144       0.91820243       0.11767736
H        1.17253364       1.36552053      -0.09541852
H        2.25086988       0.16593250      -0.87988520
H        2.59742026       0.71139536       0.75082443
H        1.53199900      -1.56085329       0.78402066
H       -1.27230880      -1.63525321       0.14403302
H       -1.37563115      -0.81617401      -1.58388882
H       -1.01654779       1.08896462      -1.38715568
H       -2.05593890       0.77232749       1.02498174
14
Frame=13 idx=002982 GeodesicLength=1.3739937859545026 rxn_smarts="[C:1]([C@@:2]1([H:10])[O:3][C@:4]1([C:5]([O:6][H:14])([H:12])[H:13])[H:11])([H:7])([H:8])[H:9]>>[C:1]([C:2](=[O:3])[H:10])([H:7])([H:8])[H:9].[C:4](=[C:5]([O:6][H:14])[H:13])([H:11])[H:12]"
C        1.78981669       0.48242365       0.07166264
C        0.96083392      -0.64746736       0.62181521
O        0.02457947      -0.40282642       1.50314920
C       -0.78472110      -0.80740192      -0.35538380
C       -1.50136734       0.33287278      -0.76177730
O       -2.33286982       0.92542707       0.14530766
H        1.16182829       1.35494876      -0.10700059
H        2.27761945       0.16620252      -0.85425056
H        2.58552859       0.73870007       0.77370274
H        1.55623058      -1.55361408       0.81740300
H       -1.27521624      -1.65144095       0.11867716
H       -1.43568017      -0.81928926      -1.60289731
H       -1.04665218       1.08096136      -1.40716400
H       -1.97993014       0.80050378       1.03675595
14
Frame=14 idx=002982 GeodesicLength=1.4809533780282447 rxn_smarts="[C:1]([C@@:2]1([H:10])[O:3][C@:4]1([C:5]([O:6][H:14])([H:12])[H:13])[H:11])([H:7])([H:8])[H:9]>>[C:1]([C:2](=[O:3])[H:10])([H:7])([H:8])[H:9].[C:4](=[C:5]([O:6][H:14])[H:13])([H:11])[H:12]"
C        1.79406305       0.48681549       0.08415049
C        0.97714227      -0.65217773       0.62906104
O        0.00850676      -0.41999384       1.47664578
C       -0.80086468      -0.81648045      -0.38281875
C       -1.52308473       0.32697119      -0.77220806
O       -2.30817496       0.93222575       0.17247758
H        1.15192448       1.34323915      -0.11936133
H        2.30475189       0.16645720      -0.82771624
H        2.57298224       0.76641317       0.79617014
H        1.58091344      -1.54536147       0.85293445
H       -1.27783863      -1.66748081       0.09241583
H       -1.49874279      -0.82110373      -1.61982697
H       -1.07806189       1.07387225      -1.42626160
H       -1.90351647       0.82660384       1.04433763
14
Frame=15 idx=002982 GeodesicLength=1.5881699252785442 rxn_smarts="[C:1]([C@@:2]1([H:10])[O:3][C@:4]1([C:5]([O:6][H:14])([H:12])[H:13])[H:11])([H:7])([H:8])[H:9]>>[C:1]([C:2](=[O:3])[H:10])([H:7])([H:8])[H:9].[C:4](=[C:5]([O:6][H:14])[H:13])([H:11])[H:12]"
C        1.79851462       0.49100836       0.09674096
C        0.99433039      -0.65690466       0.63735663
O       -0.00631869      -0.43846984       1.44910725
C       -0.81754671      -0.82498173      -0.41098163
C       -1.54543154       0.32182751      -0.78166225
O       -2.28195890       0.93854313       0.19927634
H        1.14285445       1.33026922      -0.13262111
H        2.33233695       0.16664843      -0.80016109
H        2.55965040       0.79462063       0.81821132
H        1.60596273      -1.53589788       0.89094634
H       -1.28009495      -1.68343205       0.06491019
H       -1.56488189      -0.82154450      -1.63450957
H       -1.11092337       1.06772942      -1.44445571
H       -1.82649348       0.85058397       1.04784233
14
Frame=16 idx=002982 GeodesicLength=1.6956948431962 rxn_smarts="[C:1]([C@@:2]1([H:10])[O:3][C@:4]1([C:5]([O:6][H:14])([H:12])[H:13])[H:11])([H:7])([H:8])[H:9]>>[C:1]([C:2](=[O:3])[H:10])([H:7])([H:8])[H:9].[C:4](=[C:5]([O:6][H:14])[H:13])([H:11])[H:12]"
C        1.80318106       0.49496143       0.10940613
C        1.01238949      -0.66159848       0.64682693
O       -0.01994031      -0.45827869       1.42032144
C       -0.83477653      -0.83285816      -0.44009556
C       -1.56846029       0.31744891      -0.79014725
O       -2.25402766       0.94432056       0.22578884
H        1.13470747       1.31587173      -0.14700446
H        2.36049257       0.16665823      -0.77145110
H        2.54539439       0.82342763       0.83976330
H        1.63124378      -1.52496886       0.93186482
H       -1.28188611      -1.69932483       0.03579236
H       -1.63413958      -0.82048810      -1.64673973
H       -1.14540809       1.06262436      -1.46169632
H       -1.74877017       0.87220426       1.04737061
