10
Frame=0 idx=003689 GeodesicLength=0.0 rxn_smarts="[c:1]1([H:7])[c:2]([H:8])[n:3][c:4]([H:9])[n:5][c:6]1[H:10]>>[C@@:1]12([H:7])[C@@:2]3([H:8])[N:3]1[C:4]([H:9])=[N:5][C@@:6]23[H:10]"
C       -0.91938819       0.19488048      -0.77646056
C       -0.44996235       0.88275583       0.31172458
N        0.88146404       0.95552087      -0.23442853
C        1.52506873      -0.19023173       0.01865663
N        0.80349384      -1.21459647       0.40088301
C       -0.49242769      -0.80293195       0.24341892
H       -1.78525375       0.27549705      -1.42406429
H       -0.86336819       1.60551009       1.00593163
H        2.58891170      -0.26918524      -0.16657257
H       -1.28853813      -1.43721892       0.62091117
10
Frame=1 idx=003689 GeodesicLength=0.03778023086814498 rxn_smarts="[c:1]1([H:7])[c:2]([H:8])[n:3][c:4]([H:9])[n:5][c:6]1[H:10]>>[C@@:1]12([H:7])[C@@:2]3([H:8])[N:3]1[C:4]([H:9])=[N:5][C@@:6]23[H:10]"
C       -0.91551088       0.19330215      -0.76961982
C       -0.44760384       0.88577111       0.31804976
N        0.87598219       0.95442425      -0.24103919
C        1.52263578      -0.19288449       0.01352237
N        0.80372833      -1.22000139       0.39035639
C       -0.49551226      -0.80913250       0.24419984
H       -1.78390057       0.27944666      -1.41263741
H       -0.86185603       1.62407730       0.99463901
H        2.59003377      -0.26397998      -0.15344795
H       -1.28799650      -1.45102312       0.61597699
10
Frame=2 idx=003689 GeodesicLength=0.0755016349665166 rxn_smarts="[c:1]1([H:7])[c:2]([H:8])[n:3][c:4]([H:9])[n:5][c:6]1[H:10]>>[C@@:1]12([H:7])[C@@:2]3([H:8])[N:3]1[C:4]([H:9])=[N:5][C@@:6]23[H:10]"
C       -0.91187657       0.19176181      -0.76252031
C       -0.44504608       0.88881038       0.32444285
N        0.87045727       0.95327007      -0.24777484
C        1.52018316      -0.19562142       0.00800180
N        0.80393738      -1.22540888       0.37947695
C       -0.49856374      -0.81536896       0.24494152
H       -1.78282723       0.28342616      -1.40081104
H       -0.85994425       1.64261503       0.98280398
H        2.59097884      -0.25854893      -0.13940123
H       -1.28729877      -1.46493525       0.61084032
10
Frame=3 idx=003689 GeodesicLength=0.11320817326212895 rxn_smarts="[c:1]1([H:7])[c:2]([H:8])[n:3][c:4]([H:9])[n:5][c:6]1[H:10]>>[C@@:1]12([H:7])[C@@:2]3([H:8])[N:3]1[C:4]([H:9])=[N:5][C@@:6]23[H:10]"
C       -0.90821936       0.19026445      -0.75521010
C       -0.44241609       0.89193479       0.33101094
N        0.86493525       0.95221256      -0.25414039
C        1.51777249      -0.19827650       0.00272561
N        0.80413835      -1.23068876       0.36878810
C       -0.50155647      -0.82162342       0.24573355
H       -1.78155502       0.28734916      -1.38893942
H       -0.85798537       1.66105337       0.97047119
H        2.59138089      -0.25327800      -0.12586738
H       -1.28649468      -1.47894765       0.60542790
10
Frame=4 idx=003689 GeodesicLength=0.1509374579715208 rxn_smarts="[c:1]1([H:7])[c:2]([H:8])[n:3][c:4]([H:9])[n:5][c:6]1[H:10]>>[C@@:1]12([H:7])[C@@:2]3([H:8])[N:3]1[C:4]([H:9])=[N:5][C@@:6]23[H:10]"
C       -0.90446186       0.18881110      -0.74771682
C       -0.43978122       0.89519057       0.33775669
N        0.85941812       0.95131411      -0.26000764
C        1.51541307      -0.20076894      -0.00202350
N        0.80433050      -1.23579607       0.35846461
C       -0.50449599      -0.82787821       0.24662276
H       -1.77996074       0.29119540      -1.37712494
H       -0.85615567       1.67937157       0.95769019
H        2.59130105      -0.24837092      -0.11335798
H       -1.28560727      -1.49306860       0.59969662
10
Frame=5 idx=003689 GeodesicLength=0.18872192306637733 rxn_smarts="[c:1]1([H:7])[c:2]([H:8])[n:3][c:4]([H:9])[n:5][c:6]1[H:10]>>[C@@:1]12([H:7])[C@@:2]3([H:8])[N:3]1[C:4]([H:9])=[N:5][C@@:6]23[H:10]"
C       -0.90076366       0.18741165      -0.74003106
C       -0.43707124       0.89858083       0.34461980
N        0.85388152       0.95049424      -0.26569581
C        1.51308168      -0.20322447      -0.00667651
N        0.80452058      -1.24083815       0.34820541
C       -0.50739345      -0.83415275       0.24756533
H       -1.77833570       0.29502368      -1.36519586
H       -0.85420358       1.69755413       0.94446140
H        2.59088852      -0.24355490      -0.10097420
H       -1.28460468      -1.50729426       0.59372149
10
Frame=6 idx=003689 GeodesicLength=0.22643119544194987 rxn_smarts="[c:1]1([H:7])[c:2]([H:8])[n:3][c:4]([H:9])[n:5][c:6]1[H:10]>>[C@@:1]12([H:7])[C@@:2]3([H:8])[N:3]1[C:4]([H:9])=[N:5][C@@:6]23[H:10]"
C       -0.89710675       0.18602045      -0.73213808
C       -0.43425397       0.90208156       0.35151719
N        0.84833896       0.94972805      -0.27122666
C        1.51075059      -0.20558017      -0.01117503
N        0.80465406      -1.24570134       0.33802205
C       -0.51027184      -0.84038909       0.24855376
H       -1.77666232       0.29875561      -1.35309991
H       -0.85210812       1.71550773       0.93086690
H        2.59017181      -0.23887035      -0.08875144
H       -1.28351242      -1.52155246       0.58743122
10
Frame=7 idx=003689 GeodesicLength=0.2641732491408476 rxn_smarts="[c:1]1([H:7])[c:2]([H:8])[n:3][c:4]([H:9])[n:5][c:6]1[H:10]>>[C@@:1]12([H:7])[C@@:2]3([H:8])[N:3]1[C:4]([H:9])=[N:5][C@@:6]23[H:10]"
C       -0.89344320       0.18469269      -0.72408569
C       -0.43141388       0.90575144       0.35853993
N        0.84279297       0.94906532      -0.27643082
C        1.50845978      -0.20786756      -0.01537765
N        0.80478943      -1.25045576       0.32809363
C       -0.51311756      -0.84661559       0.24960580
H       -1.77483671       0.30245343      -1.34103259
H       -0.84996081       1.73314231       0.91685977
H        2.58906836      -0.23434343      -0.07708936
H       -1.28233837      -1.53582285       0.58091700
10
Frame=8 idx=003689 GeodesicLength=0.30188840580191734 rxn_smarts="[c:1]1([H:7])[c:2]([H:8])[n:3][c:4]([H:9])[n:5][c:6]1[H:10]>>[C@@:1]12([H:7])[C@@:2]3([H:8])[N:3]1[C:4]([H:9])=[N:5][C@@:6]23[H:10]"
C       -0.88960529       0.18335936      -0.71592430
C       -0.42861541       0.90962948       0.36558800
N        0.83726774       0.94859139      -0.28112460
C        1.50617681      -0.20988486      -0.01877442
N        0.80485088      -1.25490696       0.31876302
C       -0.51595167      -0.85277580       0.25078872
H       -1.77257216       0.30595545      -1.32916992
H       -0.84805772       1.75047290       0.90274078
H        2.58765371      -0.23036619      -0.06691131
H       -1.28114689      -1.55007477       0.57402402
10
Frame=9 idx=003689 GeodesicLength=0.33959751754122786 rxn_smarts="[c:1]1([H:7])[c:2]([H:8])[n:3][c:4]([H:9])[n:5][c:6]1[H:10]>>[C@@:1]12([H:7])[C@@:2]3([H:8])[N:3]1[C:4]([H:9])=[N:5][C@@:6]23[H:10]"
C       -0.88568860       0.18207573      -0.70762548
C       -0.42584150       0.91370066       0.37271196
N        0.83176356       0.94825419      -0.28539533
C        1.50390173      -0.21175914      -0.02168023
N        0.80486866      -1.25916197       0.30987439
C       -0.51879760      -0.85888691       0.25202543
H       -1.77001278       0.30937724      -1.31744558
H       -0.84616907       1.76727108       0.88831486
H        2.58591873      -0.22663012      -0.05770151
H       -1.27994312      -1.56424075       0.56692150
10
Frame=10 idx=003689 GeodesicLength=0.37728451891238657 rxn_smarts="[c:1]1([H:7])[c:2]([H:8])[n:3][c:4]([H:9])[n:5][c:6]1[H:10]>>[C@@:1]12([H:7])[C@@:2]3([H:8])[N:3]1[C:4]([H:9])=[N:5][C@@:6]23[H:10]"
C       -0.88170888       0.18080927      -0.69925519
C       -0.42310680       0.91798867       0.37981036
N        0.82626684       0.94805185      -0.28934563
C        1.50163908      -0.21347862      -0.02407356
N        0.80485307      -1.26319660       0.30144931
C       -0.52164550      -0.86495119       0.25332977
H       -1.76719870       0.31266345      -1.30591766
H       -0.84440666       1.78368465       0.87386607
H        2.58402128      -0.22326298      -0.04945145
H       -1.27871373      -1.57830850       0.55958798
10
Frame=11 idx=003689 GeodesicLength=0.41497078758691197 rxn_smarts="[c:1]1([H:7])[c:2]([H:8])[n:3][c:4]([H:9])[n:5][c:6]1[H:10]>>[C@@:1]12([H:7])[C@@:2]3([H:8])[N:3]1[C:4]([H:9])=[N:5][C@@:6]23[H:10]"
C       -0.87771850       0.17956701      -0.69078208
C       -0.42035917       0.92249068       0.38686899
N        0.82077665       0.94794298      -0.29309192
C        1.49937008      -0.21509305      -0.02612999
N        0.80478726      -1.26706222       0.29334525
C       -0.52450632      -0.87096788       0.25467981
H       -1.76423559       0.31584997      -1.29447120
H       -0.84263888       1.79965504       0.85931610
H        2.58197624      -0.22010092      -0.04178629
H       -1.27745178      -1.59228159       0.55205133
10
Frame=12 idx=003689 GeodesicLength=0.4526800095221664 rxn_smarts="[c:1]1([H:7])[c:2]([H:8])[n:3][c:4]([H:9])[n:5][c:6]1[H:10]>>[C@@:1]12([H:7])[C@@:2]3([H:8])[N:3]1[C:4]([H:9])=[N:5][C@@:6]23[H:10]"
C       -0.87377075       0.17835499      -0.68220610
C       -0.41758465       0.92721207       0.39386770
N        0.81528208       0.94790638      -0.29675117
C        1.49710409      -0.21664771      -0.02799576
N        0.80469428      -1.27080523       0.28546983
C       -0.52737816      -0.87695338       0.25607271
H       -1.76122878       0.31896786      -1.28304577
H       -0.84080793       1.81522960       0.84467613
H        2.57982688      -0.21707750      -0.03441128
H       -1.27613705      -1.60618708       0.54432371
10
Frame=13 idx=003689 GeodesicLength=0.490362696828252 rxn_smarts="[c:1]1([H:7])[c:2]([H:8])[n:3][c:4]([H:9])[n:5][c:6]1[H:10]>>[C@@:1]12([H:7])[C@@:2]3([H:8])[N:3]1[C:4]([H:9])=[N:5][C@@:6]23[H:10]"
C       -0.86985642       0.17713094      -0.67352011
C       -0.41472491       0.93213502       0.40073194
N        0.80979403       0.94790767      -0.30038639
C        1.49481163      -0.21812547      -0.02968364
N        0.80452590      -1.27437226       0.27780787
C       -0.53026793      -0.88288975       0.25749879
H       -1.75817806       0.32195788      -1.27158994
H       -0.83888740       1.83040647       0.83004064
H        2.57755808      -0.21416551      -0.02725678
H       -1.27477492      -1.61998499       0.53635763
10
Frame=14 idx=003689 GeodesicLength=0.5280202053162742 rxn_smarts="[c:1]1([H:7])[c:2]([H:8])[n:3][c:4]([H:9])[n:5][c:6]1[H:10]>>[C@@:1]12([H:7])[C@@:2]3([H:8])[N:3]1[C:4]([H:9])=[N:5][C@@:6]23[H:10]"
C       -0.86593674       0.17592567      -0.66473031
C       -0.41185621       0.93725680       0.40753810
N        0.80431080       0.94798541      -0.30381566
C        1.49249203      -0.21949844      -0.03107007
N        0.80429860      -1.27776102       0.27046487
C       -0.53318926      -0.88877637       0.25892830
H       -1.75496967       0.32484443      -1.26023488
H       -0.83690906       1.84505446       0.81533085
H        2.57515791      -0.21140181      -0.02064865
H       -1.27339840      -1.63362914       0.52823746
10
Frame=15 idx=003689 GeodesicLength=0.5656825931724031 rxn_smarts="[c:1]1([H:7])[c:2]([H:8])[n:3][c:4]([H:9])[n:5][c:6]1[H:10]>>[C@@:1]12([H:7])[C@@:2]3([H:8])[N:3]1[C:4]([H:9])=[N:5][C@@:6]23[H:10]"
C       -0.86202123       0.17473652      -0.65587600
C       -0.40897809       0.94260586       0.41422878
N        0.79883633       0.94813776      -0.30714374
C        1.49017285      -0.22079945      -0.03218133
N        0.80404021      -1.28100907       0.26344643
C       -0.53613088      -0.89463776       0.26038133
H       -1.75164188       0.32763879      -1.24900710
H       -0.83499279       1.85930251       0.80071050
H        2.57270974      -0.20883919      -0.01453042
H       -1.27199426      -1.64713595       0.51997156
10
Frame=16 idx=003689 GeodesicLength=0.6033431955303312 rxn_smarts="[c:1]1([H:7])[c:2]([H:8])[n:3][c:4]([H:9])[n:5][c:6]1[H:10]>>[C@@:1]12([H:7])[C@@:2]3([H:8])[N:3]1[C:4]([H:9])=[N:5][C@@:6]23[H:10]"
C       -0.85813436       0.17355769      -0.64693036
C       -0.40605766       0.94816713       0.42079887
N        0.79336565       0.94833734      -0.31041775
C        1.48783889      -0.22203933      -0.03309623
N        0.80373677      -1.28412353       0.25667440
C       -0.53909733      -0.90047034       0.26184345
H       -1.74824952       0.33034003      -1.23782288
H       -0.83304172       1.87313916       0.78612165
H        2.57019701      -0.20639358      -0.00871348
H       -1.27055774      -1.66051458       0.51154233
