14
Frame=0 idx=005793 GeodesicLength=0.0 rxn_smarts="[C:1]([C@:2]12[C:3]([H:10])([H:11])[C:4]([H:12])([H:13])[C@@:5]1([H:14])[O:6]2)([H:7])([H:8])[H:9]>>[C:1]([C@:2]1([O:6][H:14])[C:3]([H:10])([H:11])[C:4]([H:12])([H:13])[C:5]1)([H:7])([H:8])[H:9]"
C       -1.75012338       0.55001344       0.31161172
C       -0.40994814       0.05366418      -0.11834725
C        0.59221073      -0.71921735       0.74138455
C        1.71429399      -0.09727236      -0.12287878
C        0.68910439       0.76384738      -0.86243881
O       -0.35968409      -0.54746246      -1.41744370
H       -1.65760425       1.14778694       1.21952004
H       -2.42486532      -0.28431953       0.51619330
H       -2.18789191       1.17131465      -0.47045349
H        0.61375015      -0.35902961       1.76956544
H        0.47410241      -1.80242801       0.74084708
H        2.39213444       0.54868951       0.43904062
H        2.30939408      -0.75874304      -0.75073997
H        0.00512686       0.33315631      -1.99586076
14
Frame=1 idx=005793 GeodesicLength=0.04037107333630424 rxn_smarts="[C:1]([C@:2]12[C:3]([H:10])([H:11])[C:4]([H:12])([H:13])[C@@:5]1([H:14])[O:6]2)([H:7])([H:8])[H:9]>>[C:1]([C@:2]1([O:6][H:14])[C:3]([H:10])([H:11])[C:4]([H:12])([H:13])[C:5]1)([H:7])([H:8])[H:9]"
C       -1.74956365       0.55001500       0.31180324
C       -0.40985690       0.05188143      -0.11703183
C        0.59262698      -0.72006421       0.74297488
C        1.71459443      -0.09799673      -0.12178560
C        0.68811729       0.75731973      -0.86512971
O       -0.35788766      -0.54801170      -1.41672746
H       -1.65668995       1.14855287       1.21919796
H       -2.42482956      -0.28374693       0.51704376
H       -2.18714132       1.17100404      -0.47067292
H        0.61397205      -0.35996273       1.77123129
H        0.47491024      -1.80335816       0.74179737
H        2.39038931       0.55139710       0.43869973
H        2.31180046      -0.76057525      -0.74655684
H       -0.00044171       0.34354554      -2.00484387
14
Frame=2 idx=005793 GeodesicLength=0.08073922872994183 rxn_smarts="[C:1]([C@:2]12[C:3]([H:10])([H:11])[C:4]([H:12])([H:13])[C@@:5]1([H:14])[O:6]2)([H:7])([H:8])[H:9]>>[C:1]([C@:2]1([O:6][H:14])[C:3]([H:10])([H:11])[C:4]([H:12])([H:13])[C:5]1)([H:7])([H:8])[H:9]"
C       -1.74899317       0.55001971       0.31199078
C       -0.40977414       0.05006193      -0.11572679
C        0.59304242      -0.72092966       0.74455887
C        1.71487957      -0.09871139      -0.12069711
C        0.68710774       0.75072238      -0.86785602
O       -0.35615332      -0.54861989      -1.41602085
H       -1.65573851       1.14934069       1.21885578
H       -2.42479783      -0.28314998       0.51792261
H       -2.18637924       1.17068926      -0.47090216
H        0.61418776      -0.36090997       1.77288924
H        0.47573415      -1.80430813       0.74274115
H        2.38859023       0.55414787       0.43832867
H        2.31421690      -0.76238124      -0.74234760
H       -0.00592256       0.35402842      -2.01373656
14
Frame=3 idx=005793 GeodesicLength=0.12110240641575619 rxn_smarts="[C:1]([C@:2]12[C:3]([H:10])([H:11])[C:4]([H:12])([H:13])[C@@:5]1([H:14])[O:6]2)([H:7])([H:8])[H:9]>>[C:1]([C@:2]1([O:6][H:14])[C:3]([H:10])([H:11])[C:4]([H:12])([H:13])[C:5]1)([H:7])([H:8])[H:9]"
C       -1.74841365       0.55002586       0.31217368
C       -0.40970016       0.04820670      -0.11443108
C        0.59345738      -0.72181104       0.74613857
C        1.71514883      -0.09941826      -0.11961585
C        0.68607524       0.74405671      -0.87061439
O       -0.35448150      -0.54929126      -1.41532010
H       -1.65475467       1.15014615       1.21849470
H       -2.42477143      -0.28253149       0.51882583
H       -2.18560633       1.17036972      -0.47114156
H        0.61439956      -0.36186489       1.77453998
H        0.47657325      -1.80527510       0.74368452
H        2.38674154       0.55693565       0.43792263
H        2.31663857      -0.76416299      -0.73811823
H       -0.01130663       0.36461424      -2.02253869
14
Frame=4 idx=005793 GeodesicLength=0.16145752928103674 rxn_smarts="[C:1]([C@:2]12[C:3]([H:10])([H:11])[C:4]([H:12])([H:13])[C@@:5]1([H:14])[O:6]2)([H:7])([H:8])[H:9]>>[C:1]([C@:2]1([O:6][H:14])[C:3]([H:10])([H:11])[C:4]([H:12])([H:13])[C:5]1)([H:7])([H:8])[H:9]"
C       -1.74782689       0.55003171       0.31235134
C       -0.40963533       0.04631676      -0.11314355
C        0.59387225      -0.72270565       0.74771605
C        1.71540162      -0.10011924      -0.11854442
C        0.68501915       0.73732401      -0.87340163
O       -0.35287263      -0.55002989      -1.41462151
H       -1.65374326       1.15096503       1.21811599
H       -2.42475164      -0.28189433       0.51974949
H       -2.18482338       1.17004475      -0.47139143
H        0.61460975      -0.36282102       1.77618425
H        0.47742661      -1.80625623       0.74463349
H        2.38484757       0.55975443       0.43747677
H        2.31906057      -0.76592256      -0.73387485
H       -0.01658438       0.37531222      -2.03125001
14
Frame=5 idx=005793 GeodesicLength=0.20179939520988308 rxn_smarts="[C:1]([C@:2]12[C:3]([H:10])([H:11])[C:4]([H:12])([H:13])[C@@:5]1([H:14])[O:6]2)([H:7])([H:8])[H:9]>>[C:1]([C@:2]1([O:6][H:14])[C:3]([H:10])([H:11])[C:4]([H:12])([H:13])[C:5]1)([H:7])([H:8])[H:9]"
C       -1.74723470       0.55003565       0.31252329
C       -0.40958012       0.04439311      -0.11186303
C        0.59428735      -0.72361087       0.74929330
C        1.71563728      -0.10081608      -0.11748540
C        0.68393858       0.73052540      -0.87621503
O       -0.35132743      -0.55083975      -1.41392154
H       -1.65270900       1.15179323       1.21772110
H       -2.42473985      -0.28124125       0.52068991
H       -2.18403117       1.16971385      -0.47165196
H        0.61482059      -0.36377214       1.77782276
H        0.47829331      -1.80724884       0.74559381
H        2.38291244       0.56259865       0.43698639
H        2.32147816      -0.76766185      -0.72962353
H       -0.02174544       0.38613092      -2.03987007
14
Frame=6 idx=005793 GeodesicLength=0.24212107227206547 rxn_smarts="[C:1]([C@:2]12[C:3]([H:10])([H:11])[C:4]([H:12])([H:13])[C@@:5]1([H:14])[O:6]2)([H:7])([H:8])[H:9]>>[C:1]([C@:2]1([O:6][H:14])[C:3]([H:10])([H:11])[C:4]([H:12])([H:13])[C:5]1)([H:7])([H:8])[H:9]"
C       -1.74663904       0.55003617       0.31268911
C       -0.40953531       0.04243675      -0.11058837
C        0.59470309      -0.72452427       0.75087231
C        1.71585525      -0.10151027      -0.11644138
C        0.68283214       0.72366189      -0.87905247
O       -0.34984730      -0.55172491      -1.41321687
H       -1.65165646       1.15262649       1.21731188
H       -2.42473784      -0.28057498       0.52164326
H       -2.18323058       1.16937712      -0.47192327
H        0.61503461      -0.36471230       1.77945637
H        0.47917253      -1.80825068       0.74657113
H        2.38094036       0.56546345       0.43644684
H        2.32388684      -0.76938260      -0.72537033
H       -0.02677829       0.39707815      -2.04839821
14
Frame=7 idx=005793 GeodesicLength=0.2824706422531669 rxn_smarts="[C:1]([C@:2]12[C:3]([H:10])([H:11])[C:4]([H:12])([H:13])[C@@:5]1([H:14])[O:6]2)([H:7])([H:8])[H:9]>>[C:1]([C@:2]1([O:6][H:14])[C:3]([H:10])([H:11])[C:4]([H:12])([H:13])[C:5]1)([H:7])([H:8])[H:9]"
C       -1.74604072       0.55002920       0.31284525
C       -0.40949858       0.04044814      -0.10931927
C        0.59512045      -0.72544086       0.75245721
C        1.71605654      -0.10220782      -0.11541479
C        0.68170378       0.71673280      -0.88190838
O       -0.34842495      -0.55269698      -1.41249908
H       -1.65059238       1.15346012       1.21688473
H       -2.42474453      -0.27990049       0.52260321
H       -2.18242146       1.16902868      -0.47220949
H        0.61525374      -0.36562934       1.78108622
H        0.48006352      -1.80925554       0.74757773
H        2.37893894       0.56833577       0.43585280
H        2.32628078      -0.77109241      -0.72112218
H       -0.03169513       0.40818873      -2.05683395
14
Frame=8 idx=005793 GeodesicLength=0.3228049123878387 rxn_smarts="[C:1]([C@:2]12[C:3]([H:10])([H:11])[C:4]([H:12])([H:13])[C@@:5]1([H:14])[O:6]2)([H:7])([H:8])[H:9]>>[C:1]([C@:2]1([O:6][H:14])[C:3]([H:10])([H:11])[C:4]([H:12])([H:13])[C:5]1)([H:7])([H:8])[H:9]"
C       -1.74544185       0.55001449       0.31299465
C       -0.40947261       0.03842776      -0.10805511
C        0.59553870      -0.72636319       0.75404592
C        1.71623949      -0.10290711      -0.11440680
C        0.68054943       0.70973916      -0.88478412
O       -0.34706687      -0.55374935      -1.41177212
H       -1.64951409       1.15430519       1.21643509
H       -2.42475767      -0.27921865       0.52358666
H       -2.18161257       1.16865938      -0.47251264
H        0.61547665      -0.36652842       1.78271142
H        0.48096542      -1.81026674       0.74860955
H        2.37690580       0.57121888       0.43520341
H        2.32865924      -0.77279122      -0.71687796
H       -0.03646905       0.41945984      -2.06517793
14
Frame=9 idx=005793 GeodesicLength=0.36310411121684183 rxn_smarts="[C:1]([C@:2]12[C:3]([H:10])([H:11])[C:4]([H:12])([H:13])[C@@:5]1([H:14])[O:6]2)([H:7])([H:8])[H:9]>>[C:1]([C@:2]1([O:6][H:14])[C:3]([H:10])([H:11])[C:4]([H:12])([H:13])[C:5]1)([H:7])([H:8])[H:9]"
C       -1.74484159       0.54999089       0.31313619
C       -0.40945781       0.03637335      -0.10679684
C        0.59595706      -0.72729116       0.75563853
C        1.71640279      -0.10360788      -0.11341860
C        0.67936787       0.70267884      -0.88768033
O       -0.34577413      -0.55488599      -1.41103696
H       -1.64841875       1.15516430       1.21595945
H       -2.42477635      -0.27852964       0.52459876
H       -2.18080217       1.16826502      -0.47283552
H        0.61570039      -0.36740976       1.78433224
H        0.48187927      -1.81128463       0.74966787
H        2.37484061       0.57411373       0.43449580
H        2.33102184      -0.77447988      -0.71263558
H       -0.04109903       0.43090283      -2.07342500
14
Frame=10 idx=005793 GeodesicLength=0.40341609966547787 rxn_smarts="[C:1]([C@:2]12[C:3]([H:10])([H:11])[C:4]([H:12])([H:13])[C@@:5]1([H:14])[O:6]2)([H:7])([H:8])[H:9]>>[C:1]([C@:2]1([O:6][H:14])[C:3]([H:10])([H:11])[C:4]([H:12])([H:13])[C:5]1)([H:7])([H:8])[H:9]"
C       -1.74424020       0.54995719       0.31326722
C       -0.40945362       0.03428194      -0.10554427
C        0.59637720      -0.72822199       0.75723903
C        1.71654616      -0.10431518      -0.11245200
C        0.67815950       0.69554653      -0.89059577
O       -0.34454194      -0.55612332      -1.41028509
H       -1.64731120       1.15602891       1.21545987
H       -2.42480323      -0.27783423       0.52562561
H       -2.17998754       1.16784984      -0.47317841
H        0.61593143      -0.36826266       1.78594977
H        0.48280701      -1.81230608       0.75076403
H        2.37274312       0.57701541       0.43372495
H        2.33336620      -0.77616292      -0.70839997
H       -0.04559290       0.44254656      -2.08157497
14
Frame=11 idx=005793 GeodesicLength=0.44371536041013204 rxn_smarts="[C:1]([C@:2]12[C:3]([H:10])([H:11])[C:4]([H:12])([H:13])[C@@:5]1([H:14])[O:6]2)([H:7])([H:8])[H:9]>>[C:1]([C@:2]1([O:6][H:14])[C:3]([H:10])([H:11])[C:4]([H:12])([H:13])[C:5]1)([H:7])([H:8])[H:9]"
C       -1.74363849       0.54991335       0.31338808
C       -0.40946197       0.03215162      -0.10429733
C        0.59679914      -0.72915677       0.75884787
C        1.71666893      -0.10502817      -0.11150839
C        0.67692082       0.68833886      -0.89353404
O       -0.34337566      -0.55746437      -1.40951739
H       -1.64619068       1.15689693       1.21493821
H       -2.42484143      -0.27713084       0.52666913
H       -2.17916661       1.16741644      -0.47354122
H        0.61617119      -0.36908699       1.78756436
H        0.48374866      -1.81333280       0.75189895
H        2.37061067       0.57992812       0.43288842
H        2.33569506      -0.77783851      -0.70416998
H       -0.04993964       0.45439315      -2.08962668
14
Frame=12 idx=005793 GeodesicLength=0.4840109209954793 rxn_smarts="[C:1]([C@:2]12[C:3]([H:10])([H:11])[C:4]([H:12])([H:13])[C@@:5]1([H:14])[O:6]2)([H:7])([H:8])[H:9]>>[C:1]([C@:2]1([O:6][H:14])[C:3]([H:10])([H:11])[C:4]([H:12])([H:13])[C:5]1)([H:7])([H:8])[H:9]"
C       -1.74303522       0.54985737       0.31349839
C       -0.40948212       0.02997985      -0.10305551
C        0.59722265      -0.73009432       0.76046616
C        1.71677031      -0.10574921      -0.11058938
C        0.67565216       0.68105086      -0.89649556
O       -0.34227317      -0.55891494      -1.40873120
H       -1.64505665       1.15777007       1.21439080
H       -2.42488998      -0.27642035       0.52773005
H       -2.17833979       1.16695624      -0.47392728
H        0.61642128      -0.36987824       1.78917532
H        0.48470230      -1.81436219       0.75307614
H        2.36844211       0.58285067       0.43198123
H        2.33800640      -0.77951169      -0.69994390
H       -0.05414029       0.46646588      -2.09757527
14
Frame=13 idx=005793 GeodesicLength=0.5242988734665315 rxn_smarts="[C:1]([C@:2]12[C:3]([H:10])([H:11])[C:4]([H:12])([H:13])[C@@:5]1([H:14])[O:6]2)([H:7])([H:8])[H:9]>>[C:1]([C@:2]1([O:6][H:14])[C:3]([H:10])([H:11])[C:4]([H:12])([H:13])[C:5]1)([H:7])([H:8])[H:9]"
C       -1.74243273       0.54978772       0.31359639
C       -0.40951531       0.02776570      -0.10181882
C        0.59764884      -0.73103445       0.76209557
C        1.71684989      -0.10648033      -0.10969664
C        0.67435173       0.67368169      -0.89947939
O       -0.34123596      -0.56048005      -1.40792543
H       -1.64391004       1.15865289       1.21381234
H       -2.42494937      -0.27570479       0.52881143
H       -2.17751258       1.16646477      -0.47434024
H        0.61668375      -0.37063495       1.79078453
H        0.48566975      -1.81539561       0.75430179
H        2.36624084       0.58578002       0.43099909
H        2.34029904      -0.78118456      -0.69572493
H       -0.05818788       0.47878196      -2.10541569
14
Frame=14 idx=005793 GeodesicLength=0.5645774085489299 rxn_smarts="[C:1]([C@:2]12[C:3]([H:10])([H:11])[C:4]([H:12])([H:13])[C@@:5]1([H:14])[O:6]2)([H:7])([H:8])[H:9]>>[C:1]([C@:2]1([O:6][H:14])[C:3]([H:10])([H:11])[C:4]([H:12])([H:13])[C:5]1)([H:7])([H:8])[H:9]"
C       -1.74183226       0.54970176       0.31368072
C       -0.40956231       0.02550791      -0.10058706
C        0.59807713      -0.73197593       0.76373674
C        1.71690650      -0.10722385      -0.10883234
C        0.67301846       0.66622869      -0.90248489
O       -0.34026388      -0.56216434      -1.40709757
H       -1.64275093       1.15954859       1.21319672
H       -2.42501892      -0.27498597       0.52991806
H       -2.17668816       1.16593498      -0.47478274
H        0.61695777      -0.37135472       1.79239171
H        0.48665097      -1.81643135       0.75558179
H        2.36400865       0.58871260       0.42993606
H        2.34257118      -0.78285872      -0.69151594
H       -0.06207421       0.49136036      -2.11314127
14
Frame=15 idx=005793 GeodesicLength=0.6048518811551803 rxn_smarts="[C:1]([C@:2]12[C:3]([H:10])([H:11])[C:4]([H:12])([H:13])[C@@:5]1([H:14])[O:6]2)([H:7])([H:8])[H:9]>>[C:1]([C@:2]1([O:6][H:14])[C:3]([H:10])([H:11])[C:4]([H:12])([H:13])[C:5]1)([H:7])([H:8])[H:9]"
C       -1.74123326       0.54959882       0.31375165
C       -0.40962410       0.02320237      -0.09936115
C        0.59850762      -0.73291982       0.76539022
C        1.71693923      -0.10798083      -0.10799744
C        0.67165043       0.65868588      -0.90551473
O       -0.33935853      -0.56397548      -1.40624723
H       -1.64157664       1.16046160       1.21254060
H       -2.42509913      -0.27426332       0.53105207
H       -2.17586730       1.16536241      -0.47525719
H        0.61724496      -0.37203590       1.79399658
H        0.48764916      -1.81747101       0.75691878
H        2.36174117       0.59165180       0.42878890
H        2.34482307      -0.78453812      -0.68731308
H       -0.06579667       0.50422158      -2.12074799
14
Frame=16 idx=005793 GeodesicLength=0.6451248765243679 rxn_smarts="[C:1]([C@:2]12[C:3]([H:10])([H:11])[C:4]([H:12])([H:13])[C@@:5]1([H:14])[O:6]2)([H:7])([H:8])[H:9]>>[C:1]([C@:2]1([O:6][H:14])[C:3]([H:10])([H:11])[C:4]([H:12])([H:13])[C:5]1)([H:7])([H:8])[H:9]"
C       -1.74063515       0.54947800       0.31380780
C       -0.40970163       0.02084542      -0.09814299
C        0.59893952      -0.73386838       0.76705482
C        1.71694699      -0.10875235      -0.10719237
C        0.67024652       0.65104764      -0.90857114
O       -0.33852108      -0.56591921      -1.40537518
H       -1.64038136       1.16140488       1.21183232
H       -2.42518416      -0.27353632       0.53223240
H       -2.17505641       1.16473330      -0.47577101
H        0.61754345      -0.37268097       1.79559796
H        0.48866409      -1.81851681       0.75831110
H        2.35943301       0.59459956       0.42755722
H        2.34705643      -0.78622473      -0.68311204
H       -0.06935023       0.51738997      -2.12822888
