17
Frame=0 idx=006892 GeodesicLength=0.0 rxn_smarts="[C:1]([C@@:2]1([H:11])[O:3][C:4]([H:12])([H:13])[C@@:5]2([H:14])[C:6]([H:15])([H:16])[C@@:7]12[H:17])([H:8])([H:9])[H:10]>>[C-:2]1=[O+:3][C:4]([H:12])([H:13])[C@@:5]2([H:14])[C:6]([H:15])([H:16])[C@@:7]12[H:17].[C:1]([H:8])([H:9])([H:10])[H:11]"
C       -2.15192115      -0.41944381       0.37025197
C       -0.55650090       0.01746721      -1.13399682
O       -0.29378227       1.31953167      -0.94486059
C        0.94134707       1.53493476      -0.23974928
C        1.60038463       0.18091369      -0.12017216
C        0.97090563      -0.78730828       0.81786515
C        0.58296744      -0.80378428      -0.64050854
H       -3.19539094      -0.30649751       0.07118514
H       -1.86665494       0.36631481       1.06340283
H       -1.94441140      -1.41744362       0.74795198
H       -1.68607372      -0.30575919      -0.98128145
H        1.53561591       2.23295823      -0.83014890
H        0.71391239       1.99298598       0.72689482
H        2.64769171       0.08808817      -0.37180339
H        0.25098787      -0.41947506       1.53730851
H        1.57350051      -1.61667165       1.16481666
H        0.87742208      -1.65681117      -1.23715594
17
Frame=1 idx=006892 GeodesicLength=0.07227520527750474 rxn_smarts="[C:1]([C@@:2]1([H:11])[O:3][C:4]([H:12])([H:13])[C@@:5]2([H:14])[C:6]([H:15])([H:16])[C@@:7]12[H:17])([H:8])([H:9])[H:10]>>[C-:2]1=[O+:3][C:4]([H:12])([H:13])[C@@:5]2([H:14])[C:6]([H:15])([H:16])[C@@:7]12[H:17].[C:1]([H:8])([H:9])([H:10])[H:11]"
C       -2.16716661      -0.42980810       0.36186588
C       -0.55781049       0.02431064      -1.11484750
O       -0.29512132       1.32556318      -0.91732231
C        0.95702227       1.53945111      -0.24238353
C        1.61010524       0.18332100      -0.12168986
C        0.97731517      -0.77929243       0.82017971
C        0.58774576      -0.79807549      -0.63765357
H       -3.21101135      -0.30714153       0.06775225
H       -1.89118946       0.33958058       1.07743667
H       -1.96861793      -1.43357624       0.72976235
H       -1.70345260      -0.31551656      -0.99160916
H        1.54346319       2.22654674      -0.85357087
H        0.75195140       2.00995390       0.72314418
H        2.65676869       0.08528787      -0.37413791
H        0.25809554      -0.40677466       1.53811648
H        1.57638872      -1.61038429       1.16896027
H        0.87551379      -1.65344573      -1.23400308
17
Frame=2 idx=006892 GeodesicLength=0.14404294844987947 rxn_smarts="[C:1]([C@@:2]1([H:11])[O:3][C:4]([H:12])([H:13])[C@@:5]2([H:14])[C:6]([H:15])([H:16])[C@@:7]12[H:17])([H:8])([H:9])[H:10]>>[C-:2]1=[O+:3][C:4]([H:12])([H:13])[C@@:5]2([H:14])[C:6]([H:15])([H:16])[C@@:7]12[H:17].[C:1]([H:8])([H:9])([H:10])[H:11]"
C       -2.18231557      -0.43977784       0.35337152
C       -0.55914806       0.03094009      -1.09520821
O       -0.29612307       1.33132845      -0.88944269
C        0.97236596       1.54385103      -0.24511846
C        1.61977889       0.18576646      -0.12316400
C        0.98401359      -0.77126409       0.82268825
C        0.59249638      -0.79243774      -0.63452802
H       -3.22637482      -0.30653625       0.06438258
H       -1.91509155       0.31177772       1.09151794
H       -1.99357487      -1.44963926       0.71048001
H       -1.72060408      -0.32505345      -1.00208568
H        1.55021151       2.21991755      -0.87693326
H        0.78967214       2.02668094       0.71871366
H        2.66574437       0.08267136      -0.37661131
H        0.26563942      -0.39411795       1.53927016
H        1.57974253      -1.60397971       1.17320817
H        0.87356722      -1.65012733      -1.23054067
17
Frame=3 idx=006892 GeodesicLength=0.21533746565078166 rxn_smarts="[C:1]([C@@:2]1([H:11])[O:3][C:4]([H:12])([H:13])[C@@:5]2([H:14])[C:6]([H:15])([H:16])[C@@:7]12[H:17])([H:8])([H:9])[H:10]>>[C-:2]1=[O+:3][C:4]([H:12])([H:13])[C@@:5]2([H:14])[C:6]([H:15])([H:16])[C@@:7]12[H:17].[C:1]([H:8])([H:9])([H:10])[H:11]"
C       -2.19735871      -0.44934351       0.34477279
C       -0.56049484       0.03733883      -1.07507747
O       -0.29677371       1.33680997      -0.86122870
C        0.98735244       1.54812458      -0.24795458
C        1.62940059       0.18824855      -0.12459589
C        0.99101859      -0.76322664       0.82540021
C        0.59721915      -0.78688379      -0.63111545
H       -3.24144261      -0.30465525       0.06110772
H       -1.93835740       0.28287239       1.10559464
H       -2.01930179      -1.46557731       0.69005809
H       -1.73754974      -0.33433375      -1.01270432
H        1.55583483       2.21306848      -0.90021203
H        0.82701888       2.04315006       0.71358084
H        2.67461218       0.08024625      -0.37923560
H        0.27364473      -0.38151232       1.54078819
H        1.58359060      -1.59745490       1.17756750
H        0.87158682      -1.64687163      -1.22674594
17
Frame=4 idx=006892 GeodesicLength=0.2862000114584049 rxn_smarts="[C:1]([C@@:2]1([H:11])[O:3][C:4]([H:12])([H:13])[C@@:5]2([H:14])[C:6]([H:15])([H:16])[C@@:7]12[H:17])([H:8])([H:9])[H:10]>>[C-:2]1=[O+:3][C:4]([H:12])([H:13])[C@@:5]2([H:14])[C:6]([H:15])([H:16])[C@@:7]12[H:17].[C:1]([H:8])([H:9])([H:10])[H:11]"
C       -2.21228815      -0.45850409       0.33607273
C       -0.56183514       0.04349316      -1.05445397
O       -0.29706910       1.34199873      -0.83268932
C        1.00196735       1.55226539      -0.25089260
C        1.63896877       0.19076497      -0.12598744
C        0.99834623      -0.75517983       0.82832446
C        0.60191384      -0.78142576      -0.62739870
H       -3.25618096      -0.30148694       0.05796969
H       -1.96099612       0.25283070       1.11960939
H       -2.04581515      -1.48133790       0.66845077
H       -1.75431687      -0.34332497      -1.02346687
H        1.56031809       2.20599437      -0.92338403
H        0.86395091       2.05935648       0.70773175
H        2.68336944       0.07801474      -0.38202243
H        0.28213528      -0.36895822       1.54268492
H        1.58795752      -1.59080511       1.18204594
H        0.86957406      -1.64369574      -1.22259431
17
Frame=5 idx=006892 GeodesicLength=0.35665564418610435 rxn_smarts="[C:1]([C@@:2]1([H:11])[O:3][C:4]([H:12])([H:13])[C@@:5]2([H:14])[C:6]([H:15])([H:16])[C@@:7]12[H:17])([H:8])([H:9])[H:10]>>[C-:2]1=[O+:3][C:4]([H:12])([H:13])[C@@:5]2([H:14])[C:6]([H:15])([H:16])[C@@:7]12[H:17].[C:1]([H:8])([H:9])([H:10])[H:11]"
C       -2.22709005      -0.46724876       0.32727585
C       -0.56315034       0.04938346      -1.03333301
O       -0.29699174       1.34687375      -0.80383510
C        1.01617981       1.55626068      -0.25393013
C        1.64847895       0.19331367      -0.12734066
C        1.00601728      -0.74713014       0.83146861
C        0.60658413      -0.77607857      -0.62336265
H       -3.27054461      -0.29701301       0.05500478
H       -1.98301158       0.22163456       1.13348791
H       -2.07313002      -1.49684274       0.64562255
H       -1.77093403      -0.35199535      -1.03435800
H        1.56363912       2.19869324      -0.94641854
H        0.90039233       2.07527544       0.70114430
H        2.69200862       0.07598721      -0.38498359
H        0.29113706      -0.35646887       1.54497747
H        1.59287678      -1.58402994       1.18664736
H        0.86753831      -1.64061464      -1.21806712
17
Frame=6 idx=006892 GeodesicLength=0.42673903547002595 rxn_smarts="[C:1]([C@@:2]1([H:11])[O:3][C:4]([H:12])([H:13])[C@@:5]2([H:14])[C:6]([H:15])([H:16])[C@@:7]12[H:17])([H:8])([H:9])[H:10]>>[C-:2]1=[O+:3][C:4]([H:12])([H:13])[C@@:5]2([H:14])[C:6]([H:15])([H:16])[C@@:7]12[H:17].[C:1]([H:8])([H:9])([H:10])[H:11]"
C       -2.24175178      -0.47557000       0.31838769
C       -0.56442671       0.05499052      -1.01171086
O       -0.29653636       1.35141978      -0.77469005
C        1.02997387       1.56010448      -0.25706660
C        1.65793018       0.19589203      -0.12865905
C        1.01405003      -0.73908118       0.83483901
C        0.61123357      -0.77085778      -0.61899192
H       -3.28449250      -0.29123122       0.05226612
H       -2.00443440       0.18925045       1.14715529
H       -2.10126346      -1.51201580       0.62154450
H       -1.78743463      -0.36031920      -1.04538366
H        1.56578808       2.19116490      -0.96928240
H        0.93629870       2.09091126       0.69381313
H        2.70052885       0.07416784      -0.38813200
H        0.30067357      -0.34405036       1.54767722
H        1.59837667      -1.57712803       1.19137647
H        0.86548633      -1.63764768      -1.21314290
17
Frame=7 idx=006892 GeodesicLength=0.4964782437820202 rxn_smarts="[C:1]([C@@:2]1([H:11])[O:3][C:4]([H:12])([H:13])[C@@:5]2([H:14])[C:6]([H:15])([H:16])[C@@:7]12[H:17])([H:8])([H:9])[H:10]>>[C-:2]1=[O+:3][C:4]([H:12])([H:13])[C@@:5]2([H:14])[C:6]([H:15])([H:16])[C@@:7]12[H:17].[C:1]([H:8])([H:9])([H:10])[H:11]"
C       -2.25626552      -0.48345813       0.30941623
C       -0.56564682       0.06029186      -0.98957942
O       -0.29569180       1.35561658      -0.74527465
C        1.04333419       1.56379044      -0.26029713
C        1.66732305       0.19849579      -0.12994848
C        1.02246593      -0.73104004       0.83844191
C        0.61586829      -0.76577830      -0.61427284
H       -3.29798807      -0.28414592       0.04980348
H       -2.02529688       0.15566581       1.16051843
H       -2.13022055      -1.52676296       0.59619915
H       -1.80385086      -0.36827381      -1.05654280
H        1.56674727       2.18341363      -0.99193566
H        0.97160528       2.10625091       0.68572584
H        2.70893000       0.07256059      -0.39148511
H        0.31076810      -0.33171383       1.55079859
H        1.60448986      -1.57010199       1.19623669
H        0.86342852      -1.63481064      -1.20780423
17
Frame=8 idx=006892 GeodesicLength=0.5659216068899796 rxn_smarts="[C:1]([C@@:2]1([H:11])[O:3][C:4]([H:12])([H:13])[C@@:5]2([H:14])[C:6]([H:15])([H:16])[C@@:7]12[H:17])([H:8])([H:9])[H:10]>>[C-:2]1=[O+:3][C:4]([H:12])([H:13])[C@@:5]2([H:14])[C:6]([H:15])([H:16])[C@@:7]12[H:17].[C:1]([H:8])([H:9])([H:10])[H:11]"
C       -2.27062199      -0.49091624       0.30036163
C       -0.56679995       0.06527232      -0.96692196
O       -0.29445321       1.35945517      -0.71559807
C        1.05624859       1.56731160      -0.26362504
C        1.67665715       0.20112227      -0.13121711
C        1.03128263      -0.72300695       0.84228579
C        0.62049083      -0.76085194      -0.60918937
H       -3.31099119      -0.27577923       0.04766522
H       -2.04565163       0.12085160       1.17349359
H       -2.16000643      -1.54100037       0.56956286
H       -1.82022520      -0.37583845      -1.06784210
H        1.56652171       2.17544248      -1.01435173
H        1.00628593       2.12130112       0.67687507
H        2.71721066       0.07116424      -0.39506238
H        0.32144182      -0.31945953       1.55435722
H        1.61124351      -1.56294927       1.20123608
H        0.86136676      -1.63211883      -1.20202971
17
Frame=9 idx=006892 GeodesicLength=0.6351430337187121 rxn_smarts="[C:1]([C@@:2]1([H:11])[O:3][C:4]([H:12])([H:13])[C@@:5]2([H:14])[C:6]([H:15])([H:16])[C@@:7]12[H:17])([H:8])([H:9])[H:10]>>[C-:2]1=[O+:3][C:4]([H:12])([H:13])[C@@:5]2([H:14])[C:6]([H:15])([H:16])[C@@:7]12[H:17].[C:1]([H:8])([H:9])([H:10])[H:11]"
C       -2.28484773      -0.49804098       0.29120047
C       -0.56791209       0.06995599      -0.94374091
O       -0.29293340       1.36301436      -0.68563763
C        1.06878902       1.57069183      -0.26708016
C        1.68594307       0.20377421      -0.13247956
C        1.04048606      -0.71491770       0.84636496
C        0.62508960      -0.75607674      -0.60371813
H       -3.32348069      -0.26623101       0.04595788
H       -2.06567663       0.08462450       1.18610250
H       -2.19059779      -1.55471334       0.54158059
H       -1.83659411      -0.38297685      -1.07938723
H        1.56524282       2.16717633      -1.03655297
H        1.04056527       2.13619151       0.66732046
H        2.72537250       0.06993357      -0.39886967
H        0.33269426      -0.30718679       1.55830731
H        1.61859814      -1.55561271       1.20639416
H        0.85926170      -1.62960618      -1.19576206
17
Frame=10 idx=006892 GeodesicLength=0.7041046527088615 rxn_smarts="[C:1]([C@@:2]1([H:11])[O:3][C:4]([H:12])([H:13])[C@@:5]2([H:14])[C:6]([H:15])([H:16])[C@@:7]12[H:17])([H:8])([H:9])[H:10]>>[C-:2]1=[O+:3][C:4]([H:12])([H:13])[C@@:5]2([H:14])[C:6]([H:15])([H:16])[C@@:7]12[H:17].[C:1]([H:8])([H:9])([H:10])[H:11]"
C       -2.29889218      -0.50471473       0.28196822
C       -0.56892512       0.07426565      -0.92001082
O       -0.29099947       1.36617248      -0.65547292
C        1.08083916       1.57388752      -0.27061904
C        1.69516740       0.20644082      -0.13373260
C        1.05013478      -0.70685390       0.85069068
C        0.62969596      -0.75149011      -0.59785847
H       -3.33540273      -0.25545284       0.04469198
H       -2.08528280       0.04717479       1.19809007
H       -2.22200587      -1.56768736       0.51232418
H       -1.85299474      -0.38967381      -1.09108186
H        1.56275765       2.15869540      -1.05843081
H        1.07408160       2.15076788       0.65699578
H        2.73340845       0.06892729      -0.40293103
H        0.34456747      -0.29502909       1.56271108
H        1.62666692      -1.54815380       1.21169123
H        0.85718351      -1.62727620      -1.18902567
17
Frame=11 idx=006892 GeodesicLength=0.7728413748705962 rxn_smarts="[C:1]([C@@:2]1([H:11])[O:3][C:4]([H:12])([H:13])[C@@:5]2([H:14])[C:6]([H:15])([H:16])[C@@:7]12[H:17])([H:8])([H:9])[H:10]>>[C-:2]1=[O+:3][C:4]([H:12])([H:13])[C@@:5]2([H:14])[C:6]([H:15])([H:16])[C@@:7]12[H:17].[C:1]([H:8])([H:9])([H:10])[H:11]"
C       -2.31275655      -0.51098052       0.27266307
C       -0.56983555       0.07819374      -0.89571915
O       -0.28868896       1.36895816      -0.62511442
C        1.09241525       1.57690019      -0.27423810
C        1.70433540       0.20911791      -0.13498246
C        1.06024128      -0.69880791       0.85526039
C        0.63431364      -0.74710360      -0.59159730
H       -3.34672097      -0.24353354       0.04393116
H       -2.10456094       0.00852129       1.20935430
H       -2.25421712      -1.57985200       0.48180931
H       -1.86946919      -0.39589862      -1.10294968
H        1.55910582       2.14997873      -1.07998334
H        1.10685091       2.16506240       0.64593849
H        2.74132015       0.06813360      -0.40725631
H        0.35707611      -0.28297710       1.56755520
H        1.63546335      -1.54056341       1.21712809
H        0.85512737      -1.62514931      -1.18179925
17
Frame=12 idx=006892 GeodesicLength=0.8413712676514874 rxn_smarts="[C:1]([C@@:2]1([H:11])[O:3][C:4]([H:12])([H:13])[C@@:5]2([H:14])[C:6]([H:15])([H:16])[C@@:7]12[H:17])([H:8])([H:9])[H:10]>>[C-:2]1=[O+:3][C:4]([H:12])([H:13])[C@@:5]2([H:14])[C:6]([H:15])([H:16])[C@@:7]12[H:17].[C:1]([H:8])([H:9])([H:10])[H:11]"
C       -2.32643532      -0.51684407       0.26328867
C       -0.57062992       0.08171600      -0.87084591
O       -0.28600812       1.37135703      -0.59458062
C        1.10350663       1.57972739      -0.27792685
C        1.71345036       0.21180157      -0.13623771
C        1.07083020      -0.69079029       0.86007234
C        0.63895468      -0.74293187      -0.58492561
H       -3.35740113      -0.23054575       0.04371325
H       -2.12359927      -0.03128034       1.21976763
H       -2.28720534      -1.59109082       0.45008279
H       -1.88605807      -0.40162775      -1.11499500
H        1.55429091       2.14102097      -1.10118360
H        1.13882311       2.17907382       0.63416821
H        2.74910966       0.06755525      -0.41186533
H        0.37024001      -0.27105100       1.57284191
H        1.64502530      -1.53284825       1.22269702
H        0.85310631      -1.62324189      -1.17407118
17
Frame=13 idx=006892 GeodesicLength=0.9096990499373228 rxn_smarts="[C:1]([C@@:2]1([H:11])[O:3][C:4]([H:12])([H:13])[C@@:5]2([H:14])[C:6]([H:15])([H:16])[C@@:7]12[H:17])([H:8])([H:9])[H:10]>>[C-:2]1=[O+:3][C:4]([H:12])([H:13])[C@@:5]2([H:14])[C:6]([H:15])([H:16])[C@@:7]12[H:17].[C:1]([H:8])([H:9])([H:10])[H:11]"
C       -2.33992262      -0.52232075       0.25383639
C       -0.57129652       0.08480833      -0.84536216
O       -0.28296255       1.37335750      -0.56388298
C        1.11409866       1.58236173      -0.28167179
C        1.72251226       0.21448629      -0.13750936
C        1.08192660      -0.68281125       0.86512249
C        0.64362945      -0.73899083      -0.57783531
H       -3.36740819      -0.21658492       0.04406217
H       -2.14249481      -0.07213190       1.22919534
H       -2.32093453      -1.60129352       0.41720857
H       -1.90279808      -0.40683676      -1.12721503
H        1.54830924       2.13182069      -1.12199449
H        1.16996461       2.19279902       0.62170089
H        2.75677366       0.06719554      -0.41678250
H        0.38407908      -0.25927360       1.57857109
H        1.65539360      -1.52501509       1.22838820
H        0.85113016      -1.62157049      -1.16583152
17
Frame=14 idx=006892 GeodesicLength=0.9778616011133523 rxn_smarts="[C:1]([C@@:2]1([H:11])[O:3][C:4]([H:12])([H:13])[C@@:5]2([H:14])[C:6]([H:15])([H:16])[C@@:7]12[H:17])([H:8])([H:9])[H:10]>>[C-:2]1=[O+:3][C:4]([H:12])([H:13])[C@@:5]2([H:14])[C:6]([H:15])([H:16])[C@@:7]12[H:17].[C:1]([H:8])([H:9])([H:10])[H:11]"
C       -2.35321895      -0.52741987       0.24430522
C       -0.57182577       0.08744906      -0.81923629
O       -0.27956756       1.37495729      -0.53301922
C        1.12419338       1.58479670      -0.28547087
C        1.73152780       0.21716660      -0.13881081
C        1.09355703      -0.67487629       0.87040560
C        0.64834953      -0.73529501      -0.57031637
H       -3.37673976      -0.20177017       0.04501547
H       -2.16137636      -0.11395028       1.23751054
H       -2.35536085      -1.61035093       0.38325475
H       -1.91972693      -0.41150977      -1.13964727
H        1.54117772       2.12236959      -1.14239786
H        1.20026015       2.20625875       0.60857971
H        2.76431625       0.06704853      -0.42203473
H        0.39862050      -0.24765480       1.58473969
H        1.66660635      -1.51706721       1.23418980
H        0.84920748      -1.62015219      -1.15706739
17
Frame=15 idx=006892 GeodesicLength=1.0458738025104792 rxn_smarts="[C:1]([C@@:2]1([H:11])[O:3][C:4]([H:12])([H:13])[C@@:5]2([H:14])[C:6]([H:15])([H:16])[C@@:7]12[H:17])([H:8])([H:9])[H:10]>>[C-:2]1=[O+:3][C:4]([H:12])([H:13])[C@@:5]2([H:14])[C:6]([H:15])([H:16])[C@@:7]12[H:17].[C:1]([H:8])([H:9])([H:10])[H:11]"
C       -2.36632390      -0.53213506       0.23468291
C       -0.57220446       0.08960677      -0.79243537
O       -0.27582802       1.37614279      -0.50198783
C        1.13377527       1.58702302      -0.28930920
C        1.74049900       0.21983631      -0.14015657
C        1.10575366      -0.66699843       0.87591246
C        0.65312990      -0.73186272      -0.56236265
H       -3.38538263      -0.18621338       0.04656970
H       -2.18038112      -0.15661985       1.24458006
H       -2.39042843      -1.61814427       0.34833425
H       -1.93687545      -0.41563754      -1.15230591
H        1.53288436       2.11267099      -1.16234476
H        1.22968454       2.21945216       0.59482024
H        2.77173513       0.06711902      -0.42765258
H        0.41389287      -0.23622274       1.59134390
H        1.67871494      -1.50901229       1.24008327
H        0.84735435      -1.61900478      -1.14777194
17
Frame=16 idx=006892 GeodesicLength=1.113782499803069 rxn_smarts="[C:1]([C@@:2]1([H:11])[O:3][C:4]([H:12])([H:13])[C@@:5]2([H:14])[C:6]([H:15])([H:16])[C@@:7]12[H:17])([H:8])([H:9])[H:10]>>[C-:2]1=[O+:3][C:4]([H:12])([H:13])[C@@:5]2([H:14])[C:6]([H:15])([H:16])[C@@:7]12[H:17].[C:1]([H:8])([H:9])([H:10])[H:11]"
C       -2.37924649      -0.53647485       0.22495569
C       -0.57242557       0.09125656      -0.76491029
O       -0.27176643       1.37691168      -0.47076314
C        1.14283839       1.58903427      -0.29317580
C        1.74943041       0.22249078      -0.14156141
C        1.11855154      -0.65918389       0.88163671
C        0.65798357      -0.72871082      -0.55396122
H       -3.39333480      -0.17001821       0.04871410
H       -2.19965639      -0.20004167       1.25030340
H       -2.42607843      -1.62457070       0.31254223
H       -1.95427330      -0.41921483      -1.16524558
H        1.52342098       2.10271492      -1.18181154
H        1.25824089       2.23239259       0.58044257
H        2.77902911       0.06740736      -0.43366976
H        0.42993260      -0.22499306       1.59838197
H        1.69177307      -1.50085235       1.24605223
H        0.84558083      -1.61814779      -1.13793015
