15
Frame=0 idx=006393 GeodesicLength=0.0 rxn_smarts="[C:1]([O:2][C:3]([C:4](=[O:5])[O:6][C:7]([H:13])([H:14])[H:15])([H:11])[H:12])([H:8])([H:9])[H:10]>>[C:1]1([H:8])([H:10])[O:2][C:3]([H:11])([H:12])[C:4]1([O:5][H:9])[O:6][C:7]([H:13])([H:14])[H:15]"
C       -2.05488658       0.54211063      -0.16355603
O       -2.04714257      -0.81440430       0.36043361
C       -0.80891730      -0.92701258       0.92148811
C        0.18665585      -0.25475295      -0.01541719
O        0.15142872      -0.31892923      -1.31469484
O        1.33029234      -0.00150265       0.53636347
C        2.40624957       0.48066527      -0.28797360
H       -2.90126758       0.61894438      -0.85349046
H       -0.81999052       0.02962954      -1.37030975
H       -2.21974365       1.25199934       0.65702609
H       -0.70985581      -0.42033547       1.89416674
H       -0.51910807      -1.98069427       1.05212702
H        2.74470254      -0.30669675      -0.95780290
H        2.06939822       1.34005801      -0.86474263
H        3.19218480       0.76092108       0.40638237
15
Frame=1 idx=006393 GeodesicLength=0.08233411450224859 rxn_smarts="[C:1]([O:2][C:3]([C:4](=[O:5])[O:6][C:7]([H:13])([H:14])[H:15])([H:11])[H:12])([H:8])([H:9])[H:10]>>[C:1]1([H:8])([H:10])[O:2][C:3]([H:11])([H:12])[C:4]1([O:5][H:9])[O:6][C:7]([H:13])([H:14])[H:15]"
C       -2.03052271       0.54439372      -0.16780380
O       -2.05276079      -0.80258023       0.37496455
C       -0.81011214      -0.93666816       0.92811038
C        0.18256408      -0.27151556      -0.01603546
O        0.14898199      -0.35333028      -1.31420691
O        1.32765717      -0.00922899       0.53762721
C        2.39381278       0.49180699      -0.28560773
H       -2.87803639       0.62892534      -0.85524514
H       -0.83055264       0.02339696      -1.38419025
H       -2.18027131       1.27104663       0.64092926
H       -0.70356357      -0.43479534       1.90208756
H       -0.53411515      -1.99428943       1.05046336
H        2.73914704      -0.28498806      -0.96462557
H        2.04708760       1.35362021      -0.85347326
H        3.18068403       0.77420619       0.40700580
15
Frame=2 idx=006393 GeodesicLength=0.16472312453699858 rxn_smarts="[C:1]([O:2][C:3]([C:4](=[O:5])[O:6][C:7]([H:13])([H:14])[H:15])([H:11])[H:12])([H:8])([H:9])[H:10]>>[C:1]1([H:8])([H:10])[O:2][C:3]([H:11])([H:12])[C:4]1([O:5][H:9])[O:6][C:7]([H:13])([H:14])[H:15]"
C       -2.00634371       0.54608427      -0.17220569
O       -2.05778410      -0.79039144       0.38932748
C       -0.81122092      -0.94598798       0.93476998
C        0.17863276      -0.28792440      -0.01641646
O        0.14656746      -0.38680736      -1.31327681
O        1.32526597      -0.01685406       0.53900033
C        2.38130987       0.50263104      -0.28326484
H       -2.85499964       0.63812534      -0.85707567
H       -0.84099565       0.01803992      -1.39807057
H       -2.14088396       1.28897539       0.62437796
H       -0.69738115      -0.44889833       1.90997595
H       -0.54924328      -2.00732430       1.04903953
H        2.73268190      -0.26333937      -0.97183557
H        2.02485083       1.36706186      -0.84168592
H        3.16954361       0.78660941       0.40734029
15
Frame=3 idx=006393 GeodesicLength=0.24716160166931322 rxn_smarts="[C:1]([O:2][C:3]([C:4](=[O:5])[O:6][C:7]([H:13])([H:14])[H:15])([H:11])[H:12])([H:8])([H:9])[H:10]>>[C:1]1([H:8])([H:10])[O:2][C:3]([H:11])([H:12])[C:4]1([O:5][H:9])[O:6][C:7]([H:13])([H:14])[H:15]"
C       -1.98239280       0.54718629      -0.17674627
O       -2.06221922      -0.77787469       0.40351830
C       -0.81223326      -0.95497770       0.94145016
C        0.17484887      -0.30394455      -0.01658036
O        0.14418886      -0.41938249      -1.31194266
O        1.32309482      -0.02430878       0.54048058
C        2.36877843       0.51313151      -0.28093341
H       -2.83221921       0.64654988      -0.85894885
H       -0.85134957       0.01360280      -1.41196469
H       -2.10165844       1.30578373       0.60740165
H       -0.69130366      -0.46265995       1.91782582
H       -0.56444445      -2.01979636       1.04782006
H        2.72534473      -0.24181659      -0.97935146
H        2.00277372       1.38034863      -0.82942281
H        3.15879120       0.79815827       0.40739396
15
Frame=4 idx=006393 GeodesicLength=0.3296431784729333 rxn_smarts="[C:1]([O:2][C:3]([C:4](=[O:5])[O:6][C:7]([H:13])([H:14])[H:15])([H:11])[H:12])([H:8])([H:9])[H:10]>>[C:1]1([H:8])([H:10])[O:2][C:3]([H:11])([H:12])[C:4]1([O:5][H:9])[O:6][C:7]([H:13])([H:14])[H:15]"
C       -1.95871236       0.54770428      -0.18141151
O       -2.06607461      -0.76506752       0.41753346
C       -0.81314010      -0.96364427       0.94813573
C        0.17120024      -0.31954467      -0.01654573
O        0.14185067      -0.45107799      -1.31023774
O        1.32111985      -0.03152936       0.54206717
C        2.35625636       0.52330374      -0.27860423
H       -2.80975578       0.65420553      -0.86083269
H       -0.86164223       0.01013130      -1.42588536
H       -2.06267270       1.32147281       0.59002829
H       -0.68532780      -0.47609529       1.92563163
H       -0.57967344      -2.03170580       1.04677277
H        2.71717891      -0.22048465      -0.98709496
H        1.98094106       1.39344970      -0.81673005
H        3.14845192       0.80888218       0.40717322
15
Frame=5 idx=006393 GeodesicLength=0.41216135665055553 rxn_smarts="[C:1]([O:2][C:3]([C:4](=[O:5])[O:6][C:7]([H:13])([H:14])[H:15])([H:11])[H:12])([H:8])([H:9])[H:10]>>[C:1]1([H:8])([H:10])[O:2][C:3]([H:11])([H:12])[C:4]1([O:5][H:9])[O:6][C:7]([H:13])([H:14])[H:15]"
C       -1.93534071       0.54764402      -0.18618946
O       -2.06936088      -0.75200603       0.43137048
C       -0.81393459      -0.97199651       0.95481373
C        0.16767616      -0.33470130      -0.01632956
O        0.13955861      -0.48192154      -1.30819063
O        1.31931851      -0.03846245       0.54376012
C        2.34377933       0.53314614      -0.27627008
H       -2.78766521       0.66110256      -0.86269710
H       -0.87189861       0.00766880      -1.43984418
H       -2.02399880       1.33604877       0.57228253
H       -0.67945131      -0.48921903       1.93338858
H       -0.59489104      -2.04305635       1.04587071
H        2.70823213      -0.19940086      -0.99499540
H        1.95943013       1.40634073      -0.80365298
H        3.13854630       0.81881306       0.40668324
15
Frame=6 idx=006393 GeodesicLength=0.4947144389268591 rxn_smarts="[C:1]([O:2][C:3]([C:4](=[O:5])[O:6][C:7]([H:13])([H:14])[H:15])([H:11])[H:12])([H:8])([H:9])[H:10]>>[C:1]1([H:8])([H:10])[O:2][C:3]([H:11])([H:12])[C:4]1([O:5][H:9])[O:6][C:7]([H:13])([H:14])[H:15]"
C       -1.91229116       0.54702014      -0.19107389
O       -2.07209248      -0.73870965       0.44503316
C       -0.81461727      -0.98005071       0.96147742
C        0.16427180      -0.34942813      -0.01594850
O        0.13732260      -0.51197709      -1.30582647
O        1.31767682      -0.04509758       0.54555569
C        2.33136554       0.54267135      -0.27392503
H       -2.76597671       0.66727510      -0.86451621
H       -0.88213471       0.00623220      -1.45385403
H       -1.98566254       1.34953737       0.55417667
H       -0.67366810      -0.50204846       1.94109395
H       -0.61008819      -2.05386422       1.04510088
H        2.69855147      -0.17857873      -1.00300772
H        1.93827006       1.41901533      -0.79021483
H        3.12907286       0.82800309       0.40592890
15
Frame=7 idx=006393 GeodesicLength=0.5772997110326175 rxn_smarts="[C:1]([O:2][C:3]([C:4](=[O:5])[O:6][C:7]([H:13])([H:14])[H:15])([H:11])[H:12])([H:8])([H:9])[H:10]>>[C:1]1([H:8])([H:10])[O:2][C:3]([H:11])([H:12])[C:4]1([O:5][H:9])[O:6][C:7]([H:13])([H:14])[H:15]"
C       -1.88957833       0.54584479      -0.19605932
O       -2.07428281      -0.72519956       0.45852398
C       -0.81518841      -0.98782260       0.96812047
C        0.16098252      -0.36373519      -0.01541715
O        0.13515332      -0.54130208      -1.30316601
O        1.31618030      -0.05142038       0.54745207
C        2.31903352       0.55189009      -0.27156468
H       -2.74471964       0.67275399      -0.86626507
H       -0.89236566       0.00584573      -1.46792601
H       -1.94769326       1.36196087       0.53572262
H       -0.66797437      -0.51460018       1.94874561
H       -0.62525352      -2.06414502       1.04445089
H        2.68818339      -0.15803700      -1.01108641
H        1.91749337       1.43146552      -0.77644474
H        3.12002957       0.83650104       0.40491376
15
Frame=8 idx=006393 GeodesicLength=0.6599117155153151 rxn_smarts="[C:1]([O:2][C:3]([C:4](=[O:5])[O:6][C:7]([H:13])([H:14])[H:15])([H:11])[H:12])([H:8])([H:9])[H:10]>>[C:1]1([H:8])([H:10])[O:2][C:3]([H:11])([H:12])[C:4]1([O:5][H:9])[O:6][C:7]([H:13])([H:14])[H:15]"
C       -1.86721780       0.54412867      -0.20113916
O       -2.07595443      -0.71150044       0.47184697
C       -0.81565631      -0.99533054       0.97473974
C        0.15780463      -0.37763511      -0.01474954
O        0.13306492      -0.56995794      -1.30023199
O        1.31481852      -0.05741625       0.54944896
C        2.30680793       0.56081649      -0.26918808
H       -2.72392346       0.67756802      -0.86791886
H       -0.90260187       0.00653561      -1.48207483
H       -1.91012031       1.37334413       0.51693880
H       -0.66237573      -0.52688884       1.95634864
H       -0.64038767      -2.07392092       1.04391059
H        2.67718262      -0.13779191      -1.01919401
H        1.89713791       1.44368713      -0.76237791
H        3.11142106       0.84436190       0.40364070
15
Frame=9 idx=006393 GeodesicLength=0.7425594449594253 rxn_smarts="[C:1]([O:2][C:3]([C:4](=[O:5])[O:6][C:7]([H:13])([H:14])[H:15])([H:11])[H:12])([H:8])([H:9])[H:10]>>[C:1]1([H:8])([H:10])[O:2][C:3]([H:11])([H:12])[C:4]1([O:5][H:9])[O:6][C:7]([H:13])([H:14])[H:15]"
C       -1.84520829       0.54187995      -0.20631748
O       -2.07708471      -0.69761947       0.48498819
C       -0.81599845      -1.00258028       0.98132317
C        0.15473182      -0.39113719      -0.01395075
O        0.13105554      -0.59798728      -1.29701479
O        1.31356536      -0.06308306       0.55154671
C        2.29467714       0.56944873      -0.26678728
H       -2.70359496       0.68175256      -0.86946147
H       -0.91286228       0.00835431      -1.49628760
H       -1.87296516       1.38368379       0.49781445
H       -0.65684484      -0.53893307       1.96387914
H       -0.65544766      -2.08318280       1.04347182
H        2.66556845      -0.11787183      -1.02727138
H        1.87720119       1.45565984      -0.74804289
H        3.10320686       0.85161580       0.40211017
15
Frame=10 idx=006393 GeodesicLength=0.8253315520885199 rxn_smarts="[C:1]([O:2][C:3]([C:4](=[O:5])[O:6][C:7]([H:13])([H:14])[H:15])([H:11])[H:12])([H:8])([H:9])[H:10]>>[C:1]1([H:8])([H:10])[O:2][C:3]([H:11])([H:12])[C:4]1([O:5][H:9])[O:6][C:7]([H:13])([H:14])[H:15]"
C       -1.82323746       0.53920908      -0.21165526
O       -2.07772150      -0.68333339       0.49803935
C       -0.81631929      -1.00966952       0.98794695
C        0.15183405      -0.40470215      -0.01304117
O        0.12919011      -0.62593021      -1.29354264
O        1.31255224      -0.06892273       0.55367367
C        2.28243057       0.57797687      -0.26435619
H       -2.68341423       0.68561858      -0.87092431
H       -0.92304205       0.01095835      -1.51063009
H       -1.83561497       1.39321512       0.47819946
H       -0.65132979      -0.55077625       1.97138648
H       -0.67083954      -2.09208412       1.04328758
H        2.65325030      -0.09767966      -1.03562879
H        1.85708825       1.46758631      -0.73306264
H        3.09517331       0.85853370       0.40030760
15
Frame=11 idx=006393 GeodesicLength=0.9083174720357096 rxn_smarts="[C:1]([O:2][C:3]([C:4](=[O:5])[O:6][C:7]([H:13])([H:14])[H:15])([H:11])[H:12])([H:8])([H:9])[H:10]>>[C:1]1([H:8])([H:10])[O:2][C:3]([H:11])([H:12])[C:4]1([O:5][H:9])[O:6][C:7]([H:13])([H:14])[H:15]"
C       -1.80100052       0.53619276      -0.21721701
O       -2.07781268      -0.66842038       0.51105523
C       -0.81667094      -1.01665056       0.99466641
C        0.14916204      -0.41871460      -0.01202182
O        0.12750122      -0.65423714      -1.28979790
O        1.31186913      -0.07537318       0.55576584
C        2.26982378       0.58653653      -0.26187812
H       -2.66305016       0.68942798      -0.87235086
H       -0.93302775       0.01411703      -1.52513307
H       -1.79751488       1.40206027       0.45793495
H       -0.64575251      -0.56245390       1.97888920
H       -0.68687008      -2.10067953       1.04347429
H        2.64004811      -0.07670193      -1.04450420
H        1.83621711       1.47958653      -0.71707382
H        3.08707813       0.86531015       0.39819088
15
Frame=12 idx=006393 GeodesicLength=0.9914212582588536 rxn_smarts="[C:1]([O:2][C:3]([C:4](=[O:5])[O:6][C:7]([H:13])([H:14])[H:15])([H:11])[H:12])([H:8])([H:9])[H:10]>>[C:1]1([H:8])([H:10])[O:2][C:3]([H:11])([H:12])[C:4]1([O:5][H:9])[O:6][C:7]([H:13])([H:14])[H:15]"
C       -1.77887156       0.53270158      -0.22293888
O       -2.07734933      -0.65316572       0.52393564
C       -0.81695764      -1.02344506       1.00139927
C        0.14664831      -0.43266448      -0.01089314
O        0.12597706      -0.68240471      -1.28578631
O        1.31138393      -0.08182960       0.55790021
C        2.25712721       0.59494204      -0.25935414
H       -2.64290506       0.69286868      -0.87366601
H       -0.94296996       0.01823989      -1.53976828
H       -1.75937945       1.40998970       0.43719260
H       -0.64019463      -0.57392228       1.98635280
H       -0.70310018      -2.10884742       1.04386921
H        2.62606210      -0.05559485      -1.05352960
H        1.81532836       1.49144058      -0.70048050
H        3.07920084       0.87169165       0.39576714
15
Frame=13 idx=006393 GeodesicLength=1.074767098429994 rxn_smarts="[C:1]([O:2][C:3]([C:4](=[O:5])[O:6][C:7]([H:13])([H:14])[H:15])([H:11])[H:12])([H:8])([H:9])[H:10]>>[C:1]1([H:8])([H:10])[O:2][C:3]([H:11])([H:12])[C:4]1([O:5][H:9])[O:6][C:7]([H:13])([H:14])[H:15]"
C       -1.75654942       0.52881122      -0.22889315
O       -2.07630124      -0.63734127       0.53673194
C       -0.81725309      -1.03011766       1.00821844
C        0.14434924      -0.44696752      -0.00965410
O        0.12465638      -0.71092117      -1.28149099
O        1.31121931      -0.08876444       0.56000652
C        2.24411045       0.60334534      -0.25677312
H       -2.62265155       0.69622376      -0.87492280
H       -0.95274366       0.02309855      -1.55458663
H       -1.72064213       1.41712668       0.41580498
H       -0.63459166      -0.58521380       1.99381297
H       -0.71987715      -2.11666379       1.04463089
H        2.61110318      -0.03379379      -1.06297989
H        1.79383051       1.50329967      -0.68288082
H        3.07134084       0.87787823       0.39297576
15
Frame=14 idx=006393 GeodesicLength=1.1584886707367859 rxn_smarts="[C:1]([O:2][C:3]([C:4](=[O:5])[O:6][C:7]([H:13])([H:14])[H:15])([H:11])[H:12])([H:8])([H:9])[H:10]>>[C:1]1([H:8])([H:10])[O:2][C:3]([H:11])([H:12])[C:4]1([O:5][H:9])[O:6][C:7]([H:13])([H:14])[H:15]"
C       -1.73373588       0.52456839      -0.23514945
O       -2.07459574      -0.62073599       0.54948468
C       -0.81760121      -1.03670968       1.01516846
C        0.14231872      -0.46195131      -0.00829827
O        0.12357468      -0.74017150      -1.27688348
O        1.31146841      -0.09653010       0.56202288
C        2.23052405       0.61185900      -0.25411200
H       -2.60196488       0.69971617      -0.87615829
H       -0.96225114       0.02849565      -1.56961138
H       -1.68074246       1.42354803       0.39360531
H       -0.62887433      -0.59635471       2.00128257
H       -0.73747775      -2.12416641       1.04585205
H        2.59488830      -0.01083228      -1.07305518
H        1.77119058       1.51522886      -0.66389935
H        3.06327866       0.88403588       0.38975147
15
Frame=15 idx=006393 GeodesicLength=1.2424988734329696 rxn_smarts="[C:1]([O:2][C:3]([C:4](=[O:5])[O:6][C:7]([H:13])([H:14])[H:15])([H:11])[H:12])([H:8])([H:9])[H:10]>>[C:1]1([H:8])([H:10])[O:2][C:3]([H:11])([H:12])[C:4]1([O:5][H:9])[O:6][C:7]([H:13])([H:14])[H:15]"
C       -1.71076335       0.51985960      -0.24165711
O       -2.07222163      -0.60359625       0.56210298
C       -0.81792601      -1.04315666       1.02218816
C        0.14049592      -0.47720431      -0.00682629
O        0.12272594      -0.76976745      -1.27196264
O        1.31202168      -0.10464265       0.56401061
C        2.21660928       0.62032924      -0.25137710
H       -2.58119590       0.70309466      -0.87731240
H       -0.97158717       0.03484006      -1.58483210
H       -1.64032200       1.42904050       0.37074880
H       -0.62311755      -0.60730600       2.00874218
H       -0.75553655      -2.13124537       1.04741343
H        2.57752715       0.01274184      -1.08343706
H        1.74803883       1.52703974      -0.64388858
H        3.05525134       0.88997304       0.38608714
15
Frame=16 idx=006393 GeodesicLength=1.326719732965259 rxn_smarts="[C:1]([O:2][C:3]([C:4](=[O:5])[O:6][C:7]([H:13])([H:14])[H:15])([H:11])[H:12])([H:8])([H:9])[H:10]>>[C:1]1([H:8])([H:10])[O:2][C:3]([H:11])([H:12])[C:4]1([O:5][H:9])[O:6][C:7]([H:13])([H:14])[H:15]"
C       -1.68788129       0.51460420      -0.24837623
O       -2.06918738      -0.58614013       0.57451400
C       -0.81817441      -1.04942081       1.02922797
C        0.13883164      -0.49242648      -0.00523851
O        0.12210657      -0.79943298      -1.26672182
O        1.31278120      -0.11273625       0.56602328
C        2.20255487       0.62864373      -0.24857977
H       -2.56061369       0.70617512      -0.87832894
H       -0.98082136       0.04248774      -1.60022231
H       -1.59987456       1.43346406       0.34736571
H       -0.61738774      -0.61803612       2.01616931
H       -0.77376712      -2.13783423       1.04921821
H        2.55915907       0.03648370      -1.09386252
H        1.72485850       1.53858615      -0.62317240
H        3.04741569       0.89558228       0.38198403
