16
Frame=0 idx=006973 GeodesicLength=0.0 rxn_smarts="[C:1]([C:2]([C@@:3]([O:4][H:14])([C:5]([C:6]#[N:7])([H:15])[H:16])[H:13])([H:11])[H:12])([H:8])([H:9])[H:10]>>[C:1]([H:8])([H:9])([H:10])[H:14].[C:2]([C:3](=[O:4])[H:13])([C:5]([C:6]#[N:7])([H:15])[H:16])([H:11])[H:12]"
C        2.22775159      -0.74035996       0.17249993
C        0.14463641      -0.04894123       0.63328807
C       -0.30979385       0.11011732      -0.75989789
O       -0.08811264      -0.92179724      -1.51382413
C       -1.89032603       0.27078002      -0.41305712
C       -2.25402464       1.42923170       0.38894377
N       -2.48961703       2.34982522       1.03311345
H        2.92982496      -0.14835022      -0.41344039
H        2.11154205      -0.21132920       1.12704396
H        2.62733546      -1.72082315       0.43157747
H        0.27098361       0.80009094       1.30258998
H       -0.05278092      -1.01259865       1.09283468
H       -0.01745361       1.11186130      -1.14137848
H        1.38107148      -0.97773176      -0.56269609
H       -2.26842040      -0.65010412       0.03111369
H       -2.32261637       0.36012903      -1.40871087
16
Frame=1 idx=006973 GeodesicLength=0.1097047830118481 rxn_smarts="[C:1]([C:2]([C@@:3]([O:4][H:14])([C:5]([C:6]#[N:7])([H:15])[H:16])[H:13])([H:11])[H:12])([H:8])([H:9])[H:10]>>[C:1]([H:8])([H:9])([H:10])[H:14].[C:2]([C:3](=[O:4])[H:13])([C:5]([C:6]#[N:7])([H:15])[H:16])([H:11])[H:12]"
C        2.22385126      -0.74350391       0.18701149
C        0.13835363      -0.03581871       0.61837331
C       -0.30095931       0.10987326      -0.78299923
O       -0.06846853      -0.92993125      -1.52315321
C       -1.88621846       0.27409974      -0.40052466
C       -2.26016901       1.42623222       0.40621268
N       -2.50322714       2.34061287       1.05634334
H        2.92075021      -0.13385441      -0.38738919
H        2.11774092      -0.23878243       1.15545943
H        2.63396983      -1.72481301       0.42597505
H        0.27723220       0.82785646       1.26588622
H       -0.06596012      -0.99274047       1.08915349
H       -0.01531014       1.10897267      -1.17462395
H        1.38251483      -1.00430395      -0.58005802
H       -2.26402759      -0.65079228       0.03568747
H       -2.33007257       0.36689321      -1.39135421
16
Frame=2 idx=006973 GeodesicLength=0.21928032042806406 rxn_smarts="[C:1]([C:2]([C@@:3]([O:4][H:14])([C:5]([C:6]#[N:7])([H:15])[H:16])[H:13])([H:11])[H:12])([H:8])([H:9])[H:10]>>[C:1]([H:8])([H:9])([H:10])[H:14].[C:2]([C:3](=[O:4])[H:13])([C:5]([C:6]#[N:7])([H:15])[H:16])([H:11])[H:12]"
C        2.21962695      -0.74593250       0.20189884
C        0.13173186      -0.02349123       0.60341647
C       -0.29257134       0.10833257      -0.80588346
O       -0.04890166      -0.93917587      -1.53196053
C       -1.88210633       0.27802703      -0.38815534
C       -2.26569650       1.42348651       0.42396658
N       -2.51571975       2.33161789       1.08015200
H        2.91051333      -0.11881810      -0.36135801
H        2.12337325      -0.26524864       1.18323039
H        2.64140595      -1.72707200       0.42085224
H        0.28308994       0.85397074       1.22901666
H       -0.07889615      -0.97372356       1.08514684
H       -0.01305718       1.10435192      -1.20806461
H        1.38461325      -1.03076552      -0.59764783
H       -2.26059618      -0.65064906       0.03963441
H       -2.33680943       0.37508983      -1.37424463
16
Frame=3 idx=006973 GeodesicLength=0.3287598970645682 rxn_smarts="[C:1]([C:2]([C@@:3]([O:4][H:14])([C:5]([C:6]#[N:7])([H:15])[H:16])[H:13])([H:11])[H:12])([H:8])([H:9])[H:10]>>[C:1]([H:8])([H:9])([H:10])[H:14].[C:2]([C:3](=[O:4])[H:13])([C:5]([C:6]#[N:7])([H:15])[H:16])([H:11])[H:12]"
C        2.21509810      -0.74769582       0.21716373
C        0.12478302      -0.01191747       0.58841236
C       -0.28461885       0.10551911      -0.82854722
O       -0.02938556      -0.94947642      -1.54024869
C       -1.87801320       0.28256166      -0.37595924
C       -2.27065494       1.42097657       0.44220976
N       -2.52720425       2.32276381       1.10457695
H        2.89915971      -0.10334654      -0.33538670
H        2.12864983      -0.29070202       1.21039099
H        2.64954705      -1.72765979       0.41620639
H        0.28850208       0.87850532       1.19200277
H       -0.09162333      -0.95550141       1.08084338
H       -0.01073087       1.09803284      -1.24166993
H        1.38743045      -1.05714323      -0.61551039
H       -2.25810645      -0.64968449       0.04292257
H       -2.34283278       0.38476786      -1.35740673
16
Frame=4 idx=006973 GeodesicLength=0.4381895641784669 rxn_smarts="[C:1]([C:2]([C@@:3]([O:4][H:14])([C:5]([C:6]#[N:7])([H:15])[H:16])[H:13])([H:11])[H:12])([H:8])([H:9])[H:10]>>[C:1]([H:8])([H:9])([H:10])[H:14].[C:2]([C:3](=[O:4])[H:13])([C:5]([C:6]#[N:7])([H:15])[H:16])([H:11])[H:12]"
C        2.21027759      -0.74883452       0.23281634
C        0.11752079      -0.00105584       0.57335143
C       -0.27709108       0.10145330      -0.85099035
O       -0.00989778      -0.96078685      -1.54801691
C       -1.87395975       0.28770167      -0.36394378
C       -2.27508402       1.41868293       0.46094415
N       -2.53778427       2.31397976       1.12965414
H        2.88672449      -0.08752616      -0.30949392
H        2.13376282      -0.31515070       1.23699812
H        2.65830172      -1.72662931       0.41201199
H        0.29343077       0.90153902       1.15484602
H       -0.10417602      -0.93801953       1.07627060
H       -0.00837230       1.09004556      -1.27541868
H        1.39102923      -1.08346445      -0.63369568
H       -2.25653607      -0.64790585       0.04552595
H       -2.34814610       0.39597096      -1.34085943
16
Frame=5 idx=006973 GeodesicLength=0.5476228547129389 rxn_smarts="[C:1]([C:2]([C@@:3]([O:4][H:14])([C:5]([C:6]#[N:7])([H:15])[H:16])[H:13])([H:11])[H:12])([H:8])([H:9])[H:10]>>[C:1]([H:8])([H:9])([H:10])[H:14].[C:2]([C:3](=[O:4])[H:13])([C:5]([C:6]#[N:7])([H:15])[H:16])([H:11])[H:12]"
C        2.20516797      -0.74938005       0.24887745
C        0.10995921       0.00912484       0.55822842
C       -0.26997865       0.09615263      -0.87320632
O        0.00958052      -0.97306174      -1.55526392
C       -1.86995980       0.29343959      -0.35211019
C       -2.27901319       1.41658423       0.48017079
N       -2.54753978       2.30521161       1.15539056
H        2.87322448      -0.07141940      -0.28370418
H        2.13888215      -0.33859813       1.26311426
H        2.66756928      -1.72402670       0.40822963
H        0.29784145       0.92313280       1.11756166
H       -0.11658297      -0.92123861       1.07145159
H       -0.00601461       1.08041439      -1.30928405
H        1.39546819      -1.10975153      -0.65226554
H       -2.25586450      -0.64531674       0.04742326
H       -2.35273973       0.40873281      -1.32461342
16
Frame=6 idx=006973 GeodesicLength=0.6570690193727038 rxn_smarts="[C:1]([C:2]([C@@:3]([O:4][H:14])([C:5]([C:6]#[N:7])([H:15])[H:16])[H:13])([H:11])[H:12])([H:8])([H:9])[H:10]>>[C:1]([H:8])([H:9])([H:10])[H:14].[C:2]([C:3](=[O:4])[H:13])([C:5]([C:6]#[N:7])([H:15])[H:16])([H:11])[H:12]"
C        2.19977037      -0.74937690       0.26535295
C        0.10211206       0.01866497       0.54304198
C       -0.26327162       0.08963799      -0.89518425
O        0.02907331      -0.98625573      -1.56197323
C       -1.86602502       0.29977279      -0.34045761
C       -2.28246624       1.41465910       0.49989467
N       -2.55661530       2.29639795       1.18179029
H        2.85869479      -0.05510994      -0.25805163
H        2.14418532      -0.36106988       1.28879990
H        2.67724952      -1.71990342       0.40482597
H        0.30172247       0.94335905       1.08014824
H       -0.12887570      -0.90510110       1.06641633
H       -0.00370289       1.06916696      -1.34323712
H        1.40081761      -1.13602129      -0.67127719
H       -2.25607103      -0.64191501       0.04858925
H       -2.35659764       0.42309446      -1.30867853
16
Frame=7 idx=006973 GeodesicLength=0.7665618478241731 rxn_smarts="[C:1]([C:2]([C@@:3]([O:4][H:14])([C:5]([C:6]#[N:7])([H:15])[H:16])[H:13])([H:11])[H:12])([H:8])([H:9])[H:10]>>[C:1]([H:8])([H:9])([H:10])[H:14].[C:2]([C:3](=[O:4])[H:13])([C:5]([C:6]#[N:7])([H:15])[H:16])([H:11])[H:12]"
C        2.19407798      -0.74885406       0.28226350
C        0.09398879       0.02759018       0.52778827
C       -0.25696258       0.08192503      -0.91691549
O        0.04859867      -1.00032695      -1.56813744
C       -1.86216940       0.30669617      -0.32898455
C       -2.28546169       1.41288621       0.52011538
N       -2.56508771       2.28748855       1.20883981
H        2.84315743      -0.03865616      -0.23255378
H        2.14982499      -0.38258618       1.31411562
H        2.68723746      -1.71429453       0.40176430
H        0.30505892       0.96227266       1.04261289
H       -0.14108664      -0.88957054       1.06118377
H       -0.00148210       1.05632983      -1.37725042
H        1.40714315      -1.16228237      -0.69080035
H       -2.25713680      -0.63769916       0.04900919
H       -2.35970050       0.43908131      -1.29305069
16
Frame=8 idx=006973 GeodesicLength=0.8760956285210175 rxn_smarts="[C:1]([C:2]([C@@:3]([O:4][H:14])([C:5]([C:6]#[N:7])([H:15])[H:16])[H:13])([H:11])[H:12])([H:8])([H:9])[H:10]>>[C:1]([H:8])([H:9])([H:10])[H:14].[C:2]([C:3](=[O:4])[H:13])([C:5]([C:6]#[N:7])([H:15])[H:16])([H:11])[H:12]"
C        2.18807968      -0.74785066       0.29962269
C        0.08560310       0.03592526       0.51247406
C       -0.25104894       0.07303002      -0.93837714
O        0.06817225      -1.01523413      -1.57373287
C       -1.85838645       0.31420791      -0.31767644
C       -2.28800077       1.41124450       0.54083928
N       -2.57314242       2.27844735       1.23649131
H        2.82662410      -0.02212456      -0.20723988
H        2.15596879      -0.40317486       1.33910961
H        2.69742470      -1.70725299       0.39898573
H        0.30785334       0.97992564       1.00496052
H       -0.15324058      -0.87460722       1.05578315
H        0.00060068       1.04192250      -1.41128393
H        1.41452220      -1.18853971      -0.71090822
H       -2.25903708      -0.63264720       0.04866859
H       -2.36199260       0.45672815      -1.27771647
16
Frame=9 idx=006973 GeodesicLength=0.9851776376342162 rxn_smarts="[C:1]([C:2]([C@@:3]([O:4][H:14])([C:5]([C:6]#[N:7])([H:15])[H:16])[H:13])([H:11])[H:12])([H:8])([H:9])[H:10]>>[C:1]([H:8])([H:9])([H:10])[H:14].[C:2]([C:3](=[O:4])[H:13])([C:5]([C:6]#[N:7])([H:15])[H:16])([H:11])[H:12]"
C        2.18169138      -0.74640155       0.31734195
C        0.07693361       0.04368564       0.49716124
C       -0.24553793       0.06295920      -0.95949744
O        0.08788554      -1.03094533      -1.57867344
C       -1.85464669       0.32228262      -0.30655016
C       -2.29010619       1.40967423       0.56200740
N       -2.58086396       2.26928163       1.26469624
H        2.80907924      -0.00562631      -0.18220727
H        2.16267895      -0.42278275       1.36367264
H        2.70764993      -1.69890683       0.39640225
H        0.31008566       0.99636459       0.96727915
H       -0.16536044      -0.86019380       1.05029510
H        0.00253083       1.02597389      -1.44521344
H        1.42301931      -1.21460570      -0.73157217
H       -2.26172662      -0.62674853       0.04751768
H       -2.36331261       0.47598902      -1.26265971
16
Frame=10 idx=006973 GeodesicLength=1.0943323897087684 rxn_smarts="[C:1]([C:2]([C@@:3]([O:4][H:14])([C:5]([C:6]#[N:7])([H:15])[H:16])[H:13])([H:11])[H:12])([H:8])([H:9])[H:10]>>[C:1]([H:8])([H:9])([H:10])[H:14].[C:2]([C:3](=[O:4])[H:13])([C:5]([C:6]#[N:7])([H:15])[H:16])([H:11])[H:12]"
C        2.17497448      -0.74453467       0.33554396
C        0.06800706       0.05088755       0.48180532
C       -0.24041479       0.05172715      -0.98029974
O        0.10769200      -1.04740956      -1.58299180
C       -1.85099550       0.33092511      -0.29556751
C       -2.29176450       1.40820862       0.58365615
N       -2.58838022       2.25991469       1.29341851
H        2.79057612       0.01083885      -0.15737452
H        2.17019604      -0.44151406       1.38795312
H        2.71785313      -1.68919883       0.39400677
H        0.31177408       1.01162605       0.92950392
H       -0.17749253      -0.84629054       1.04468861
H        0.00424117       1.00848322      -1.47908285
H        1.43270926      -1.24062630      -0.75297363
H       -2.26523582      -0.61998508       0.04558822
H       -2.36373997       0.49694780      -1.24787451
16
Frame=11 idx=006973 GeodesicLength=1.2035838392423424 rxn_smarts="[C:1]([C:2]([C@@:3]([O:4][H:14])([C:5]([C:6]#[N:7])([H:15])[H:16])[H:13])([H:11])[H:12])([H:8])([H:9])[H:10]>>[C:1]([H:8])([H:9])([H:10])[H:14].[C:2]([C:3](=[O:4])[H:13])([C:5]([C:6]#[N:7])([H:15])[H:16])([H:11])[H:12]"
C        2.16791379      -0.74225786       0.35425150
C        0.05882687       0.05753370       0.46642078
C       -0.23566729       0.03934111      -1.00075499
O        0.12761286      -1.06458600      -1.58666188
C       -1.84743601       0.34012652      -0.28471680
C       -2.29297104       1.40684194       0.60576655
N       -2.59578062       2.25029664       1.32261378
H        2.77113015       0.02722094      -0.13276613
H        2.17865640      -0.45934049       1.41196061
H        2.72790089      -1.67816621       0.39175491
H        0.31292004       1.02572880       0.89165909
H       -0.18966558      -0.83288685       1.03898116
H        0.00570852       0.98946444      -1.51284174
H        1.44364690      -1.26660854      -0.77518759
H       -2.26956681      -0.61233829       0.04286757
H       -2.36322907       0.51963015      -1.23334682
16
Frame=12 idx=006973 GeodesicLength=1.3129498255797434 rxn_smarts="[C:1]([C:2]([C@@:3]([O:4][H:14])([C:5]([C:6]#[N:7])([H:15])[H:16])[H:13])([H:11])[H:12])([H:8])([H:9])[H:10]>>[C:1]([H:8])([H:9])([H:10])[H:14].[C:2]([C:3](=[O:4])[H:13])([C:5]([C:6]#[N:7])([H:15])[H:16])([H:11])[H:12]"
C        2.16049223      -0.73959266       0.37349420
C        0.04939313       0.06362270       0.45102343
C       -0.23129122       0.02580235      -1.02083145
O        0.14766354      -1.08244106      -1.58965226
C       -1.84396436       0.34988152      -0.27398369
C       -2.29370870       1.40557365       0.62831740
N       -2.60319131       2.24038793       1.35222922
H        2.75074413       0.04347594      -0.10838849
H        2.18821358      -0.47625567       1.43569580
H        2.73765538      -1.66583613       0.38959816
H        0.31353290       1.03868886       0.85376120
H       -0.20191422      -0.81997091       1.03319367
H        0.00689575       0.96891975      -1.54644346
H        1.45590332      -1.29253994      -0.79831338
H       -2.27471745      -0.60377478       0.03935126
H       -2.36170671       0.54405844      -1.21905160
16
Frame=13 idx=006973 GeodesicLength=1.4224085928951535 rxn_smarts="[C:1]([C:2]([C@@:3]([O:4][H:14])([C:5]([C:6]#[N:7])([H:15])[H:16])[H:13])([H:11])[H:12])([H:8])([H:9])[H:10]>>[C:1]([H:8])([H:9])([H:10])[H:14].[C:2]([C:3](=[O:4])[H:13])([C:5]([C:6]#[N:7])([H:15])[H:16])([H:11])[H:12]"
C        2.15268885      -0.73656280       0.39329983
C        0.03970177       0.06915267       0.43563317
C       -0.22728046       0.01112019      -1.04049651
O        0.16787980      -1.10092305      -1.59193397
C       -1.84058201       0.36016945      -0.26334674
C       -2.29397270       1.40439680       0.65128426
N       -2.61069776       2.23017802       1.38217834
H        2.72943008       0.05954786      -0.08425221
H        2.19900649      -0.49224240       1.45914747
H        2.74696743      -1.65226165       0.38749037
H        0.31361885       1.05051585       0.81584916
H       -0.21427153      -0.80754207       1.02734462
H        0.00776148       0.94686834      -1.57983475
H        1.46955269      -1.31836716      -0.82245097
H       -2.28068460      -0.59427221       0.03504261
H       -2.35911837       0.57022216      -1.20495468
16
Frame=14 idx=006973 GeodesicLength=1.5319293177982367 rxn_smarts="[C:1]([C:2]([C@@:3]([O:4][H:14])([C:5]([C:6]#[N:7])([H:15])[H:16])[H:13])([H:11])[H:12])([H:8])([H:9])[H:10]>>[C:1]([H:8])([H:9])([H:10])[H:14].[C:2]([C:3](=[O:4])[H:13])([C:5]([C:6]#[N:7])([H:15])[H:16])([H:11])[H:12]"
C        2.14448754      -0.73319904       0.41369338
C        0.02975722       0.07412337       0.42027974
C       -0.22362859      -0.00469684      -1.05970247
O        0.18829003      -1.11998235      -1.59346458
C       -1.83727540       0.37098415      -0.25278060
C       -2.29373301       1.40332450       0.67464284
N       -2.61852295       2.21965074       1.41235985
H        2.70720413       0.07536970      -0.06037885
H        2.21119620      -0.50728783       1.48228380
H        2.75567890      -1.63751508       0.38537384
H        0.31320555       1.06121660       0.77795372
H       -0.22676460      -0.79559366       1.02146207
H        0.00826320       0.92332202      -1.61295186
H        1.48467255      -1.34404598      -0.84771211
H       -2.28745537      -0.58378799       0.02995671
H       -2.35537538       0.59811770      -1.19101547
16
Frame=15 idx=006973 GeodesicLength=1.6414748525429934 rxn_smarts="[C:1]([C:2]([C@@:3]([O:4][H:14])([C:5]([C:6]#[N:7])([H:15])[H:16])[H:13])([H:11])[H:12])([H:8])([H:9])[H:10]>>[C:1]([H:8])([H:9])([H:10])[H:14].[C:2]([C:3](=[O:4])[H:13])([C:5]([C:6]#[N:7])([H:15])[H:16])([H:11])[H:12]"
C        2.13586942      -0.72953304       0.43471191
C        0.01955938       0.07852792       0.40499359
C       -0.22032852      -0.02163982      -1.07840414
O        0.20893534      -1.13956037      -1.59421191
C       -1.83403588       0.38230668      -0.24225378
C       -2.29296938       1.40236456       0.69836615
N       -2.62683973       2.20882343       1.44264105
H        2.68408064       0.09087408      -0.03677603
H        2.22493699      -0.52137727       1.50506129
H        2.76361849      -1.62167862       0.38319151
H        0.31231482       1.07079030       0.74012547
H       -0.23942294      -0.78413118       1.01557158
H        0.00835249       0.89829981      -1.64573207
H        1.50134611      -1.36949001      -0.87422613
H       -2.29501683      -0.57228758       0.02412132
H       -2.35040039       0.62771111      -1.17717983
16
Frame=16 idx=006973 GeodesicLength=1.7509748992748644 rxn_smarts="[C:1]([C:2]([C@@:3]([O:4][H:14])([C:5]([C:6]#[N:7])([H:15])[H:16])[H:13])([H:11])[H:12])([H:8])([H:9])[H:10]>>[C:1]([H:8])([H:9])([H:10])[H:14].[C:2]([C:3](=[O:4])[H:13])([C:5]([C:6]#[N:7])([H:15])[H:16])([H:11])[H:12]"
C        2.12681735      -0.72560341       0.45638879
C        0.00910945       0.08236101       0.38981065
C       -0.21737298      -0.03970110      -1.09654941
O        0.22986371      -1.15959679      -1.59413231
C       -1.83084995       0.39411996      -0.23173355
C       -2.29165824       1.40153166       0.72242341
N       -2.63587003       2.19771838       1.47288532
H        2.66007687       0.10598620      -0.01345520
H        2.24038725      -0.53449302       1.52741065
H        2.77061744      -1.60485798       0.38088714
H        0.31097618       1.07923452       0.70241137
H       -0.25227382      -0.77315650       1.00970447
H        0.00797398       0.87181664      -1.67810885
H        1.51965662      -1.39459851      -0.90211983
H       -2.30335322      -0.55972910       0.01756590
H       -2.34410060       0.65896804      -1.16338854
