14
Frame=0 idx=005226 GeodesicLength=0.0 rxn_smarts="[C:1]([N:2]([C@@:3]([C:4]([H:12])([H:13])[H:14])([C:5]#[N:6])[H:11])[H:10])([H:7])([H:8])[H:9]>>[C:1]([N:2]([C@@:3]([C:4]([H:12])([H:13])[H:14])([N+:6]#[C-:5])[H:11])[H:10])([H:7])([H:8])[H:9]"
C        1.94993277       0.01996770       0.34440036
N        0.59464323      -0.48698683       0.44476619
C       -0.30762634      -0.23260745      -0.45743996
C       -1.70331150      -0.71460142      -0.31852757
C       -0.34551030       2.12105251      -0.38648098
N       -1.20766515       2.03555847       0.39643800
H        2.33158860      -0.15504944      -0.65961949
H        2.58284844      -0.49465244       1.06364768
H        1.93574451       1.09757956       0.53277247
H        0.25812555      -0.69935333       1.37252481
H        0.05806492       0.03740942      -1.43797081
H       -2.37196079      -0.07229228      -0.88315882
H       -1.74862345      -1.72797521      -0.73179053
H       -2.02625051      -0.72804924       0.72043862
14
Frame=1 idx=005226 GeodesicLength=0.07287525327895623 rxn_smarts="[C:1]([N:2]([C@@:3]([C:4]([H:12])([H:13])[H:14])([C:5]#[N:6])[H:11])[H:10])([H:7])([H:8])[H:9]>>[C:1]([N:2]([C@@:3]([C:4]([H:12])([H:13])[H:14])([N+:6]#[C-:5])[H:11])[H:10])([H:7])([H:8])[H:9]"
C        1.94781703       0.02092128       0.34639591
N        0.59395617      -0.49065495       0.44420873
C       -0.31728698      -0.20240709      -0.45004178
C       -1.70651895      -0.71169821      -0.31943342
C       -0.34768854       2.11765295      -0.40635222
N       -1.17882275       2.01771103       0.40572033
H        2.32859899      -0.14728923      -0.65948898
H        2.58295745      -0.49832506       1.06061813
H        1.93745246       1.09741349       0.54270934
H        0.25791497      -0.69582687       1.37390236
H        0.05299185       0.03096028      -1.43926597
H       -2.38434429      -0.08097436      -0.88673880
H       -1.73332817      -1.72614085      -0.73068093
H       -2.03369923      -0.73134242       0.71844731
14
Frame=2 idx=005226 GeodesicLength=0.14547060879183124 rxn_smarts="[C:1]([N:2]([C@@:3]([C:4]([H:12])([H:13])[H:14])([C:5]#[N:6])[H:11])[H:10])([H:7])([H:8])[H:9]>>[C:1]([N:2]([C@@:3]([C:4]([H:12])([H:13])[H:14])([N+:6]#[C-:5])[H:11])[H:10])([H:7])([H:8])[H:9]"
C        1.94536105       0.02178024       0.34820276
N        0.59316018      -0.49429269       0.44327141
C       -0.32627749      -0.17376995      -0.44302057
C       -1.70898089      -0.70859430      -0.32036807
C       -0.35093830       2.11378652      -0.42477223
N       -1.15041150       2.00035139       0.41446927
H        2.32544932      -0.13992339      -0.65918607
H        2.58252870      -0.50178841       1.05751764
H        1.93862095       1.09713782       0.55204980
H        0.25784828      -0.69252117       1.37468593
H        0.04744436       0.02476113      -1.43946224
H       -2.39512630      -0.08937950      -0.89068679
H       -1.71823656      -1.72401801      -0.72886741
H       -2.04044180      -0.73352967       0.71616656
14
Frame=3 idx=005226 GeodesicLength=0.21823256281866302 rxn_smarts="[C:1]([N:2]([C@@:3]([C:4]([H:12])([H:13])[H:14])([C:5]#[N:6])[H:11])[H:10])([H:7])([H:8])[H:9]>>[C:1]([N:2]([C@@:3]([C:4]([H:12])([H:13])[H:14])([N+:6]#[C-:5])[H:11])[H:10])([H:7])([H:8])[H:9]"
C        1.94316350       0.02263918       0.34992530
N        0.59239292      -0.49786849       0.44216674
C       -0.33477098      -0.14656876      -0.43651630
C       -1.71133524      -0.70544021      -0.32142896
C       -0.35505622       2.10959060      -0.44187358
N       -1.12262566       1.98335649       0.42286256
H        2.32278040      -0.13285866      -0.65892923
H        2.58230707      -0.50495740       1.05468446
H        1.94001356       1.09688697       0.56090966
H        0.25790934      -0.68937951       1.37538579
H        0.04157572       0.01899120      -1.43914855
H       -2.40515430      -0.09769523      -0.89527777
H       -1.70400941      -1.72180228      -0.72660049
H       -2.04719070      -0.73489388       0.71384037
14
Frame=4 idx=005226 GeodesicLength=0.2909029378802629 rxn_smarts="[C:1]([N:2]([C@@:3]([C:4]([H:12])([H:13])[H:14])([C:5]#[N:6])[H:11])[H:10])([H:7])([H:8])[H:9]>>[C:1]([N:2]([C@@:3]([C:4]([H:12])([H:13])[H:14])([N+:6]#[C-:5])[H:11])[H:10])([H:7])([H:8])[H:9]"
C        1.94091532       0.02341117       0.35149433
N        0.59157273      -0.50137545       0.44088430
C       -0.34276364      -0.12065313      -0.43041909
C       -1.71332067      -0.70220887      -0.32255293
C       -0.35989842       2.10512183      -0.45754000
N       -1.09547780       1.96673810       0.43075968
H        2.32016447      -0.12614473      -0.65867042
H        2.58193984      -0.50801672       1.05181680
H        1.94131596       1.09655181       0.56930679
H        0.25804416      -0.68619887       1.37584571
H        0.03551365       0.01365557      -1.43816670
H       -2.41416666      -0.10597509      -0.90038297
H       -1.69018861      -1.71949719      -0.72373553
H       -2.05365032      -0.73540843       0.71136005
14
Frame=5 idx=005226 GeodesicLength=0.3635946281012008 rxn_smarts="[C:1]([N:2]([C@@:3]([C:4]([H:12])([H:13])[H:14])([C:5]#[N:6])[H:11])[H:10])([H:7])([H:8])[H:9]>>[C:1]([N:2]([C@@:3]([C:4]([H:12])([H:13])[H:14])([N+:6]#[C-:5])[H:11])[H:10])([H:7])([H:8])[H:9]"
C        1.93866372       0.02414318       0.35297632
N        0.59078643      -0.50486304       0.43940453
C       -0.35027883      -0.09597204      -0.42476356
C       -1.71501293      -0.69887683      -0.32371880
C       -0.36565539       2.10032253      -0.47210100
N       -1.06872789       1.95043512       0.43832228
H        2.31773190      -0.11972820      -0.65831723
H        2.58146708      -0.51086044       1.04907749
H        1.94250739       1.09618467       0.57728194
H        0.25828188      -0.68321842       1.37602098
H        0.02924670       0.00871642      -1.43675192
H       -2.42224275      -0.11410583      -0.90585966
H       -1.67689163      -1.71709018      -0.72034720
H       -2.05987569      -0.73508694       0.70877582
14
Frame=6 idx=005226 GeodesicLength=0.43638967925349464 rxn_smarts="[C:1]([N:2]([C@@:3]([C:4]([H:12])([H:13])[H:14])([C:5]#[N:6])[H:11])[H:10])([H:7])([H:8])[H:9]>>[C:1]([N:2]([C@@:3]([C:4]([H:12])([H:13])[H:14])([N+:6]#[C-:5])[H:11])[H:10])([H:7])([H:8])[H:9]"
C        1.93659632       0.02485094       0.35439098
N        0.59005657      -0.50832188       0.43782922
C       -0.35741493      -0.07239412      -0.41955251
C       -1.71663788      -0.69552109      -0.32495375
C       -0.37207183       2.09531396      -0.48553237
N       -1.04252572       1.93442672       0.44551089
H        2.31562468      -0.11350348      -0.65800210
H        2.58115647      -0.51356395       1.04646158
H        1.94386136       1.09579575       0.58497468
H        0.25859756      -0.68031006       1.37612654
H        0.02287428       0.00422182      -1.43509983
H       -2.42973096      -0.12225032      -0.91183596
H       -1.66425579      -1.71467943      -0.71648382
H       -2.06613015      -0.73406486       0.70616644
14
Frame=7 idx=005226 GeodesicLength=0.5090829510865467 rxn_smarts="[C:1]([N:2]([C@@:3]([C:4]([H:12])([H:13])[H:14])([C:5]#[N:6])[H:11])[H:10])([H:7])([H:8])[H:9]>>[C:1]([N:2]([C@@:3]([C:4]([H:12])([H:13])[H:14])([N+:6]#[C-:5])[H:11])[H:10])([H:7])([H:8])[H:9]"
C        1.93441520       0.02547435       0.35567548
N        0.58930034      -0.51175029       0.43611763
C       -0.36416354      -0.04981356      -0.41469321
C       -1.71794014      -0.69210960      -0.32620450
C       -0.37906429       2.09014063      -0.49774197
N       -1.01679409       1.91872451       0.45225881
H        2.31347216      -0.10755577      -0.65765575
H        2.58064613      -0.51620966       1.04375215
H        1.94505469       1.09531564       0.59233623
H        0.25894841      -0.67737758       1.37597280
H        0.01647814       0.00012703      -1.43303628
H       -2.43635161      -0.13042202      -0.91818443
H       -1.65187769      -1.71224399      -0.71201682
H       -2.07212371      -0.73229966       0.70341984
14
Frame=8 idx=005226 GeodesicLength=0.5819276881605975 rxn_smarts="[C:1]([N:2]([C@@:3]([C:4]([H:12])([H:13])[H:14])([C:5]#[N:6])[H:11])[H:10])([H:7])([H:8])[H:9]>>[C:1]([N:2]([C@@:3]([C:4]([H:12])([H:13])[H:14])([N+:6]#[C-:5])[H:11])[H:10])([H:7])([H:8])[H:9]"
C        1.93237856       0.02607009       0.35690862
N        0.58862182      -0.51517870       0.43432769
C       -0.37057409      -0.02813724      -0.41026509
C       -1.71919021      -0.68867112      -0.32749207
C       -0.38663349       2.08477652      -0.50896290
N       -0.99155094       1.90328796       0.45862741
H        2.31158258      -0.10168905      -0.65734069
H        2.58028215      -0.51880207       1.04109900
H        1.94634448       1.09479221       0.59954988
H        0.25937029      -0.67452405       1.37573348
H        0.01004845      -0.00358789      -1.43085457
H       -2.44246151      -0.13860175      -0.92495522
H       -1.64003831      -1.70985467      -0.70705913
H       -2.07817979      -0.72988025       0.70068358
14
Frame=9 idx=005226 GeodesicLength=0.6547014679889127 rxn_smarts="[C:1]([N:2]([C@@:3]([C:4]([H:12])([H:13])[H:14])([C:5]#[N:6])[H:11])[H:10])([H:7])([H:8])[H:9]>>[C:1]([N:2]([C@@:3]([C:4]([H:12])([H:13])[H:14])([N+:6]#[C-:5])[H:11])[H:10])([H:7])([H:8])[H:9]"
C        1.93038438       0.02663843       0.35808622
N        0.58798914      -0.51862079       0.43245222
C       -0.37670419      -0.00736758      -0.40615488
C       -1.72032192      -0.68521008      -0.32880404
C       -0.39471859       2.07928684      -0.51925205
N       -0.96667714       1.88811487       0.46462309
H        2.30980615      -0.09591981      -0.65699869
H        2.57993766      -0.52130678       1.03842961
H        1.94765809       1.09420445       0.60661199
H        0.25983917      -0.67172510       1.37536380
H        0.00361246      -0.00696616      -1.42853596
H       -2.44798711      -0.14689274      -0.93201185
H       -1.62868210      -1.70739732      -0.70166092
H       -2.08413598      -0.72683822       0.69785144
14
Frame=10 idx=005226 GeodesicLength=0.7275418645363334 rxn_smarts="[C:1]([N:2]([C@@:3]([C:4]([H:12])([H:13])[H:14])([C:5]#[N:6])[H:11])[H:10])([H:7])([H:8])[H:9]>>[C:1]([N:2]([C@@:3]([C:4]([H:12])([H:13])[H:14])([N+:6]#[C-:5])[H:11])[H:10])([H:7])([H:8])[H:9]"
C        1.92839508       0.02714971       0.35919992
N        0.58740686      -0.52207863       0.43049003
C       -0.38252823       0.01265625      -0.40238135
C       -1.72129859      -0.68172183      -0.33011832
C       -0.40335093       2.07370012      -0.52861419
N       -0.94217629       1.87321041       0.47020942
H        2.30810610      -0.09026365      -0.65663575
H        2.57956397      -0.52380729       1.03572171
H        1.94893440       1.09354194       0.61353743
H        0.26035524      -0.66897573       1.37483041
H       -0.00281070      -0.01001407      -1.42608356
H       -2.45290454      -0.15523987      -0.93934630
H       -1.61766447      -1.70497547      -0.69578965
H       -2.09002792      -0.72318187       0.69498020
14
Frame=11 idx=005226 GeodesicLength=0.8004299479732919 rxn_smarts="[C:1]([N:2]([C@@:3]([C:4]([H:12])([H:13])[H:14])([C:5]#[N:6])[H:11])[H:10])([H:7])([H:8])[H:9]>>[C:1]([N:2]([C@@:3]([C:4]([H:12])([H:13])[H:14])([N+:6]#[C-:5])[H:11])[H:10])([H:7])([H:8])[H:9]"
C        1.92652920       0.02761647       0.36027042
N        0.58690214      -0.52556054       0.42849017
C       -0.38811903       0.03197436      -0.39893428
C       -1.72224837      -0.67823117      -0.33145280
C       -0.41244825       2.06808319      -0.53710723
N       -0.91812066       1.85855954       0.47540791
H        2.30660743      -0.08468549      -0.65629642
H        2.57933145      -0.52629747       1.03302435
H        1.95030565       1.09280836       0.62036200
H        0.26091985      -0.66628067       1.37424353
H       -0.00918267      -0.01272125      -1.42361278
H       -2.45742490      -0.16370855      -0.94700162
H       -1.60706957      -1.70256670      -0.68948092
H       -2.09598227      -0.71899007       0.69208766
14
Frame=12 idx=005226 GeodesicLength=0.8734178955982554 rxn_smarts="[C:1]([N:2]([C@@:3]([C:4]([H:12])([H:13])[H:14])([C:5]#[N:6])[H:11])[H:10])([H:7])([H:8])[H:9]>>[C:1]([N:2]([C@@:3]([C:4]([H:12])([H:13])[H:14])([N+:6]#[C-:5])[H:11])[H:10])([H:7])([H:8])[H:9]"
C        1.92462943       0.02805842       0.36126789
N        0.58641408      -0.52904096       0.42641477
C       -0.39345789       0.05066708      -0.39581925
C       -1.72307613      -0.67474399      -0.33279497
C       -0.42182742       2.06236057      -0.54464913
N       -0.89436681       1.84414775       0.48023750
H        2.30509787      -0.07914928      -0.65597650
H        2.57903383      -0.52877610       1.03021615
H        1.95164574       1.09201886       0.62712513
H        0.26149626      -0.66356440       1.37350437
H       -0.01550321      -0.01517761      -1.42104245
H       -2.46140597      -0.17231144      -0.95494518
H       -1.59676946      -1.70024857      -0.68269123
H       -2.10191031      -0.71424033       0.68915291
14
Frame=13 idx=005226 GeodesicLength=0.9463333089382303 rxn_smarts="[C:1]([N:2]([C@@:3]([C:4]([H:12])([H:13])[H:14])([C:5]#[N:6])[H:11])[H:10])([H:7])([H:8])[H:9]>>[C:1]([N:2]([C@@:3]([C:4]([H:12])([H:13])[H:14])([N+:6]#[C-:5])[H:11])[H:10])([H:7])([H:8])[H:9]"
C        1.92280149       0.02844227       0.36222297
N        0.58600124      -0.53255623       0.42430833
C       -0.39861479       0.06872254      -0.39295367
C       -1.72384453      -0.67124494      -0.33414765
C       -0.43158246       2.05664895      -0.55139586
N       -0.87106118       1.82996572       0.48467847
H        2.30371035      -0.07367833      -0.65564063
H        2.57884077      -0.53125661       1.02735955
H        1.95301543       1.09111073       0.63381198
H        0.26212031      -0.66088243       1.37268373
H       -0.02175979      -0.01733893      -1.41846548
H       -2.46500011      -0.18110523      -0.96311618
H       -1.58679916      -1.69784949      -0.67546676
H       -2.10782757      -0.70897803       0.68612121
14
Frame=14 idx=005226 GeodesicLength=1.0193187966090647 rxn_smarts="[C:1]([N:2]([C@@:3]([C:4]([H:12])([H:13])[H:14])([C:5]#[N:6])[H:11])[H:10])([H:7])([H:8])[H:9]>>[C:1]([N:2]([C@@:3]([C:4]([H:12])([H:13])[H:14])([N+:6]#[C-:5])[H:11])[H:10])([H:7])([H:8])[H:9]"
C        1.92102916       0.02878756       0.36313368
N        0.58564603      -0.53609546       0.42216893
C       -0.40357813       0.08624170      -0.39036131
C       -1.72456690      -0.66776048      -0.33550821
C       -0.44167592       2.05095285      -0.55733534
N       -0.84809526       1.81601371       0.48873538
H        2.30241501      -0.06825907      -0.65531865
H        2.57870323      -0.53374501       1.02445517
H        1.95444311       1.09013058       0.64045006
H        0.26277129      -0.65822322       1.37178556
H       -0.02794996      -0.01923222      -1.41589353
H       -2.46819299      -0.19007579      -0.97151574
H       -1.57715447      -1.69548929      -0.66784672
H       -2.11379421      -0.70324587       0.68305072
14
Frame=15 idx=005226 GeodesicLength=1.0923533576553528 rxn_smarts="[C:1]([N:2]([C@@:3]([C:4]([H:12])([H:13])[H:14])([C:5]#[N:6])[H:11])[H:10])([H:7])([H:8])[H:9]>>[C:1]([N:2]([C@@:3]([C:4]([H:12])([H:13])[H:14])([N+:6]#[C-:5])[H:11])[H:10])([H:7])([H:8])[H:9]"
C        1.91929809       0.02908713       0.36399890
N        0.58534687      -0.53965885       0.42000183
C       -0.40836393       0.10326708      -0.38802604
C       -1.72523193      -0.66428939      -0.33687649
C       -0.45208778       2.04528581      -0.56248749
N       -0.82547664       1.80228806       0.49241850
H        2.30119637      -0.06293103      -0.65499966
H        2.57860288      -0.53622945       1.02151774
H        1.95591280       1.08907728       0.64700572
H        0.26344773      -0.65558256       1.37080895
H       -0.03406598      -0.02086504      -1.41332721
H       -2.47099251      -0.19922179      -0.98010293
H       -1.56780434      -1.69314601      -0.65986196
H       -2.11978163      -0.69708124       0.67993013
14
Frame=16 idx=005226 GeodesicLength=1.1654153971435215 rxn_smarts="[C:1]([N:2]([C@@:3]([C:4]([H:12])([H:13])[H:14])([C:5]#[N:6])[H:11])[H:10])([H:7])([H:8])[H:9]>>[C:1]([N:2]([C@@:3]([C:4]([H:12])([H:13])[H:14])([N+:6]#[C-:5])[H:11])[H:10])([H:7])([H:8])[H:9]"
C        1.91761074       0.02933784       0.36481731
N        0.58510261      -0.54324365       0.41781674
C       -0.41299404       0.11983251      -0.38592792
C       -1.72584547      -0.66083528      -0.33825697
C       -0.46278693       2.03966876      -0.56685991
N       -0.80321841       1.78877722       0.49574263
H        2.30005746      -0.05773444      -0.65468082
H        2.57854133      -0.53869049       1.01856615
H        1.95743070       1.08795110       0.65344646
H        0.26414745      -0.65294661       1.36976269
H       -0.04010015      -0.02224251      -1.41077699
H       -2.47342841      -0.20855392      -0.98885152
H       -1.55873040      -1.69079787      -0.65154128
H       -2.12578647      -0.69052267       0.67674343
