17
Frame=0 idx=007057 GeodesicLength=0.0 rxn_smarts="[C:1]([C@@:2]([O:3][H:12])([C@@:4]1([H:13])[C:5]([H:14])([H:15])[C:6]([H:16])([H:17])[O:7]1)[H:11])([H:8])([H:9])[H:10]>>[C:1]([C:2](=[O:3])[H:11])([H:8])([H:9])[H:10].[C:4]1([H:12])([H:13])[C:5]([H:14])([H:15])[C:6]([H:16])([H:17])[O:7]1"
C       -2.10938156      -0.39802412       0.65574455
C       -1.45450493       0.39149719      -0.43957865
O       -1.25548227       1.69705118      -0.26063433
C        0.35009810      -0.40153847      -0.47030453
C        1.66328315       0.38035480      -0.69950506
C        2.01117740      -0.12080848       0.70566259
O        0.75838724      -0.82442428       0.81507121
H       -3.14098909      -0.04042414       0.70595020
H       -2.11496786      -1.47045505       0.45532046
H       -1.62547490      -0.20018676       1.60998796
H       -1.74189780       0.06548789      -1.45285994
H       -0.25356539       0.82596633      -0.39164645
H        0.11771258      -1.21061005      -1.16170797
H        2.27829140       0.00408584      -1.51306328
H        1.55398850       1.46251812      -0.79621287
H        2.10674074       0.64863484       1.47381016
H        2.85658477      -0.80912481       0.76396591
17
Frame=1 idx=007057 GeodesicLength=0.0993237831083374 rxn_smarts="[C:1]([C@@:2]([O:3][H:12])([C@@:4]1([H:13])[C:5]([H:14])([H:15])[C:6]([H:16])([H:17])[O:7]1)[H:11])([H:8])([H:9])[H:10]>>[C:1]([C:2](=[O:3])[H:11])([H:8])([H:9])[H:10].[C:4]1([H:12])([H:13])[C:5]([H:14])([H:15])[C:6]([H:16])([H:17])[O:7]1"
C       -2.11850880      -0.40060762       0.66651400
C       -1.46063633       0.38686975      -0.42873169
O       -1.26719435       1.69150129      -0.24930432
C        0.35771689      -0.39277310      -0.48998212
C        1.68049264       0.37496121      -0.70649619
C        2.00736677      -0.12032320       0.70560709
O        0.75347855      -0.82360298       0.79788060
H       -3.15284511      -0.05080636       0.71380682
H       -2.11826583      -1.47336511       0.46743282
H       -1.63922042      -0.19861776       1.62238943
H       -1.76035648       0.06824978      -1.44086121
H       -0.23923749       0.85084629      -0.40953483
H        0.13599157      -1.20463306      -1.18270937
H        2.30434489      -0.00704355      -1.51059647
H        1.57753734       1.45714992      -0.80759980
H        2.08803277       0.65130265       1.47349994
H        2.85130340      -0.80910814       0.77868533
17
Frame=2 idx=007057 GeodesicLength=0.19856211203218688 rxn_smarts="[C:1]([C@@:2]([O:3][H:12])([C@@:4]1([H:13])[C:5]([H:14])([H:15])[C:6]([H:16])([H:17])[O:7]1)[H:11])([H:8])([H:9])[H:10]>>[C:1]([C:2](=[O:3])[H:11])([H:8])([H:9])[H:10].[C:4]1([H:12])([H:13])[C:5]([H:14])([H:15])[C:6]([H:16])([H:17])[O:7]1"
C       -2.12783313      -0.40339142       0.67756675
C       -1.46657987       0.38184538      -0.41754378
O       -1.27763479       1.68535494      -0.23744866
C        0.36536791      -0.38358561      -0.51008519
C        1.69778225       0.36948311      -0.71350084
C        2.00306776      -0.11962507       0.70539262
O        0.74839607      -0.82279177       0.78006945
H       -3.16476023      -0.06117722       0.72172410
H       -2.12170950      -1.47646002       0.47987998
H       -1.65332636      -0.19737325       1.63514777
H       -1.77853447       0.07091463      -1.42844048
H       -0.22480147       0.87643133      -0.42804327
H        0.15453743      -1.19823288      -1.20408148
H        2.33042090      -0.01856998      -1.50778590
H        1.60174266       1.45167752      -0.81912734
H        2.06853414       0.65426733       1.47268965
H        2.84533070      -0.80876702       0.79358662
17
Frame=3 idx=007057 GeodesicLength=0.29774506525101174 rxn_smarts="[C:1]([C@@:2]([O:3][H:12])([C@@:4]1([H:13])[C:5]([H:14])([H:15])[C:6]([H:16])([H:17])[O:7]1)[H:11])([H:8])([H:9])[H:10]>>[C:1]([C:2](=[O:3])[H:11])([H:8])([H:9])[H:10].[C:4]1([H:12])([H:13])[C:5]([H:14])([H:15])[C:6]([H:16])([H:17])[O:7]1"
C       -2.13734679      -0.40635075       0.68891574
C       -1.47235004       0.37636663      -0.40606754
O       -1.28678216       1.67857867      -0.22525571
C        0.37305504      -0.37396167      -0.53060780
C        1.71512247       0.36396377      -0.72047948
C        1.99827861      -0.11875402       0.70500151
O        0.74315215      -0.82200831       0.76161870
H       -3.17672940      -0.07150697       0.72969723
H       -2.12528982      -1.47973086       0.49275818
H       -1.66777609      -0.19635210       1.64825549
H       -1.79640138       0.07336115      -1.41564203
H       -0.21023441       0.90274842      -0.44704037
H        0.17336688      -1.19138034      -1.22583108
H        2.35646138      -0.03039356      -1.50462517
H        1.62655161       1.44613840      -0.83066977
H        2.04828558       0.65743950       1.47138156
H        2.83863637      -0.80815795       0.80859052
17
Frame=4 idx=007057 GeodesicLength=0.3969143727838246 rxn_smarts="[C:1]([C@@:2]([O:3][H:12])([C@@:4]1([H:13])[C:5]([H:14])([H:15])[C:6]([H:16])([H:17])[O:7]1)[H:11])([H:8])([H:9])[H:10]>>[C:1]([C:2](=[O:3])[H:11])([H:8])([H:9])[H:10].[C:4]1([H:12])([H:13])[C:5]([H:14])([H:15])[C:6]([H:16])([H:17])[O:7]1"
C       -2.14703902      -0.40945720       0.70057776
C       -1.47797266       0.37036814      -0.39436483
O       -1.29464886       1.67113574      -0.21294697
C        0.38078174      -0.36387461      -0.55154451
C        1.73248670       0.35844969      -0.72738884
C        1.99299937      -0.11776421       0.70441590
O        0.73775536      -0.82126292       0.74250411
H       -3.18874874      -0.08177555       0.73772791
H       -2.12898534      -1.48316677       0.50618624
H       -1.68254913      -0.19542554       1.66170190
H       -1.81393423       0.07544019      -1.40251865
H       -0.19550046       0.92984236      -0.46637763
H        0.19249703      -1.18402729      -1.24797240
H        2.38241108      -0.04240788      -1.50111060
H        1.65191970       1.44057675      -0.84208582
H        2.02733948       0.66071366       1.46958442
H        2.83118799      -0.80736457       0.82361201
17
Frame=5 idx=007057 GeodesicLength=0.4960861051467451 rxn_smarts="[C:1]([C@@:2]([O:3][H:12])([C@@:4]1([H:13])[C:5]([H:14])([H:15])[C:6]([H:16])([H:17])[O:7]1)[H:11])([H:8])([H:9])[H:10]>>[C:1]([C:2](=[O:3])[H:11])([H:8])([H:9])[H:10].[C:4]1([H:12])([H:13])[C:5]([H:14])([H:15])[C:6]([H:16])([H:17])[O:7]1"
C       -2.15689966      -0.41268183       0.71256947
C       -1.48347070       0.36378903      -0.38249560
O       -1.30126560       1.66299935      -0.20073089
C        0.38855088      -0.35330362      -0.57288490
C        1.74984825       0.35297911      -0.73419154
C        1.98723750      -0.11670502       0.70361704
O        0.73221189      -0.82057430       0.72270256
H       -3.20081614      -0.09196689       0.74581207
H       -2.13277710      -1.48675939       0.52028025
H       -1.69762872      -0.19446545       1.67547751
H       -1.83110935       0.07700986      -1.38912855
H       -0.18055204       0.95776663      -0.48589687
H        0.21193821      -1.17612586      -1.27051759
H        2.40821723      -0.05451888      -1.49724202
H        1.67780206       1.43503004      -0.85324989
H        2.00574400       0.66399013       1.46730976
H        2.82296928      -0.80646290       0.83856919
17
Frame=6 idx=007057 GeodesicLength=0.5953043029209406 rxn_smarts="[C:1]([C@@:2]([O:3][H:12])([C@@:4]1([H:13])[C:5]([H:14])([H:15])[C:6]([H:16])([H:17])[O:7]1)[H:11])([H:8])([H:9])[H:10]>>[C:1]([C:2](=[O:3])[H:11])([H:8])([H:9])[H:10].[C:4]1([H:12])([H:13])[C:5]([H:14])([H:15])[C:6]([H:16])([H:17])[O:7]1"
C       -2.16691760      -0.41598797       0.72491507
C       -1.48889510       0.35654483      -0.37054149
O       -1.30669143       1.65412042      -0.18888887
C        0.39636478      -0.34219066      -0.59462197
C        1.76718722       0.34760838      -0.74084136
C        1.98100153      -0.11565392       0.70258771
O        0.72651961      -0.81994266       0.70218461
H       -3.21293280      -0.10207814       0.75396095
H       -2.13662189      -1.49048834       0.53520391
H       -1.71299574      -0.19328935       1.68956172
H       -1.84792182       0.07785358      -1.37553774
H       -0.16532897       0.98660007      -0.50541443
H        0.23170584      -1.16758678      -1.29349018
H        2.43382964      -0.06661168      -1.49302451
H        1.70417264       1.42955904      -0.86399770
H        1.98357523       0.66712948       1.46458614
H        2.81394885      -0.80558630       0.85335813
17
Frame=7 idx=007057 GeodesicLength=0.694563974357103 rxn_smarts="[C:1]([C@@:2]([O:3][H:12])([C@@:4]1([H:13])[C:5]([H:14])([H:15])[C:6]([H:16])([H:17])[O:7]1)[H:11])([H:8])([H:9])[H:10]>>[C:1]([C:2](=[O:3])[H:11])([H:8])([H:9])[H:10].[C:4]1([H:12])([H:13])[C:5]([H:14])([H:15])[C:6]([H:16])([H:17])[O:7]1"
C       -2.17708133      -0.41934179       0.73763502
C       -1.49428605       0.34856220      -0.35857339
O       -1.31099480       1.64446399      -0.17766526
C        0.40422664      -0.33049324      -0.61674749
C        1.78448276       0.34237826      -0.74730041
C        1.97430346      -0.11467817       0.70131201
O        0.72067541      -0.81938257       0.68092482
H       -3.22509920      -0.11211105       0.76217971
H       -2.14048131      -1.49433870       0.55110395
H       -1.72863399      -0.19172720       1.70393594
H       -1.86436801       0.07778894      -1.36181481
H       -0.14976466       1.01642153      -0.52475181
H        0.25180471      -1.15833206      -1.31691134
H        2.45920202      -0.07859362      -1.48846641
H        1.73100110       1.42420917      -0.87419215
H        1.96090091       0.67002105       1.46144264
H        2.80411234      -0.80484674       0.86788897
17
Frame=8 idx=007057 GeodesicLength=0.7938553320983078 rxn_smarts="[C:1]([C@@:2]([O:3][H:12])([C@@:4]1([H:13])[C:5]([H:14])([H:15])[C:6]([H:16])([H:17])[O:7]1)[H:11])([H:8])([H:9])[H:10]>>[C:1]([C:2](=[O:3])[H:11])([H:8])([H:9])[H:10].[C:4]1([H:12])([H:13])[C:5]([H:14])([H:15])[C:6]([H:16])([H:17])[O:7]1"
C       -2.18737369      -0.42269569       0.75076024
C       -1.49969510       0.33974850      -0.34667657
O       -1.31427319       1.63397246      -0.16737257
C        0.41213931      -0.31814239      -0.63925190
C        1.80171741       0.33734306      -0.75352424
C        1.96714956      -0.11386825       0.69977039
O        0.71466985      -0.81890006       0.65887242
H       -3.23731427      -0.12207424       0.77048245
H       -2.14429463      -1.49827503       0.56817791
H       -1.74452233      -0.18955507       1.71857133
H       -1.88044527       0.07655853      -1.34802989
H       -0.13377997       1.04732778      -0.54369213
H        0.27224019      -1.14824182      -1.34081859
H        2.48429274      -0.09035164      -1.48357919
H        1.75826805       1.41903784      -0.88366391
H        1.93778601       0.67250882       1.45792197
H        2.79343533      -0.80439280       0.88205227
17
Frame=9 idx=007057 GeodesicLength=0.8930025866477311 rxn_smarts="[C:1]([C@@:2]([O:3][H:12])([C@@:4]1([H:13])[C:5]([H:14])([H:15])[C:6]([H:16])([H:17])[O:7]1)[H:11])([H:8])([H:9])[H:10]>>[C:1]([C:2](=[O:3])[H:11])([H:8])([H:9])[H:10].[C:4]1([H:12])([H:13])[C:5]([H:14])([H:15])[C:6]([H:16])([H:17])[O:7]1"
C       -2.19778744      -0.42593134       0.76429932
C       -1.50514242       0.33000093      -0.33491455
O       -1.31673119       1.62249160      -0.15839406
C        0.42010944      -0.30508976      -0.66211839
C        1.81885767       0.33257778      -0.75945456
C        1.95958798      -0.11335742       0.69791812
O        0.70849068      -0.81852865       0.63598608
H       -3.24960385      -0.13199510       0.77879134
H       -2.14798137      -1.50213225       0.58669479
H       -1.76070254      -0.18640008       1.73337399
H       -1.89609370       0.07380665      -1.33418822
H       -0.11732146       1.07935390      -0.56188838
H        0.29303241      -1.13719520      -1.36527505
H        2.50906542      -0.10167184      -1.47839713
H        1.78588332       1.41409485      -0.89216198
H        1.91438385       0.67438715       1.45410323
H        2.78195323      -0.80441122       0.89562545
17
Frame=10 idx=007057 GeodesicLength=0.9921142624948474 rxn_smarts="[C:1]([C@@:2]([O:3][H:12])([C@@:4]1([H:13])[C:5]([H:14])([H:15])[C:6]([H:16])([H:17])[O:7]1)[H:11])([H:8])([H:9])[H:10]>>[C:1]([C:2](=[O:3])[H:11])([H:8])([H:9])[H:10].[C:4]1([H:12])([H:13])[C:5]([H:14])([H:15])[C:6]([H:16])([H:17])[O:7]1"
C       -2.20828524      -0.42903330       0.77832008
C       -1.51072203       0.31920192      -0.32341121
O       -1.31839181       1.61002172      -0.15108292
C        0.42814326      -0.29122005      -0.68536100
C        1.83590169       0.32813145      -0.76505868
C        1.95157838      -0.11322654       0.69575946
O        0.70212261      -0.81827959       0.61217165
H       -3.26193114      -0.14186836       0.78723135
H       -2.15146204      -1.50595250       0.60687612
H       -1.77708508      -0.18206931       1.74835092
H       -1.91137164       0.06924049      -1.32043015
H       -0.10028058       1.11268776      -0.57916411
H        0.31417489      -1.12501817      -1.39034233
H        2.53348496      -0.11250174      -1.47292711
H        1.81389502       1.40946514      -0.89955581
H        1.89065178       0.67548943       1.45004225
H        2.76957697      -0.80506836       0.90858149
17
Frame=11 idx=007057 GeodesicLength=1.0911621938336313 rxn_smarts="[C:1]([C@@:2]([O:3][H:12])([C@@:4]1([H:13])[C:5]([H:14])([H:15])[C:6]([H:16])([H:17])[O:7]1)[H:11])([H:8])([H:9])[H:10]>>[C:1]([C:2](=[O:3])[H:11])([H:8])([H:9])[H:10].[C:4]1([H:12])([H:13])[C:5]([H:14])([H:15])[C:6]([H:16])([H:17])[O:7]1"
C       -2.21883755      -0.43192089       0.79286722
C       -1.51649352       0.30723682      -0.31226752
O       -1.31941738       1.59648522      -0.14584244
C        0.43625216      -0.27644302      -0.70898509
C        1.85283595       0.32407190      -0.77028927
C        1.94312001      -0.11360556       0.69327650
O        0.69554683      -0.81817884       0.58734862
H       -3.27428701      -0.15171579       0.79582564
H       -2.15463268      -1.50965847       0.62900962
H       -1.79364127      -0.17622812       1.76345136
H       -1.92628516       0.06248838      -1.30683131
H       -0.08256688       1.14745279      -0.59523394
H        0.33567211      -1.11154124      -1.41610587
H        2.55752316      -0.12270693      -1.46719734
H        1.84228518       1.40522373      -0.90564280
H        1.86664241       0.67560582       1.44582585
H        2.75628363      -0.80656579       0.92079076
17
Frame=12 idx=007057 GeodesicLength=1.190110243853681 rxn_smarts="[C:1]([C@@:2]([O:3][H:12])([C@@:4]1([H:13])[C:5]([H:14])([H:15])[C:6]([H:16])([H:17])[O:7]1)[H:11])([H:8])([H:9])[H:10]>>[C:1]([C:2](=[O:3])[H:11])([H:8])([H:9])[H:10].[C:4]1([H:12])([H:13])[C:5]([H:14])([H:15])[C:6]([H:16])([H:17])[O:7]1"
C       -2.22940379      -0.43448481       0.80799665
C       -1.52252112       0.29396845      -0.30159857
O       -1.31999728       1.58177703      -0.14317131
C        0.44445068      -0.26064531      -0.73299751
C        1.86964347       0.32048131      -0.77509184
C        1.93421123      -0.11464703       0.69044756
O        0.68873885      -0.81825713       0.56140614
H       -3.28665606      -0.16156886       0.80461545
H       -2.15735637      -1.51313023       0.65344646
H       -1.81033657      -0.16845808       1.77860355
H       -1.94083280       0.05307968      -1.29347310
H       -0.06409124       1.18377403      -0.60975553
H        0.35753155      -1.09654976      -1.44267212
H        2.58115535      -0.13211136      -1.46124144
H        1.87103018       1.40146406      -0.91017272
H        1.84240126       0.67447322       1.44156305
H        2.74203267      -0.80916520       0.93209526
17
Frame=13 idx=007057 GeodesicLength=1.2889362040521775 rxn_smarts="[C:1]([C@@:2]([O:3][H:12])([C@@:4]1([H:13])[C:5]([H:14])([H:15])[C:6]([H:16])([H:17])[O:7]1)[H:11])([H:8])([H:9])[H:10]>>[C:1]([C:2](=[O:3])[H:11])([H:8])([H:9])[H:10].[C:4]1([H:12])([H:13])[C:5]([H:14])([H:15])[C:6]([H:16])([H:17])[O:7]1"
C       -2.23994007      -0.43660397       0.82376380
C       -1.52885862       0.27926122      -0.29151390
O       -1.32032055       1.56578329      -0.14356208
C        0.45275587      -0.24372063      -0.75740794
C        1.88630631       0.31743853      -0.77941298
C        1.92484144      -0.11650618       0.68724258
O        0.68167342      -0.81856575       0.53422236
H       -3.29901711      -0.17144660       0.81362812
H       -2.15948876      -1.51623780       0.68055654
H       -1.82713650      -0.15831897       1.79373237
H       -1.95500078       0.04053145      -1.28043457
H       -0.04477231       1.22177440      -0.62235230
H        0.37975810      -1.07983096      -1.47016368
H        2.60436440      -0.14054266      -1.45509289
H        1.90009551       1.39827146      -0.91289894
H        1.81794162       0.67181943       1.43735916
H        2.72679803      -0.81310626       0.94233438
17
Frame=14 idx=007057 GeodesicLength=1.38762032364116 rxn_smarts="[C:1]([C@@:2]([O:3][H:12])([C@@:4]1([H:13])[C:5]([H:14])([H:15])[C:6]([H:16])([H:17])[O:7]1)[H:11])([H:8])([H:9])[H:10]>>[C:1]([C:2](=[O:3])[H:11])([H:8])([H:9])[H:10].[C:4]1([H:12])([H:13])[C:5]([H:14])([H:15])[C:6]([H:16])([H:17])[O:7]1"
C       -2.25038807      -0.43812744       0.84023402
C       -1.53555854       0.26296038      -0.28213174
O       -1.32059815       1.54836940      -0.14759986
C        0.46118887      -0.22553829      -0.78222324
C        1.90280256       0.31503895      -0.78319024
C        1.91498728      -0.11937751       0.68362865
O        0.67432158      -0.81915960       0.50563865
H       -3.31133726      -0.18138748       0.82291855
H       -2.16084050      -1.51878181       0.71077071
H       -1.84400938      -0.14528406       1.80872245
H       -1.96875616       0.02425710      -1.26779468
H       -0.02455002       1.26155942      -0.63259433
H        0.40236505      -1.06112032      -1.49871794
H        2.62713653      -0.14779330      -1.44879315
H        1.92943372       1.39574939      -0.91352513
H        1.79326710       0.66732377       1.43334231
H        2.71053538      -0.81868860       0.95131495
17
Frame=15 idx=007057 GeodesicLength=1.4861857169552422 rxn_smarts="[C:1]([C@@:2]([O:3][H:12])([C@@:4]1([H:13])[C:5]([H:14])([H:15])[C:6]([H:16])([H:17])[O:7]1)[H:11])([H:8])([H:9])[H:10]>>[C:1]([C:2](=[O:3])[H:11])([H:8])([H:9])[H:10].[C:4]1([H:12])([H:13])[C:5]([H:14])([H:15])[C:6]([H:16])([H:17])[O:7]1"
C       -2.26067919      -0.43887158       0.85747523
C       -1.54266493       0.24490695      -0.27356950
O       -1.32104245       1.52937582      -0.15590706
C        0.46977547      -0.20597114      -0.80745630
C        1.91910478       0.31338670      -0.78635914
C        1.90461742      -0.12347076       0.67956380
O        0.66665360      -0.82011451       0.47547780
H       -3.32357344      -0.19142046       0.83253552
H       -2.16119705      -1.52052445       0.74456364
H       -1.86092466      -0.12876505       1.82343814
H       -1.98204552       0.00361616      -1.25562910
H       -0.00339008       1.30321053      -0.63998782
H        0.42537441      -1.04014415      -1.52849815
H        2.64946538      -0.15362629      -1.44238817
H        1.95897276       1.39400664      -0.91173196
H        1.76835246       0.66063271       1.42964927
H        2.69320104      -0.82622713       0.95882378
17
Frame=16 idx=007057 GeodesicLength=1.5847095426310538 rxn_smarts="[C:1]([C@@:2]([O:3][H:12])([C@@:4]1([H:13])[C:5]([H:14])([H:15])[C:6]([H:16])([H:17])[O:7]1)[H:11])([H:8])([H:9])[H:10]>>[C:1]([C:2](=[O:3])[H:11])([H:8])([H:9])[H:10].[C:4]1([H:12])([H:13])[C:5]([H:14])([H:15])[C:6]([H:16])([H:17])[O:7]1"
C       -2.27073133      -0.43861943       0.87555180
C       -1.55019821       0.22494592      -0.26593238
O       -1.32186128       1.50861976      -0.16912954
C        0.47854662      -0.18490150      -0.83312138
C        1.93517645       0.31259338      -0.78885381
C        1.89368545      -0.12901338       0.67499665
O        0.65864519      -0.82153147       0.44353175
H       -3.33566896      -0.20158433       0.84252434
H       -2.16030394      -1.52114917       0.78245207
H       -1.87786226      -0.10811168       1.83770620
H       -1.99477616      -0.02207588      -1.24399322
H        0.01869137       1.34676865      -0.64399214
H        0.44882326      -1.01662215      -1.55968595
H        2.67135298      -0.15777823      -1.43592881
H        1.98860346       1.39315921      -0.90717656
H        1.74312745       0.65135019       1.42642389
H        2.67474988      -0.83604989       0.96462709
