16
Frame=0 idx=008576 GeodesicLength=0.0 rxn_smarts="[C:1]([c:2]1[c:3]([H:11])[c:4]([C:5]([H:12])([H:13])[H:14])[c:6]([H:15])[n:7]1[H:16])([H:8])([H:9])[H:10]>>[C:1]([C+:2]1[C:3]([H:11])=[C-:4][C@:6]([C:5]([H:12])([H:13])[H:14])([H:15])[N:7]1[H:16])([H:8])([H:9])[H:10]"
C        2.34833730      -0.28320334       0.34069310
C        0.95506057      -0.14221082      -0.16635023
C        0.13165302      -1.04439439      -0.75893308
C       -1.12655306      -0.42156228      -1.16507469
C       -2.12858280      -0.08156145       0.40338349
C       -0.98308449       0.87028551      -0.60504685
N        0.29452686       1.06472213      -0.09428432
H        2.41019697      -0.04016477       1.40437121
H        2.69084145      -1.30773860       0.20646750
H        3.03159595       0.37941333      -0.19555224
H        0.40767582      -2.06940592      -0.96554577
H       -1.72361343       0.25408868       1.36207282
H       -2.25338951      -1.15666317       0.44899947
H       -3.08826367       0.37479009       0.18692133
H       -1.57735768       1.74467154      -0.83392939
H        0.61095667       1.85893353       0.43180768
16
Frame=1 idx=008576 GeodesicLength=0.061099561169579646 rxn_smarts="[C:1]([c:2]1[c:3]([H:11])[c:4]([C:5]([H:12])([H:13])[H:14])[c:6]([H:15])[n:7]1[H:16])([H:8])([H:9])[H:10]>>[C:1]([C+:2]1[C:3]([H:11])=[C-:4][C@:6]([C:5]([H:12])([H:13])[H:14])([H:15])[N:7]1[H:16])([H:8])([H:9])[H:10]"
C        2.36281150      -0.28468736       0.32787954
C        0.96146775      -0.14402433      -0.15653379
C        0.13644874      -1.04303173      -0.75605767
C       -1.12002662      -0.41850680      -1.15110113
C       -2.15097459      -0.08024334       0.39785868
C       -0.97743907       0.87257107      -0.58877474
N        0.29899550       1.05807143      -0.06770284
H        2.44279700      -0.03853562       1.38955949
H        2.70257377      -1.30982375       0.19105322
H        3.03776647       0.37513841      -0.22216583
H        0.41092219      -2.06753510      -0.96727917
H       -1.79976772       0.29569612       1.36273384
H       -2.24940625      -1.15635896       0.48058424
H       -3.11770615       0.33963376       0.14029839
H       -1.55774760       1.75070120      -0.83826870
H        0.61928508       1.85093500       0.45791648
16
Frame=2 idx=008576 GeodesicLength=0.12094266654014989 rxn_smarts="[C:1]([c:2]1[c:3]([H:11])[c:4]([C:5]([H:12])([H:13])[H:14])[c:6]([H:15])[n:7]1[H:16])([H:8])([H:9])[H:10]>>[C:1]([C+:2]1[C:3]([H:11])=[C-:4][C@:6]([C:5]([H:12])([H:13])[H:14])([H:15])[N:7]1[H:16])([H:8])([H:9])[H:10]"
C        2.37716127      -0.28594654       0.31471993
C        0.96808590      -0.14592497      -0.14695825
C        0.14106647      -1.04181708      -0.75276965
C       -1.11361536      -0.41552117      -1.13661565
C       -2.17331306      -0.07873807       0.39225179
C       -0.97178214       0.87476361      -0.57185737
N        0.30344979       1.05091965      -0.04050204
H        2.47516364      -0.03705872       1.37419099
H        2.71451245      -1.31152141       0.17491806
H        3.04328432       0.37156103      -0.24874117
H        0.41393289      -2.06579431      -0.96867214
H       -1.87728609       0.33728744       1.35917444
H       -2.24611209      -1.15372927       0.51379039
H       -3.14480771       0.30278059       0.09399077
H       -1.53725910       1.75651806      -0.84194099
H        0.62751882       1.84222116       0.48502090
16
Frame=3 idx=008576 GeodesicLength=0.17956255030898044 rxn_smarts="[C:1]([c:2]1[c:3]([H:11])[c:4]([C:5]([H:12])([H:13])[H:14])[c:6]([H:15])[n:7]1[H:16])([H:8])([H:9])[H:10]>>[C:1]([C+:2]1[C:3]([H:11])=[C-:4][C@:6]([C:5]([H:12])([H:13])[H:14])([H:15])[N:7]1[H:16])([H:8])([H:9])[H:10]"
C        2.39107838      -0.28707456       0.30159170
C        0.97494472      -0.14768304      -0.13829197
C        0.14549010      -1.04062141      -0.74974532
C       -1.10753915      -0.41257817      -1.12186384
C       -2.19524779      -0.07719202       0.38684778
C       -0.96625502       0.87698813      -0.55449831
N        0.30799006       1.04357368      -0.01342690
H        2.50636055      -0.03585919       1.35881501
H        2.72619865      -1.31306731       0.15861230
H        3.04836801       0.36853828      -0.27447820
H        0.41666607      -2.06409850      -0.97023696
H       -1.95509623       0.37845550       1.35153631
H       -2.24320985      -1.14889566       0.54875578
H       -3.16934963       0.26406728       0.04898810
H       -1.51624516       1.76222903      -0.84489693
H        0.63584629       1.83321796       0.51229145
16
Frame=4 idx=008576 GeodesicLength=0.236291542872995 rxn_smarts="[C:1]([c:2]1[c:3]([H:11])[c:4]([C:5]([H:12])([H:13])[H:14])[c:6]([H:15])[n:7]1[H:16])([H:8])([H:9])[H:10]>>[C:1]([C+:2]1[C:3]([H:11])=[C-:4][C@:6]([C:5]([H:12])([H:13])[H:14])([H:15])[N:7]1[H:16])([H:8])([H:9])[H:10]"
C        2.40445487      -0.28800527       0.28832460
C        0.98220118      -0.14877785      -0.13132989
C        0.15011804      -1.03842489      -0.74818967
C       -1.10157947      -0.40882356      -1.10733170
C       -2.21638025      -0.07590087       0.38127549
C       -0.96088535       0.87947133      -0.53661378
N        0.31271890       1.03619206       0.01307043
H        2.53567128      -0.03542871       1.34322485
H        2.73748102      -1.31414796       0.14170922
H        3.05335648       0.36612292      -0.29877548
H        0.41717238      -2.06313035      -0.96803932
H       -2.03229333       0.41777412       1.33947552
H       -2.24017998      -1.14186983       0.58424552
H       -3.19108202       0.22332695       0.00583875
H       -1.49504800       1.76790023      -0.84629397
H        0.64427425       1.82372168       0.53940944
16
Frame=5 idx=008576 GeodesicLength=0.29163366538767943 rxn_smarts="[C:1]([c:2]1[c:3]([H:11])[c:4]([C:5]([H:12])([H:13])[H:14])[c:6]([H:15])[n:7]1[H:16])([H:8])([H:9])[H:10]>>[C:1]([C+:2]1[C:3]([H:11])=[C-:4][C@:6]([C:5]([H:12])([H:13])[H:14])([H:15])[N:7]1[H:16])([H:8])([H:9])[H:10]"
C        2.41720409      -0.28887678       0.27530220
C        0.98974187      -0.14924932      -0.12609768
C        0.15470580      -1.03557894      -0.74801842
C       -1.09601243      -0.40462183      -1.09302504
C       -2.23672615      -0.07485742       0.37589767
C       -0.95579002       0.88221848      -0.51842156
N        0.31769646       1.02899191       0.03860775
H        2.56296909      -0.03562419       1.32801787
H        2.74809698      -1.31516012       0.12487321
H        3.05840918       0.36408955      -0.32143008
H        0.41636741      -2.06243015      -0.96437810
H       -2.10848409       0.45548509       1.32351143
H       -2.23711217      -1.13276316       0.62078216
H       -3.21015569       0.18054970      -0.03497271
H       -1.47388199       1.77362346      -0.84655198
H        0.65297165       1.81420372       0.56590328
16
Frame=6 idx=008576 GeodesicLength=0.34577544432805196 rxn_smarts="[C:1]([c:2]1[c:3]([H:11])[c:4]([C:5]([H:12])([H:13])[H:14])[c:6]([H:15])[n:7]1[H:16])([H:8])([H:9])[H:10]>>[C:1]([C+:2]1[C:3]([H:11])=[C-:4][C@:6]([C:5]([H:12])([H:13])[H:14])([H:15])[N:7]1[H:16])([H:8])([H:9])[H:10]"
C        2.42926793      -0.28977611       0.26269225
C        0.99746274      -0.14914909      -0.12246331
C        0.15916013      -1.03222192      -0.74896034
C       -1.09086139      -0.40015055      -1.07877542
C       -2.25636427      -0.07399710       0.37088004
C       -0.95098559       0.88514213      -0.49997292
N        0.32293676       1.02198736       0.06300162
H        2.58819533      -0.03632503       1.31337131
H        2.75789784      -1.31624774       0.10848602
H        3.06360108       0.36216776      -0.34245538
H        0.41497076      -2.06149142      -0.96073013
H       -2.18357378       0.49167028       1.30382801
H       -2.23415895      -1.12138775       0.65860440
H       -3.22668171       0.13575770      -0.07313847
H       -1.45281028       1.77927546      -0.84583840
H        0.66194343       1.80474602       0.59147072
16
Frame=7 idx=008576 GeodesicLength=0.39879198276802746 rxn_smarts="[C:1]([c:2]1[c:3]([H:11])[c:4]([C:5]([H:12])([H:13])[H:14])[c:6]([H:15])[n:7]1[H:16])([H:8])([H:9])[H:10]>>[C:1]([C+:2]1[C:3]([H:11])=[C-:4][C@:6]([C:5]([H:12])([H:13])[H:14])([H:15])[N:7]1[H:16])([H:8])([H:9])[H:10]"
C        2.44069160      -0.29075427       0.25054027
C        1.00533150      -0.14843267      -0.12038646
C        0.16348447      -1.02827670      -0.75104268
C       -1.08612472      -0.39535938      -1.06461329
C       -2.27533957      -0.07334136       0.36620121
C       -0.94651475       0.88825889      -0.48127549
N        0.32846060       1.01524136       0.08616563
H        2.61144348      -0.03753466       1.29934195
H        2.76687139      -1.31748200       0.09266381
H        3.06905480       0.36020219      -0.36186735
H        0.41301086      -2.06021662      -0.95722084
H       -2.25746334       0.52613854       1.28052467
H       -2.23134417      -1.10764131       0.69757785
H       -3.24077316       0.08894483      -0.10848390
H       -1.43199411       1.78485206      -0.84413830
H        0.67120511       1.79540108       0.61601294
16
Frame=8 idx=008576 GeodesicLength=0.45079008659713937 rxn_smarts="[C:1]([c:2]1[c:3]([H:11])[c:4]([C:5]([H:12])([H:13])[H:14])[c:6]([H:15])[n:7]1[H:16])([H:8])([H:9])[H:10]>>[C:1]([C+:2]1[C:3]([H:11])=[C-:4][C@:6]([C:5]([H:12])([H:13])[H:14])([H:15])[N:7]1[H:16])([H:8])([H:9])[H:10]"
C        2.45139873      -0.29186865       0.23892442
C        1.01329097      -0.14703164      -0.11989443
C        0.16765126      -1.02365343      -0.75429228
C       -1.08177825      -0.39022480      -1.05053438
C       -2.29361828      -0.07292867       0.36192306
C       -0.94235896       0.89157106      -0.46236742
N        0.33429960       1.00882544       0.10795873
H        2.63257291      -0.03929658       1.28604396
H        2.77485091      -1.31892705       0.07756131
H        3.07485029       0.35802979      -0.37960750
H        0.41063913      -2.05843698      -0.95425586
H       -2.33002629       0.55878864       1.25372684
H       -2.22863141      -1.09142404       0.73771860
H       -3.25242248       0.03999826      -0.14078338
H       -1.41150943       1.79033705      -0.84145471
H        0.68079127       1.78624161       0.63933303
16
Frame=9 idx=008576 GeodesicLength=0.5022187405472824 rxn_smarts="[C:1]([c:2]1[c:3]([H:11])[c:4]([C:5]([H:12])([H:13])[H:14])[c:6]([H:15])[n:7]1[H:16])([H:8])([H:9])[H:10]>>[C:1]([C+:2]1[C:3]([H:11])=[C-:4][C@:6]([C:5]([H:12])([H:13])[H:14])([H:15])[N:7]1[H:16])([H:8])([H:9])[H:10]"
C        2.46178384      -0.29304451       0.22755911
C        1.02126074      -0.14540424      -0.12001141
C        0.17149648      -1.01905765      -0.75744296
C       -1.07770567      -0.38517989      -1.03611627
C       -2.31180282      -0.07247164       0.35788483
C       -0.93842000       0.89489331      -0.44306612
N        0.34032560       1.00240841       0.12922283
H        2.65283952      -0.04119968       1.27306118
H        2.78240950      -1.32053292       0.06284231
H        3.08068932       0.35579562      -0.39672282
H        0.40881282      -2.05594909      -0.95315182
H       -2.40218750       0.59023115       1.22307974
H       -2.22709709      -1.07226030       0.77918891
H       -3.26194492      -0.01083119      -0.17057277
H       -1.39096217       1.79562051      -0.83810206
H        0.69050235       1.77698211       0.66234731
16
Frame=10 idx=008576 GeodesicLength=0.5528057545635265 rxn_smarts="[C:1]([c:2]1[c:3]([H:11])[c:4]([C:5]([H:12])([H:13])[H:14])[c:6]([H:15])[n:7]1[H:16])([H:8])([H:9])[H:10]>>[C:1]([C+:2]1[C:3]([H:11])=[C-:4][C@:6]([C:5]([H:12])([H:13])[H:14])([H:15])[N:7]1[H:16])([H:8])([H:9])[H:10]"
C        2.47205578      -0.29407283       0.21590955
C        1.02919776      -0.14353127      -0.12032326
C        0.17500467      -1.01415571      -0.76041337
C       -1.07372264      -0.37977336      -1.02152218
C       -2.32995634      -0.07203746       0.35341398
C       -0.93454919       0.89825721      -0.42306883
N        0.34655570       0.99576329       0.15062884
H        2.67309713      -0.04319469       1.25971697
H        2.78980079      -1.32191484       0.04763992
H        3.08626047       0.35382956      -0.41395374
H        0.40623150      -2.05342838      -0.95096842
H       -2.47410125       0.61984740       1.18791462
H       -2.22692593      -1.04992612       0.82100848
H       -3.26923816      -0.06355159      -0.19848780
H       -1.37006109       1.80076851      -0.83353156
H        0.70035078       1.76712028       0.68603677
16
Frame=11 idx=008576 GeodesicLength=0.6029774664682216 rxn_smarts="[C:1]([c:2]1[c:3]([H:11])[c:4]([C:5]([H:12])([H:13])[H:14])[c:6]([H:15])[n:7]1[H:16])([H:8])([H:9])[H:10]>>[C:1]([C+:2]1[C:3]([H:11])=[C-:4][C@:6]([C:5]([H:12])([H:13])[H:14])([H:15])[N:7]1[H:16])([H:8])([H:9])[H:10]"
C        2.48231903      -0.29498504       0.20397370
C        1.03714913      -0.14152550      -0.12075126
C        0.17823164      -1.00922713      -0.76300097
C       -1.06979183      -0.37419504      -1.00666415
C       -2.34827682      -0.07156927       0.34860955
C       -0.93076434       0.90165882      -0.40236305
N        0.35294665       0.98887149       0.17226234
H        2.69344434      -0.04519946       1.24603062
H        2.79720397      -1.32317642       0.03198303
H        3.09164729       0.35212599      -0.43142355
H        0.40341835      -2.05083517      -0.94847931
H       -2.54590028       0.64778611       1.14820657
H       -2.22870977      -1.02429966       0.86329008
H       -3.27435231      -0.11803960      -0.22431724
H       -1.34885065       1.80587212      -0.82775975
H        0.71028562       1.75673778       0.71040336
16
Frame=12 idx=008576 GeodesicLength=0.6522363078462468 rxn_smarts="[C:1]([c:2]1[c:3]([H:11])[c:4]([C:5]([H:12])([H:13])[H:14])[c:6]([H:15])[n:7]1[H:16])([H:8])([H:9])[H:10]>>[C:1]([C+:2]1[C:3]([H:11])=[C-:4][C@:6]([C:5]([H:12])([H:13])[H:14])([H:15])[N:7]1[H:16])([H:8])([H:9])[H:10]"
C        2.49272703      -0.29532883       0.19097924
C        1.04518200      -0.13918841      -0.12122717
C        0.18139928      -1.00370840      -0.76573393
C       -1.06538890      -0.36758139      -0.99224279
C       -2.36673833      -0.07163490       0.34247664
C       -0.92678873       0.90524049      -0.38034056
N        0.35946726       0.98136664       0.19522371
H        2.71471111      -0.04612520       1.23085554
H        2.80456271      -1.32392218       0.01566602
H        3.09657993       0.35086535      -0.45060302
H        0.39783904      -2.04938327      -0.93924556
H       -2.61628322       0.67147071       1.10493199
H       -2.23405201      -0.99737923       0.90251019
H       -3.27721177      -0.17207823      -0.24911175
H       -1.32682488       1.81141502      -0.81948290
H        0.72081948       1.74597182       0.73534434
16
Frame=13 idx=008576 GeodesicLength=0.7016325649931089 rxn_smarts="[C:1]([c:2]1[c:3]([H:11])[c:4]([C:5]([H:12])([H:13])[H:14])[c:6]([H:15])[n:7]1[H:16])([H:8])([H:9])[H:10]>>[C:1]([C+:2]1[C:3]([H:11])=[C-:4][C@:6]([C:5]([H:12])([H:13])[H:14])([H:15])[N:7]1[H:16])([H:8])([H:9])[H:10]"
C        2.50285081      -0.29575054       0.17812330
C        1.05300739      -0.13709429      -0.12142050
C        0.18397144      -0.99878883      -0.76702277
C       -1.06136561      -0.36167937      -0.97660970
C       -2.38539213      -0.07108038       0.33668338
C       -0.92290469       0.90840485      -0.35793948
N        0.36617311       0.97346622       0.21782080
H        2.73549132      -0.04787691       1.21583870
H        2.81189143      -1.32442562      -0.00133671
H        3.10106337       0.35002220      -0.46911397
H        0.39450525      -2.04644159      -0.93560298
H       -2.68722993       0.69580117       1.05537647
H       -2.24084040      -0.96471635       0.94505077
H       -3.27766145      -0.22972585      -0.27055372
H       -1.30448051       1.81609412      -0.81087217
H        0.73092060       1.73379117       0.76157858
16
Frame=14 idx=008576 GeodesicLength=0.7507473754628416 rxn_smarts="[C:1]([c:2]1[c:3]([H:11])[c:4]([C:5]([H:12])([H:13])[H:14])[c:6]([H:15])[n:7]1[H:16])([H:8])([H:9])[H:10]>>[C:1]([C+:2]1[C:3]([H:11])=[C-:4][C@:6]([C:5]([H:12])([H:13])[H:14])([H:15])[N:7]1[H:16])([H:8])([H:9])[H:10]"
C        2.51295134      -0.29592539       0.16478775
C        1.06075182      -0.13500166      -0.12139015
C        0.18619727      -0.99396703      -0.76765711
C       -1.05735550      -0.35564507      -0.96063297
C       -2.40421412      -0.07051928       0.33034120
C       -0.91902293       0.91147908      -0.33462930
N        0.37301071       0.96507057       0.24104122
H        2.75668017      -0.04941005       1.20017877
H        2.81926162      -1.32464571      -0.01903489
H        3.10500493       0.34964993      -0.48829066
H        0.39093482      -2.04354603      -0.93151759
H       -2.75735347       0.71799297       1.00055672
H       -2.25060118      -0.92823481       0.98740406
H       -3.27567653      -0.28880439      -0.28933278
H       -1.28172983       1.82069111      -0.80067261
H        0.74116086       1.72081575       0.78884832
16
Frame=15 idx=008576 GeodesicLength=0.7995933890468007 rxn_smarts="[C:1]([c:2]1[c:3]([H:11])[c:4]([C:5]([H:12])([H:13])[H:14])[c:6]([H:15])[n:7]1[H:16])([H:8])([H:9])[H:10]>>[C:1]([C+:2]1[C:3]([H:11])=[C-:4][C@:6]([C:5]([H:12])([H:13])[H:14])([H:15])[N:7]1[H:16])([H:8])([H:9])[H:10]"
C        2.52293642      -0.29587915       0.15106402
C        1.06839466      -0.13287322      -0.12124222
C        0.18809327      -0.98917467      -0.76778408
C       -1.05339814      -0.34949085      -0.94429733
C       -2.42309642      -0.06998984       0.32354033
C       -0.91517001       0.91441761      -0.31041763
N        0.37998295       0.95617594       0.26474356
H        2.77804237      -0.05077735       1.18396237
H        2.82655023      -1.32459286      -0.03729932
H        3.10843442       0.34968719      -0.50792376
H        0.38722111      -2.04054558      -0.92733916
H       -2.82620388       0.73781048       0.94038532
H       -2.26348359      -0.88774412       1.02940548
H       -3.27114811      -0.34922658      -0.30492523
H       -1.25873735       1.82514480      -0.78877255
H        0.75158206       1.70705820       0.81690020
16
Frame=16 idx=008576 GeodesicLength=0.8482177343903553 rxn_smarts="[C:1]([c:2]1[c:3]([H:11])[c:4]([C:5]([H:12])([H:13])[H:14])[c:6]([H:15])[n:7]1[H:16])([H:8])([H:9])[H:10]>>[C:1]([C+:2]1[C:3]([H:11])=[C-:4][C@:6]([C:5]([H:12])([H:13])[H:14])([H:15])[N:7]1[H:16])([H:8])([H:9])[H:10]"
C        2.53273465      -0.29565497       0.13705420
C        1.07592234      -0.13067114      -0.12107939
C        0.18969519      -0.98432951      -0.76760828
C       -1.04953833      -0.34322384      -0.92762890
C       -2.44194156      -0.06953431       0.31639441
C       -0.91138636       0.91719706      -0.28534543
N        0.38709305       0.94681211       0.28876679
H        2.79935899      -0.05205667       1.16732132
H        2.83366590      -1.32431190      -0.05600362
H        3.11140952       0.35006494      -0.52780489
H        0.38346335      -2.03732115      -0.92343219
H       -2.89334735       0.75496295       0.87481523
H       -2.27960568      -0.84303844       1.07087941
H       -3.26401682      -0.41087879      -0.31674055
H       -1.23570342       1.82943457      -0.77512078
H        0.76219652       1.69254910       0.84553267
