16
Frame=0 idx=005037 GeodesicLength=0.0 rxn_smarts="[C:1]1([H:7])([H:8])[C:2]([H:9])([H:10])[C:3]12[C:4]([H:11])([H:12])[C:5]([H:13])([H:14])[C:6]2([H:15])[H:16]>>[C:1]1([H:7])([H:8])[C:2]([H:9])([H:10])[C:3]12[C:4]([H:11])([H:12])[C:5]([H:14])=[C:6]2[H:15].[H:13][H:16]"
C       -1.61560667       0.26109711       0.76854636
C       -1.78773390      -0.08623361      -0.68841930
C       -0.42825693      -0.03960693      -0.08293792
C        0.57493352      -1.22957706       0.18585475
C        1.64517180      -0.13188121       0.23033428
C        0.78729268       0.80302452      -0.40156765
H       -1.91719175      -0.47502684       1.50323438
H       -1.77424770       1.28879571       1.06817313
H       -2.06810332       0.70397835      -1.37404109
H       -2.20263981      -1.05795719      -0.92748887
H        0.62150774      -1.87243505      -0.69364076
H        0.41246862      -1.83070756       1.08275588
H        2.68330484       0.78596267      -0.27323385
H        2.09510863       0.06268198       1.19349841
H        0.92079910       1.13762190      -1.42095276
H        2.05319315       1.68026322      -0.17011501
16
Frame=1 idx=005037 GeodesicLength=0.04871623714470801 rxn_smarts="[C:1]1([H:7])([H:8])[C:2]([H:9])([H:10])[C:3]12[C:4]([H:11])([H:12])[C:5]([H:13])([H:14])[C:6]2([H:15])[H:16]>>[C:1]1([H:7])([H:8])[C:2]([H:9])([H:10])[C:3]12[C:4]([H:11])([H:12])[C:5]([H:14])=[C:6]2[H:15].[H:13][H:16]"
C       -1.61873328       0.25958420       0.76798377
C       -1.78589273      -0.08849474      -0.68920933
C       -0.42819280      -0.04026839      -0.07954224
C        0.57406992      -1.22798744       0.18618392
C        1.64110559      -0.12914274       0.24383495
C        0.78542970       0.80743272      -0.39310440
H       -1.92225121      -0.47676558       1.50167132
H       -1.77782035       1.28743430       1.06708599
H       -2.06689016       0.70150764      -1.37479456
H       -2.19843202      -1.06069556      -0.93032921
H        0.63013330      -1.86850141      -0.69456394
H        0.40870897      -1.83309343       1.07985145
H        2.69565296       0.76676464      -0.28477542
H        2.09155957       0.06239246       1.20773088
H        0.89605471       1.15889126      -1.41013650
H        2.07549782       1.68094206      -0.19788668
16
Frame=2 idx=005037 GeodesicLength=0.09744047843486432 rxn_smarts="[C:1]1([H:7])([H:8])[C:2]([H:9])([H:10])[C:3]12[C:4]([H:11])([H:12])[C:5]([H:13])([H:14])[C:6]2([H:15])[H:16]>>[C:1]1([H:7])([H:8])[C:2]([H:9])([H:10])[C:3]12[C:4]([H:11])([H:12])[C:5]([H:14])=[C:6]2[H:15].[H:13][H:16]"
C       -1.62188237       0.25799671       0.76736094
C       -1.78395180      -0.09076439      -0.69007868
C       -0.42808154      -0.04083314      -0.07615287
C        0.57337588      -1.22620956       0.18657457
C        1.63701180      -0.12615838       0.25759235
C        0.78356325       0.81199806      -0.38455348
H       -1.92729666      -0.47864964       1.49998903
H       -1.78151242       1.28597296       1.06599193
H       -2.06563935       0.69903752      -1.37560082
H       -2.19399585      -1.06347184      -0.93331821
H        0.63906260      -1.86433242      -0.69534792
H        0.40511130      -1.83535195       1.07693467
H        2.70770569       0.74654555      -0.29647930
H        2.08775486       0.06233633       1.22233803
H        0.87094355       1.18143411      -1.39805429
H        2.09783106       1.68045009      -0.22719596
16
Frame=3 idx=005037 GeodesicLength=0.14623081601389604 rxn_smarts="[C:1]1([H:7])([H:8])[C:2]([H:9])([H:10])[C:3]12[C:4]([H:11])([H:12])[C:5]([H:13])([H:14])[C:6]2([H:15])[H:16]>>[C:1]1([H:7])([H:8])[C:2]([H:9])([H:10])[C:3]12[C:4]([H:11])([H:12])[C:5]([H:14])=[C:6]2[H:15].[H:13][H:16]"
C       -1.62511851       0.25633287       0.76669902
C       -1.78197820      -0.09303732      -0.69105903
C       -0.42793307      -0.04130984      -0.07278358
C        0.57290678      -1.22423016       0.18702554
C        1.63295929      -0.12293408       0.27158064
C        0.78171068       0.81669323      -0.37593391
H       -1.93240267      -0.48066998       1.49823008
H       -1.78539512       1.28440060       1.06493425
H       -2.06443156       0.69656851      -1.37650639
H       -2.18941524      -1.06626656      -0.93650050
H        0.64835584      -1.85993025      -0.69599979
H        0.40174326      -1.83744195       1.07403521
H        2.71955294       0.72528832      -0.30830697
H        2.08377363       0.06250690       1.23734642
H        0.84560949       1.20534154      -1.38459643
H        2.12006246       1.67868816      -0.25816454
16
Frame=4 idx=005037 GeodesicLength=0.1946603014658824 rxn_smarts="[C:1]1([H:7])([H:8])[C:2]([H:9])([H:10])[C:3]12[C:4]([H:11])([H:12])[C:5]([H:13])([H:14])[C:6]2([H:15])[H:16]>>[C:1]1([H:7])([H:8])[C:2]([H:9])([H:10])[C:3]12[C:4]([H:11])([H:12])[C:5]([H:14])=[C:6]2[H:15].[H:13][H:16]"
C       -1.62820411       0.25456318       0.76588033
C       -1.77970708      -0.09531623      -0.69207431
C       -0.42767526      -0.04170599      -0.06942154
C        0.57251699      -1.22204256       0.18756399
C        1.62881216      -0.11947061       0.28576562
C        0.77986280       0.82152535      -0.36722410
H       -1.93733621      -0.48287427       1.49618518
H       -1.78916099       1.28268488       1.06374481
H       -2.06290236       0.69411013      -1.37735884
H       -2.18442200      -1.06908070      -0.93975744
H        0.65777211      -1.85528327      -0.69638358
H        0.39842614      -1.83935363       1.07110376
H        2.73071403       0.70318979      -0.32018271
H        2.07936849       0.06288782       1.25253475
H        0.81980874       1.23056130      -1.36956990
H        2.14212657       1.67560480      -0.29080602
16
Frame=5 idx=005037 GeodesicLength=0.24314314116402524 rxn_smarts="[C:1]1([H:7])([H:8])[C:2]([H:9])([H:10])[C:3]12[C:4]([H:11])([H:12])[C:5]([H:13])([H:14])[C:6]2([H:15])[H:16]>>[C:1]1([H:7])([H:8])[C:2]([H:9])([H:10])[C:3]12[C:4]([H:11])([H:12])[C:5]([H:14])=[C:6]2[H:15].[H:13][H:16]"
C       -1.63136901       0.25272464       0.76501844
C       -1.77739841      -0.09757512      -0.69323400
C       -0.42736986      -0.04201575      -0.06609884
C        0.57238609      -1.21966017       0.18816500
C        1.62476418      -0.11577828       0.30013956
C        0.77802729       0.82648982      -0.35847666
H       -1.94231056      -0.48521933       1.49406479
H       -1.79311260       1.28087719       1.06260784
H       -2.06141181       0.69169613      -1.37834700
H       -2.17928200      -1.07189302      -0.94325078
H        0.66755298      -1.85043888      -0.69663721
H        0.39539126      -1.84108596       1.06822309
H        2.74160303       0.68019325      -0.33202933
H        2.07480354       0.06347167       1.26811356
H        0.79378845       1.25713285      -1.35299973
H        2.16393743       1.67108097      -0.32525875
16
Frame=6 idx=005037 GeodesicLength=0.2916664987629126 rxn_smarts="[C:1]1([H:7])([H:8])[C:2]([H:9])([H:10])[C:3]12[C:4]([H:11])([H:12])[C:5]([H:13])([H:14])[C:6]2([H:15])[H:16]>>[C:1]1([H:7])([H:8])[C:2]([H:9])([H:10])[C:3]12[C:4]([H:11])([H:12])[C:5]([H:14])=[C:6]2[H:15].[H:13][H:16]"
C       -1.63447597       0.25083008       0.76408069
C       -1.77498181      -0.09981138      -0.69446169
C       -0.42698954      -0.04223562      -0.06284464
C        0.57245664      -1.21707444       0.18876625
C        1.62068038      -0.11182450       0.31457473
C        0.77617489       0.83158774      -0.34977487
H       -1.94717664      -0.48767188       1.49182747
H       -1.79703826       1.27898067       1.06145624
H       -2.05986496       0.68931246      -1.37936272
H       -2.17396091      -1.07468950      -0.94684118
H        0.67760446      -1.84537696      -0.69675529
H        0.39260146      -1.84264458       1.06527926
H        2.75218848       0.65650882      -0.34362875
H        2.06987641       0.06426548       1.28395551
H        0.76758603       1.28468545      -1.33509524
H        2.18531935       1.66515815      -0.36117578
16
Frame=7 idx=005037 GeodesicLength=0.3398994377761743 rxn_smarts="[C:1]1([H:7])([H:8])[C:2]([H:9])([H:10])[C:3]12[C:4]([H:11])([H:12])[C:5]([H:13])([H:14])[C:6]2([H:15])[H:16]>>[C:1]1([H:7])([H:8])[C:2]([H:9])([H:10])[C:3]12[C:4]([H:11])([H:12])[C:5]([H:14])=[C:6]2[H:15].[H:13][H:16]"
C       -1.63762350       0.24878102       0.76300153
C       -1.77231069      -0.10200817      -0.69587152
C       -0.42650582      -0.04235197      -0.05955478
C        0.57273962      -1.21424558       0.18956313
C        1.61669719      -0.10762623       0.32922893
C        0.77433960       0.83687951      -0.34084032
H       -1.95211160      -0.49041345       1.48928528
H       -1.80115150       1.27687623       1.06027376
H       -2.05804435       0.68702495      -1.38049802
H       -2.16821801      -1.07745332      -0.95078474
H        0.68793071      -1.84009897      -0.69653162
H        0.39003073      -1.84393709       1.06250816
H        2.76214921       0.63174398      -0.35530224
H        2.06481085       0.06527958       1.30006505
H        0.74108022       1.31416569      -1.31472826
H        2.20618735       1.65738383      -0.39981434
16
Frame=8 idx=005037 GeodesicLength=0.3881828385957699 rxn_smarts="[C:1]1([H:7])([H:8])[C:2]([H:9])([H:10])[C:3]12[C:4]([H:11])([H:12])[C:5]([H:13])([H:14])[C:6]2([H:15])[H:16]>>[C:1]1([H:7])([H:8])[C:2]([H:9])([H:10])[C:3]12[C:4]([H:11])([H:12])[C:5]([H:14])=[C:6]2[H:15].[H:13][H:16]"
C       -1.64085939       0.24660344       0.76182388
C       -1.76946895      -0.10413159      -0.69748619
C       -0.42593619      -0.04235562      -0.05624926
C        0.57329518      -1.21118162       0.19051450
C        1.61284437      -0.10317619       0.34404251
C        0.77249762       0.84237713      -0.33172179
H       -1.95715070      -0.49341716       1.48651076
H       -1.80550415       1.27459606       1.05913868
H       -2.05606188       0.68487815      -1.38179243
H       -2.16214861      -1.08014810      -0.95512091
H        0.69860138      -1.83462128      -0.69604143
H        0.38777804      -1.84497586       1.05989645
H        2.77172257       0.60608615      -0.36687258
H        2.05964230       0.06651481       1.31648994
H        0.71433336       1.34529575      -1.29204348
H        2.22641505       1.64765593      -0.44108865
16
Frame=9 idx=005037 GeodesicLength=0.4364765210842838 rxn_smarts="[C:1]1([H:7])([H:8])[C:2]([H:9])([H:10])[C:3]12[C:4]([H:11])([H:12])[C:5]([H:13])([H:14])[C:6]2([H:15])[H:16]>>[C:1]1([H:7])([H:8])[C:2]([H:9])([H:10])[C:3]12[C:4]([H:11])([H:12])[C:5]([H:14])=[C:6]2[H:15].[H:13][H:16]"
C       -1.64403065       0.24427343       0.76053195
C       -1.76638584      -0.10615616      -0.69919694
C       -0.42525222      -0.04224068      -0.05295141
C        0.57404866      -1.20784468       0.19153806
C        1.60896072      -0.09840057       0.35890022
C        0.77062437       0.84809432      -0.32248650
H       -1.96213621      -0.49670549       1.48345357
H       -1.80984091       1.27208021       1.05803152
H       -2.05380962       0.68289974      -1.38306999
H       -2.15573253      -1.08271711      -0.95969680
H        0.70951178      -1.82884897      -0.69530198
H        0.38577682      -1.84576381       1.05727974
H        2.78095567       0.57983553      -0.37791989
H        2.05410255       0.06800723       1.33313157
H        0.68746931       1.37758704      -1.26746291
H        2.24573809       1.63589997      -0.48478020
16
Frame=10 idx=005037 GeodesicLength=0.4844230321391344 rxn_smarts="[C:1]1([H:7])([H:8])[C:2]([H:9])([H:10])[C:3]12[C:4]([H:11])([H:12])[C:5]([H:13])([H:14])[C:6]2([H:15])[H:16]>>[C:1]1([H:7])([H:8])[C:2]([H:9])([H:10])[C:3]12[C:4]([H:11])([H:12])[C:5]([H:14])=[C:6]2[H:15].[H:13][H:16]"
C       -1.64729951       0.24174165       0.75904812
C       -1.76293153      -0.10804585      -0.70120486
C       -0.42442259      -0.04199239      -0.04954965
C        0.57507249      -1.20423141       0.19286500
C        1.60529620      -0.09338053       0.37394785
C        0.76877048       0.85407311      -0.31284728
H       -1.96733420      -0.50039817       1.47992602
H       -1.81447633       1.26928686       1.05692299
H       -2.05106254       0.68117316      -1.38455823
H       -2.14874133      -1.08513384      -0.96488603
H        0.72072604      -1.82288612      -0.69409154
H        0.38407346      -1.84619422       1.05498855
H        2.78948824       0.55276451      -0.38891256
H        2.04859068       0.06972270       1.34999516
H        0.66052746       1.41198616      -1.23927769
H        2.26372300       1.62151438      -0.53236587
16
Frame=11 idx=005037 GeodesicLength=0.5325034811142246 rxn_smarts="[C:1]1([H:7])([H:8])[C:2]([H:9])([H:10])[C:3]12[C:4]([H:11])([H:12])[C:5]([H:13])([H:14])[C:6]2([H:15])[H:16]>>[C:1]1([H:7])([H:8])[C:2]([H:9])([H:10])[C:3]12[C:4]([H:11])([H:12])[C:5]([H:14])=[C:6]2[H:15].[H:13][H:16]"
C       -1.65073641       0.23899546       0.75744852
C       -1.75919150      -0.10970694      -0.70351827
C       -0.42346734      -0.04158239      -0.04604030
C        0.57643955      -1.20032146       0.19444794
C        1.60188255      -0.08806553       0.38916759
C        0.76690488       0.86037622      -0.30279547
H       -1.97280504      -0.50455138       1.47600158
H       -1.81949555       1.26617909       1.05597892
H       -2.04793479       0.67984516      -1.38625052
H       -2.14125774      -1.08727888      -0.97076207
H        0.73235079      -1.81665806      -0.69252602
H        0.38277499      -1.84630242       1.05298900
H        2.79767730       0.52518168      -0.39944602
H        2.04310846       0.07165767       1.36720429
H        0.63360375       1.44802199      -1.20792435
H        2.28014611       1.60420977      -0.58397481
16
Frame=12 idx=005037 GeodesicLength=0.5805199403030605 rxn_smarts="[C:1]1([H:7])([H:8])[C:2]([H:9])([H:10])[C:3]12[C:4]([H:11])([H:12])[C:5]([H:13])([H:14])[C:6]2([H:15])[H:16]>>[C:1]1([H:7])([H:8])[C:2]([H:9])([H:10])[C:3]12[C:4]([H:11])([H:12])[C:5]([H:14])=[C:6]2[H:15].[H:13][H:16]"
C       -1.65413165       0.23599212       0.75569835
C       -1.75500289      -0.11107000      -0.70600623
C       -0.42234149      -0.04098843      -0.04240690
C        0.57803633      -1.19606370       0.19621795
C        1.59851836      -0.08238048       0.40448277
C        0.76496715       0.86706589      -0.29228989
H       -1.97833387      -0.50925132       1.47153679
H       -1.82459355       1.26267469       1.05519047
H       -2.04418614       0.67903029      -1.38789323
H       -2.13314514      -1.08905303      -0.97719427
H        0.74422961      -1.81003004      -0.69059797
H        0.38177136      -1.84609254       1.05108145
H        2.80543435       0.49760605      -0.40903047
H        2.03735205       0.07382705       1.38465082
H        0.60699417       1.48505706      -1.17381363
H        2.29443135       1.58367640      -0.63962602
16
Frame=13 idx=005037 GeodesicLength=0.6282526336798808 rxn_smarts="[C:1]1([H:7])([H:8])[C:2]([H:9])([H:10])[C:3]12[C:4]([H:11])([H:12])[C:5]([H:13])([H:14])[C:6]2([H:15])[H:16]>>[C:1]1([H:7])([H:8])[C:2]([H:9])([H:10])[C:3]12[C:4]([H:11])([H:12])[C:5]([H:14])=[C:6]2[H:15].[H:13][H:16]"
C       -1.65768001       0.23270121       0.75374894
C       -1.75025507      -0.11203483      -0.70888479
C       -0.42100421      -0.04016901      -0.03851228
C        0.57997913      -1.19143354       0.19837999
C        1.59549591      -0.07638244       0.42002789
C        0.76303275       0.87422495      -0.28095451
H       -1.98424910      -0.51459790       1.46635018
H       -1.83011675       1.25872516       1.05460372
H       -2.03958873       0.67888123      -1.38971846
H       -2.12421079      -1.09033235      -0.98463443
H        0.75649034      -1.80305961      -0.68815131
H        0.38116149      -1.84545234       1.04956763
H        2.81260351       0.47021008      -0.41790587
H        2.03176663       0.07616080       1.40238250
H        0.58097907       1.52357968      -1.13544576
H        2.30559583       1.55897890      -0.70085345
16
Frame=14 idx=005037 GeodesicLength=0.6762025297607956 rxn_smarts="[C:1]1([H:7])([H:8])[C:2]([H:9])([H:10])[C:3]12[C:4]([H:11])([H:12])[C:5]([H:13])([H:14])[C:6]2([H:15])[H:16]>>[C:1]1([H:7])([H:8])[C:2]([H:9])([H:10])[C:3]12[C:4]([H:11])([H:12])[C:5]([H:14])=[C:6]2[H:15].[H:13][H:16]"
C       -1.66146432       0.22907719       0.75172054
C       -1.74504144      -0.11242620      -0.71213745
C       -0.41947454      -0.03906415      -0.03430644
C        0.58233201      -1.18638565       0.20087647
C        1.59288835      -0.07001955       0.43586873
C        0.76109604       0.88199482      -0.26865487
H       -1.99064049      -0.52074271       1.46052241
H       -1.83617310       1.25423362       1.05447120
H       -2.03424019       0.67968413      -1.39166990
H       -2.11455484      -1.09089684      -0.99317539
H        0.76924784      -1.79553636      -0.68537192
H        0.38100783      -1.84447243       1.04836539
H        2.81957880       0.44383504      -0.42554857
H        2.02637394       0.07856078       1.42063133
H        0.55599004       1.56267271      -1.09374984
H        2.31307407       1.52948557      -0.76784167
16
Frame=15 idx=005037 GeodesicLength=0.7241165290117972 rxn_smarts="[C:1]1([H:7])([H:8])[C:2]([H:9])([H:10])[C:3]12[C:4]([H:11])([H:12])[C:5]([H:13])([H:14])[C:6]2([H:15])[H:16]>>[C:1]1([H:7])([H:8])[C:2]([H:9])([H:10])[C:3]12[C:4]([H:11])([H:12])[C:5]([H:14])=[C:6]2[H:15].[H:13][H:16]"
C       -1.66523071       0.22517538       0.74959883
C       -1.73916705      -0.11208299      -0.71558958
C       -0.41769620      -0.03761528      -0.02975922
C        0.58503906      -1.18090261       0.20357192
C        1.59049855      -0.06329565       0.45200960
C        0.75904034       0.89046751      -0.25522330
H       -1.99716589      -0.52767171       1.45390918
H       -1.84249233       1.24923395       1.05481685
H       -2.02791388       0.68166720      -1.39341057
H       -2.10394464      -1.09055353      -1.00265297
H        0.78246876      -1.78729115      -0.68237778
H        0.38128160      -1.84325329       1.04713984
H        2.82612436       0.41953397      -0.43140711
H        2.02081777       0.08088410       1.43936610
H        0.53261511       1.60111109      -1.04974215
H        2.31572516       1.49459302      -0.84024964
16
Frame=16 idx=005037 GeodesicLength=0.7717946703915679 rxn_smarts="[C:1]1([H:7])([H:8])[C:2]([H:9])([H:10])[C:3]12[C:4]([H:11])([H:12])[C:5]([H:13])([H:14])[C:6]2([H:15])[H:16]>>[C:1]1([H:7])([H:8])[C:2]([H:9])([H:10])[C:3]12[C:4]([H:11])([H:12])[C:5]([H:14])=[C:6]2[H:15].[H:13][H:16]"
C       -1.66896475       0.22105946       0.74744184
C       -1.73254288      -0.11090464      -0.71925631
C       -0.41560702      -0.03577781      -0.02475997
C        0.58813390      -1.17494611       0.20644076
C        1.58846865      -0.05626904       0.46846621
C        0.75695146       0.89970013      -0.24035862
H       -2.00391113      -0.53531240       1.44647529
H       -1.84907300       1.24375692       1.05578426
H       -2.02041921       0.68492249      -1.39494065
H       -2.09230763      -1.08915136      -1.01322146
H        0.79616336      -1.77823519      -0.67929470
H        0.38197262      -1.84174110       1.04582856
H        2.83214253       0.39829976      -0.43554306
H        2.01526726       0.08295997       1.45858372
H        0.51141280       1.63809765      -1.00405020
H        2.31231304       1.45354129      -0.91759567
