13
Frame=0 idx=005529 GeodesicLength=0.0 rxn_smarts="[O:1]=[C:2]([C:3]([C@@:4]1([H:10])[C:5]([H:11])([H:12])[N:6]1[H:13])([H:8])[H:9])[H:7]>>[O:1]([C:2](=[C:3]([H:8])[H:9])[H:7])[C@@:4]1([H:10])[C:5]([H:11])([H:12])[N:6]1[H:13]"
O        0.84424334       1.49726489      -0.16796049
C        1.79605620       0.70428702       0.04013213
C        1.64658674      -0.66923825      -0.00665439
C       -0.66763239       0.01262751       0.39000575
C       -1.79954293       0.44435062      -0.42167884
N       -1.42734054      -0.94787303      -0.15060608
H        2.77445084       1.14344173       0.29523236
H        2.42354969      -1.32841799       0.36500541
H        1.01588039      -1.06603546      -0.78978640
H       -0.37552732       0.20265756       1.40553014
H       -1.64745667       0.75876448      -1.44495480
H       -2.64829815       0.88187313       0.09590293
H       -1.93496919      -1.63370216       0.38983231
13
Frame=1 idx=005529 GeodesicLength=0.05790863724778152 rxn_smarts="[O:1]=[C:2]([C:3]([C@@:4]1([H:10])[C:5]([H:11])([H:12])[N:6]1[H:13])([H:8])[H:9])[H:7]>>[O:1]([C:2](=[C:3]([H:8])[H:9])[H:7])[C@@:4]1([H:10])[C:5]([H:11])([H:12])[N:6]1[H:13]"
O        0.83755776       1.50073229      -0.14813301
C        1.79403458       0.70649436       0.04036382
C        1.63051734      -0.66729228       0.00368952
C       -0.65222951       0.01258010       0.38048069
C       -1.79451327       0.44426779      -0.41847232
N       -1.41709139      -0.94958720      -0.16668602
H        2.78409740       1.14180403       0.25008813
H        2.39776955      -1.32356231       0.40023259
H        1.02889092      -1.07176820      -0.79839587
H       -0.38487653       0.19087339       1.40586752
H       -1.65161909       0.76958758      -1.43983817
H       -2.64341469       0.87069309       0.10777490
H       -1.92912308      -1.62482264       0.38302823
13
Frame=2 idx=005529 GeodesicLength=0.11582712512517723 rxn_smarts="[O:1]=[C:2]([C:3]([C@@:4]1([H:10])[C:5]([H:11])([H:12])[N:6]1[H:13])([H:8])[H:9])[H:7]>>[O:1]([C:2](=[C:3]([H:8])[H:9])[H:7])[C@@:4]1([H:10])[C:5]([H:11])([H:12])[N:6]1[H:13]"
O        0.83110354       1.50406166      -0.12793193
C        1.79194946       0.70856206       0.04032548
C        1.61472862      -0.66533773       0.01345264
C       -0.63713579       0.01298148       0.37162378
C       -1.78918737       0.44430825      -0.41534251
N       -1.40698204      -0.95092157      -0.18233761
H        2.79156144       1.13948393       0.20556996
H        2.37267917      -1.31798547       0.43354430
H        1.04173037      -1.07820699      -0.80537196
H       -0.39407515       0.17906713       1.40603795
H       -1.65500712       0.78014026      -1.43466088
H       -2.63838179       0.85977563       0.11886042
H       -1.92298335      -1.61592865       0.37623037
13
Frame=3 idx=005529 GeodesicLength=0.17374590258764544 rxn_smarts="[O:1]=[C:2]([C:3]([C@@:4]1([H:10])[C:5]([H:11])([H:12])[N:6]1[H:13])([H:8])[H:9])[H:7]>>[O:1]([C:2](=[C:3]([H:8])[H:9])[H:7])[C@@:4]1([H:10])[C:5]([H:11])([H:12])[N:6]1[H:13]"
O        0.82488320       1.50722935      -0.10747481
C        1.78979209       0.71048447       0.03983657
C        1.59922130      -0.66339281       0.02256522
C       -0.62231390       0.01379324       0.36340828
C       -1.78357191       0.44444782      -0.41229898
N       -1.39702920      -0.95191934      -0.19750211
H        2.79686985       1.13662513       0.16217754
H        2.34835300      -1.31175616       0.46489316
H        1.05431611      -1.08534149      -0.81090593
H       -0.40304867       0.16729289       1.40602787
H       -1.65765482       0.79034560      -1.42947772
H       -2.63317940       0.84917101       0.12917511
H       -1.91663764      -1.60697971       0.36957578
13
Frame=4 idx=005529 GeodesicLength=0.231653206549794 rxn_smarts="[O:1]=[C:2]([C:3]([C@@:4]1([H:10])[C:5]([H:11])([H:12])[N:6]1[H:13])([H:8])[H:9])[H:7]>>[O:1]([C:2](=[C:3]([H:8])[H:9])[H:7])[C@@:4]1([H:10])[C:5]([H:11])([H:12])[N:6]1[H:13]"
O        0.81889931       1.51020778      -0.08689138
C        1.78754243       0.71225625       0.03871517
C        1.58399427      -0.66147416       0.03095329
C       -0.60773513       0.01497540       0.35580181
C       -1.77768195       0.44466295      -0.40934800
N       -1.38725614      -0.95262740      -0.21212616
H        2.80012190       1.13338598       0.12040710
H        2.32484748      -1.30493823       0.49424934
H        1.06656641      -1.09316938      -0.81518326
H       -0.41173215       0.15560410       1.40582336
H       -1.65960876       0.80013285      -1.42433996
H       -2.62779421       0.83892727       0.13874566
H       -1.91016348      -1.59794340       0.36319303
13
Frame=5 idx=005529 GeodesicLength=0.28953782240221954 rxn_smarts="[O:1]=[C:2]([C:3]([C@@:4]1([H:10])[C:5]([H:11])([H:12])[N:6]1[H:13])([H:8])[H:9])[H:7]>>[O:1]([C:2](=[C:3]([H:8])[H:9])[H:7])[C@@:4]1([H:10])[C:5]([H:11])([H:12])[N:6]1[H:13]"
O        0.81316655       1.51296705      -0.06642732
C        1.78518654       0.71387225       0.03668138
C        1.56904303      -0.65959369       0.03846661
C       -0.59336338       0.01649318       0.34875457
C       -1.77154403       0.44491783      -0.40649202
N       -1.37769950      -0.95310616      -0.22611855
H        2.80144850       1.12993565       0.08107508
H        2.30219141      -1.29758682       0.52153002
H        1.07837697      -1.10171275      -0.81844124
H       -0.42002026       0.14410162       1.40538578
H       -1.66095568       0.80938771      -1.41931280
H       -2.62220670       0.82910050       0.14761989
H       -1.90362345      -1.58877638       0.35727859
13
Frame=6 idx=005529 GeodesicLength=0.347439295506287 rxn_smarts="[O:1]=[C:2]([C:3]([C@@:4]1([H:10])[C:5]([H:11])([H:12])[N:6]1[H:13])([H:8])[H:9])[H:7]>>[O:1]([C:2](=[C:3]([H:8])[H:9])[H:7])[C@@:4]1([H:10])[C:5]([H:11])([H:12])[N:6]1[H:13]"
O        0.80765587       1.51550467      -0.04608251
C        1.78267468       0.71536366       0.03375650
C        1.55435655      -0.65777914       0.04512302
C       -0.57919011       0.01828616       0.34226891
C       -1.76518965       0.44521976      -0.40373259
N       -1.36837817      -0.95340955      -0.23949465
H        2.80114173       1.12647453       0.04414029
H        2.28041362      -1.28977156       0.54685842
H        1.08973028      -1.11103138      -0.82081353
H       -0.42793229       0.13276450       1.40476670
H       -1.66173843       0.81813619      -1.41444150
H       -2.61645524       0.81974386       0.15583587
H       -1.89708885      -1.57950170       0.35181507
13
Frame=7 idx=005529 GeodesicLength=0.40531170723419796 rxn_smarts="[O:1]=[C:2]([C:3]([C@@:4]1([H:10])[C:5]([H:11])([H:12])[N:6]1[H:13])([H:8])[H:9])[H:7]>>[O:1]([C:2](=[C:3]([H:8])[H:9])[H:7])[C@@:4]1([H:10])[C:5]([H:11])([H:12])[N:6]1[H:13]"
O        0.80235889       1.51772754      -0.02589419
C        1.78003198       0.71671071       0.03024728
C        1.53989738      -0.65599524       0.05091665
C       -0.56527142       0.02045217       0.33624025
C       -1.75863911       0.44546045      -0.40110770
N       -1.35929297      -0.95353647      -0.25218831
H        2.79956910       1.12286208       0.00953027
H        2.25928572      -1.28169682       0.57010332
H        1.10062932      -1.12043921      -0.82235007
H       -0.43553626       0.12168491       1.40390301
H       -1.66196626       0.82617895      -1.40972612
H       -2.61054833       0.81068343       0.16331405
H       -1.89051803      -1.57009249       0.34701156
13
Frame=8 idx=005529 GeodesicLength=0.46311405245900533 rxn_smarts="[O:1]=[C:2]([C:3]([C@@:4]1([H:10])[C:5]([H:11])([H:12])[N:6]1[H:13])([H:8])[H:9])[H:7]>>[O:1]([C:2](=[C:3]([H:8])[H:9])[H:7])[C@@:4]1([H:10])[C:5]([H:11])([H:12])[N:6]1[H:13]"
O        0.79729122       1.51970555      -0.00590609
C        1.77719052       0.71795656       0.02588907
C        1.52569929      -0.65428479       0.05591943
C       -0.55157426       0.02279306       0.33071343
C       -1.75194343       0.44572820      -0.39857288
N       -1.35048221      -0.95357296      -0.26430710
H        2.79688428       1.11945673      -0.02272110
H        2.23900882      -1.27327160       0.59166066
H        1.11098326      -1.13052262      -0.82323913
H       -0.44277877       0.11078186       1.40288538
H       -1.66174517       0.83374939      -1.40518734
H       -2.60452745       0.80207785       0.17022048
H       -1.88400611      -1.56059724       0.34264519
13
Frame=9 idx=005529 GeodesicLength=0.5209468573357507 rxn_smarts="[O:1]=[C:2]([C:3]([C@@:4]1([H:10])[C:5]([H:11])([H:12])[N:6]1[H:13])([H:8])[H:9])[H:7]>>[O:1]([C:2](=[C:3]([H:8])[H:9])[H:7])[C@@:4]1([H:10])[C:5]([H:11])([H:12])[N:6]1[H:13]"
O        0.79242383       1.52137560       0.01425687
C        1.77406604       0.71906136       0.02086048
C        1.51174532      -0.65262220       0.06041957
C       -0.53811084       0.02527706       0.32570885
C       -1.74506797       0.44607168      -0.39608981
N       -1.34188125      -0.95344674      -0.27608610
H        2.79315481       1.11616600      -0.05385931
H        2.21951040      -1.26436911       0.61192614
H        1.12096473      -1.14119279      -0.82317182
H       -0.44983368       0.09985189       1.40177058
H       -1.66095259       0.84110593      -1.40068037
H       -2.59842494       0.79381611       0.17661327
H       -1.87759387      -1.55109479       0.33833164
13
Frame=10 idx=005529 GeodesicLength=0.5787626792679678 rxn_smarts="[O:1]=[C:2]([C:3]([C@@:4]1([H:10])[C:5]([H:11])([H:12])[N:6]1[H:13])([H:8])[H:9])[H:7]>>[O:1]([C:2](=[C:3]([H:8])[H:9])[H:7])[C@@:4]1([H:10])[C:5]([H:11])([H:12])[N:6]1[H:13]"
O        0.78778222       1.52273389       0.03439626
C        1.77071618       0.72007596       0.01519840
C        1.49803419      -0.65103158       0.06436757
C       -0.52488266       0.02790857       0.32116981
C       -1.73808053       0.44646444      -0.39366379
N       -1.33351743      -0.95320582      -0.28749117
H        2.78861148       1.11307186      -0.08358105
H        2.20073096      -1.25513748       0.63092574
H        1.13053359      -1.15234697      -0.82232800
H       -0.45666120       0.08898408       1.40053306
H       -1.65972927       0.84820292      -1.39624469
H       -2.59228276       0.78587524       0.18253047
H       -1.87125477      -1.54159512       0.33418739
13
Frame=11 idx=005529 GeodesicLength=0.6365883028239779 rxn_smarts="[O:1]=[C:2]([C:3]([C@@:4]1([H:10])[C:5]([H:11])([H:12])[N:6]1[H:13])([H:8])[H:9])[H:7]>>[O:1]([C:2](=[C:3]([H:8])[H:9])[H:7])[C@@:4]1([H:10])[C:5]([H:11])([H:12])[N:6]1[H:13]"
O        0.78336311       1.52374904       0.05437030
C        1.76713345       0.72101446       0.00893484
C        1.48454166      -0.64950233       0.06773016
C       -0.51188154       0.03069053       0.31705489
C       -1.73099553       0.44687541      -0.39128869
N       -1.32537887      -0.95286934      -0.29849567
H        2.78338856       1.11016450      -0.11168990
H        2.18258002      -1.24562986       0.64866648
H        1.13968413      -1.16386724      -0.82085256
H       -0.46325392       0.07824382       1.39915580
H       -1.65812556       0.85498316      -1.39189386
H       -2.58609848       0.77822680       0.18801293
H       -1.86495704      -1.53207894       0.33029530
13
Frame=12 idx=005529 GeodesicLength=0.6944050131579844 rxn_smarts="[O:1]=[C:2]([C:3]([C@@:4]1([H:10])[C:5]([H:11])([H:12])[N:6]1[H:13])([H:8])[H:9])[H:7]>>[O:1]([C:2](=[C:3]([H:8])[H:9])[H:7])[C@@:4]1([H:10])[C:5]([H:11])([H:12])[N:6]1[H:13]"
O        0.77917572       1.52442957       0.07437504
C        1.76327960       0.72185818       0.00214659
C        1.47128039      -0.64803570       0.07067641
C       -0.49911199       0.03355940       0.31339107
C       -1.72381188       0.44734503      -0.38894985
N       -1.31744934      -0.95242517      -0.30923486
H        2.77750715       1.10746419      -0.13883558
H        2.16509750      -1.23578454       0.66539466
H        1.14846854      -1.17580030      -0.81860285
H       -0.46968535       0.06751281       1.39769503
H       -1.65610637       0.86161930      -1.38756799
H       -2.57989930       0.77085466       0.19308892
H       -1.85874467      -1.52259741       0.32642342
13
Frame=13 idx=005529 GeodesicLength=0.752242606148291 rxn_smarts="[O:1]=[C:2]([C:3]([C@@:4]1([H:10])[C:5]([H:11])([H:12])[N:6]1[H:13])([H:8])[H:9])[H:7]>>[O:1]([C:2](=[C:3]([H:8])[H:9])[H:7])[C@@:4]1([H:10])[C:5]([H:11])([H:12])[N:6]1[H:13]"
O        0.77523253       1.52473781       0.09463868
C        1.75913107       0.72263475      -0.00500189
C        1.45825169      -0.64664266       0.07339735
C       -0.48657828       0.03648593       0.31020630
C       -1.71651064       0.44791606      -0.38663534
N       -1.30968669      -0.95183932      -0.31984735
H        2.77090188       1.10495072      -0.16580368
H        2.14826365      -1.22558102       0.68138303
H        1.15697778      -1.18813238      -0.81546200
H       -0.47604858       0.05666574       1.39620297
H       -1.65360292       0.86828936      -1.38320976
H       -2.57370892       0.76371349       0.19777455
H       -1.85262259      -1.51319848       0.32235713
13
Frame=14 idx=005529 GeodesicLength=0.8101483952234579 rxn_smarts="[O:1]=[C:2]([C:3]([C@@:4]1([H:10])[C:5]([H:11])([H:12])[N:6]1[H:13])([H:8])[H:9])[H:7]>>[O:1]([C:2](=[C:3]([H:8])[H:9])[H:7])[C@@:4]1([H:10])[C:5]([H:11])([H:12])[N:6]1[H:13]"
O        0.77152834       1.52465322       0.11529255
C        1.75470003       0.72335949      -0.01237708
C        1.44544398      -0.64532637       0.07601938
C       -0.47427771       0.03944489       0.30752115
C       -1.70906290       0.44861004      -0.38432773
N       -1.30203628      -0.95108797      -0.33043017
H        2.76348712       1.10260975      -0.19312793
H        2.13203892      -1.21502771       0.69682521
H        1.16524072      -1.20084321      -0.81135999
H       -0.48241602       0.04564701       1.39470200
H       -1.65055643       0.87510496      -1.37875348
H       -2.56752513       0.75675367       0.20208082
H       -1.84656464      -1.50389778       0.31793528
13
Frame=15 idx=005529 GeodesicLength=0.8680663712402009 rxn_smarts="[O:1]=[C:2]([C:3]([C@@:4]1([H:10])[C:5]([H:11])([H:12])[N:6]1[H:13])([H:8])[H:9])[H:7]>>[O:1]([C:2](=[C:3]([H:8])[H:9])[H:7])[C@@:4]1([H:10])[C:5]([H:11])([H:12])[N:6]1[H:13]"
O        0.76808479       1.52418562       0.13588560
C        1.74997298       0.72400963      -0.02007662
C        1.43284903      -0.64408305       0.07832134
C       -0.46218573       0.04246368       0.30525870
C       -1.70153057       0.44935649      -0.38204564
N       -1.29454938      -0.95023878      -0.34080161
H        2.75546374       1.10045552      -0.21972263
H        2.11640766      -1.20422009       0.71140569
H        1.17320190      -1.21379126      -0.80658930
H       -0.48865861       0.03465459       1.39313324
H       -1.64713519       0.88182086      -1.37431177
H       -2.56134471       0.75002807       0.20603521
H       -1.84057591      -1.49464129       0.31350778
13
Frame=16 idx=005529 GeodesicLength=0.9260268049029635 rxn_smarts="[O:1]=[C:2]([C:3]([C@@:4]1([H:10])[C:5]([H:11])([H:12])[N:6]1[H:13])([H:8])[H:9])[H:7]>>[O:1]([C:2](=[C:3]([H:8])[H:9])[H:7])[C@@:4]1([H:10])[C:5]([H:11])([H:12])[N:6]1[H:13]"
O        0.76491270       1.52331331       0.15654119
C        1.74497944       0.72462014      -0.02795938
C        1.42045898      -0.64291896       0.08042540
C       -0.45030011       0.04551804       0.30344213
C       -1.69389850       0.45017162      -0.37978061
N       -1.28720038      -0.94927581      -0.35104442
H        2.74680114       1.09851023      -0.24610310
H        2.10132437      -1.19318649       0.72531402
H        1.18089933      -1.22694413      -0.80110483
H       -0.49483702       0.02361592       1.39152864
H       -1.64328948       0.88853675      -1.36984501
H       -2.55518107       0.74349461       0.20964056
H       -1.83466939      -1.48545525       0.30894541
