9
Frame=0 idx=002124 GeodesicLength=0.0 rxn_smarts="[C:1]([C:2]#[C:3][C:4]#[C:5][H:9])([H:6])([H:7])[H:8]>>[C:1]([C:2](=[C+:3][C:4]#[C-:5])[H:9])([H:6])([H:7])[H:8]"
C       -1.40283905      -0.45624167      -0.09165181
C       -0.06803537       0.13682822      -0.01991649
C        0.86735150       0.96337676      -0.02249861
C        2.18166345       1.47584113       0.05117300
C        2.44179484       0.22721243       0.22526921
H       -1.66910368      -0.95205642       0.84246389
H       -1.47409612      -1.17756284      -0.90647859
H       -2.13063365       0.33633288      -0.27582537
H        1.25389806      -0.55373046       0.19746478
9
Frame=1 idx=002124 GeodesicLength=0.12732883591676575 rxn_smarts="[C:1]([C:2]#[C:3][C:4]#[C:5][H:9])([H:6])([H:7])[H:8]>>[C:1]([C:2](=[C+:3][C:4]#[C-:5])[H:9])([H:6])([H:7])[H:8]"
C       -1.41090787      -0.45299463      -0.09295773
C       -0.06346595       0.11174375      -0.01358101
C        0.85375043       0.95831592      -0.02106922
C        2.15852492       1.48198493       0.04390137
C        2.47742207       0.25089371       0.22645886
H       -1.68932194      -0.94695855       0.83866560
H       -1.49253484      -1.17066132      -0.91011200
H       -2.12836464       0.34886650      -0.27722126
H        1.29489781      -0.58119031       0.20591541
9
Frame=2 idx=002124 GeodesicLength=0.2542324158980729 rxn_smarts="[C:1]([C:2]#[C:3][C:4]#[C:5][H:9])([H:6])([H:7])[H:8]>>[C:1]([C:2](=[C+:3][C:4]#[C-:5])[H:9])([H:6])([H:7])[H:8]"
C       -1.41885799      -0.44958113      -0.09425100
C       -0.05940207       0.08698713      -0.00749048
C        0.83942339       0.95312008      -0.01965030
C        2.13544885       1.48594798       0.03566048
C        2.51260035       0.27584246       0.22916466
H       -1.70911882      -0.94188471       0.83470356
H       -1.51092053      -1.16317795      -0.91393338
H       -2.12626948       0.36118795      -0.27810328
H        1.33709630      -0.60844181       0.21389973
9
Frame=3 idx=002124 GeodesicLength=0.38048396335880275 rxn_smarts="[C:1]([C:2]#[C:3][C:4]#[C:5][H:9])([H:6])([H:7])[H:8]>>[C:1]([C:2](=[C+:3][C:4]#[C-:5])[H:9])([H:6])([H:7])[H:8]"
C       -1.42671322      -0.44604418      -0.09547284
C       -0.05595976       0.06287925      -0.00179365
C        0.82455456       0.94783771      -0.01919898
C        2.11263431       1.48771939       0.02761650
C        2.54737170       0.30187531       0.23298560
H       -1.72843185      -0.93674644       0.83074449
H       -1.52928043      -1.15532161      -0.91772913
H       -2.12452649       0.37312118      -0.27852507
H        1.38035117      -0.63532060       0.22137309
9
Frame=4 idx=002124 GeodesicLength=0.5058947470865763 rxn_smarts="[C:1]([C:2]#[C:3][C:4]#[C:5][H:9])([H:6])([H:7])[H:8]>>[C:1]([C:2](=[C+:3][C:4]#[C-:5])[H:9])([H:6])([H:7])[H:8]"
C       -1.43450387      -0.44242149      -0.09667798
C       -0.05321553       0.03937822       0.00477829
C        0.80876114       0.94285848      -0.01580921
C        2.09063425       1.48641078       0.01374101
C        2.58149542       0.32961191       0.24107520
H       -1.74792527      -0.93260881       0.82598715
H       -1.54718199      -1.14621645      -0.92239017
H       -2.12308165       0.38483488      -0.27807261
H        1.42501749      -0.66184752       0.22736832
9
Frame=5 idx=002124 GeodesicLength=0.6302120238728981 rxn_smarts="[C:1]([C:2]#[C:3][C:4]#[C:5][H:9])([H:6])([H:7])[H:8]>>[C:1]([C:2](=[C+:3][C:4]#[C-:5])[H:9])([H:6])([H:7])[H:8]"
C       -1.44231927      -0.43876493      -0.09787004
C       -0.05121016       0.01692352       0.00977633
C        0.79292062       0.93764315      -0.01629742
C        2.06854608       1.48425325       0.00997425
C        2.61619800       0.35708943       0.24177326
H       -1.76725166      -0.92620626       0.82233282
H       -1.56504184      -1.13900663      -0.92524792
H       -2.12208747       0.39565678      -0.27944947
H        1.47024570      -0.68758831       0.23500819
9
Frame=6 idx=002124 GeodesicLength=0.7532299271822321 rxn_smarts="[C:1]([C:2]#[C:3][C:4]#[C:5][H:9])([H:6])([H:7])[H:8]>>[C:1]([C:2](=[C+:3][C:4]#[C-:5])[H:9])([H:6])([H:7])[H:8]"
C       -1.45020925      -0.43510616      -0.09910072
C       -0.05000753      -0.00448688       0.01408688
C        0.77673480       0.93255651      -0.01754414
C        2.04713946       1.48012920       0.00843226
C        2.65093887       0.38518379       0.24074509
H       -1.78631621      -0.91950495       0.81876014
H       -1.58287374      -1.13204994      -0.92780868
H       -2.12165600       0.40591040      -0.28101863
H        1.51624959      -0.71263198       0.24344780
9
Frame=7 idx=002124 GeodesicLength=0.8747574075191649 rxn_smarts="[C:1]([C:2]#[C:3][C:4]#[C:5][H:9])([H:6])([H:7])[H:8]>>[C:1]([C:2](=[C+:3][C:4]#[C-:5])[H:9])([H:6])([H:7])[H:8]"
C       -1.45822283      -0.43147643      -0.10034693
C       -0.04954104      -0.02524994       0.01843079
C        0.76010332       0.92742083      -0.01909761
C        2.02632467       1.47400650       0.00826026
C        2.68572708       0.41423953       0.23811658
H       -1.80560911      -0.91267136       0.81506281
H       -1.60063034      -1.12507154      -0.93032794
H       -2.12150179       0.41585279      -0.28277993
H        1.56335003      -0.73705038       0.25268198
9
Frame=8 idx=002124 GeodesicLength=0.9945733472492843 rxn_smarts="[C:1]([C:2]#[C:3][C:4]#[C:5][H:9])([H:6])([H:7])[H:8]>>[C:1]([C:2](=[C+:3][C:4]#[C-:5])[H:9])([H:6])([H:7])[H:8]"
C       -1.46639216      -0.42787518      -0.10153491
C       -0.04973684      -0.04542208       0.02216895
C        0.74309785       0.92222469      -0.02172942
C        2.00624259       1.46576875       0.00927445
C        2.72021518       0.44456969       0.23581801
H       -1.82470484      -0.90559601       0.81154569
H       -1.61869962      -1.11819991      -0.93256747
H       -2.12159950       0.42558534      -0.28444846
H        1.61157734      -0.76105529       0.26147317
9
Frame=9 idx=002124 GeodesicLength=1.1122788153324266 rxn_smarts="[C:1]([C:2]#[C:3][C:4]#[C:5][H:9])([H:6])([H:7])[H:8]>>[C:1]([C:2](=[C+:3][C:4]#[C-:5])[H:9])([H:6])([H:7])[H:8]"
C       -1.47470388      -0.42429706      -0.10285809
C       -0.05070169      -0.06503057       0.02659332
C        0.72554277       0.91710670      -0.02252731
C        1.98653536       1.45554985       0.01104427
C        2.75451922       0.47580003       0.23045543
H       -1.84448116      -0.89828143       0.80765951
H       -1.63612779      -1.11145324      -0.93487877
H       -2.12156438       0.43525028      -0.28692177
H        1.66098155      -0.78464457       0.27143343
9
Frame=10 idx=002124 GeodesicLength=1.2279873855785923 rxn_smarts="[C:1]([C:2]#[C:3][C:4]#[C:5][H:9])([H:6])([H:7])[H:8]>>[C:1]([C:2](=[C+:3][C:4]#[C-:5])[H:9])([H:6])([H:7])[H:8]"
C       -1.48322706      -0.42075175      -0.10410890
C       -0.05238958      -0.08384458       0.03046475
C        0.70767470       0.91211394      -0.02432111
C        1.96787579       1.44283793       0.01308621
C        2.78825151       0.50848218       0.22622300
H       -1.86393359      -0.89101170       0.80389282
H       -1.65379375      -1.10464039      -0.93707884
H       -2.12189369       0.44471626      -0.28901779
H        1.71143567      -0.80790190       0.28085986
9
Frame=11 idx=002124 GeodesicLength=1.341746989482606 rxn_smarts="[C:1]([C:2]#[C:3][C:4]#[C:5][H:9])([H:6])([H:7])[H:8]>>[C:1]([C:2](=[C+:3][C:4]#[C-:5])[H:9])([H:6])([H:7])[H:8]"
C       -1.49204536      -0.41722129      -0.10530913
C       -0.05476753      -0.10215376       0.03363157
C        0.68951902       0.90702025      -0.02689392
C        1.95014811       1.42757102       0.01550396
C        2.82153737       0.54288595       0.22309663
H       -1.88325303      -0.88353901       0.80031421
H       -1.67198383      -1.09781159      -0.93908592
H       -2.12255083       0.45406293      -0.29090904
H        1.76339607      -0.83081449       0.28965164
9
Frame=12 idx=002124 GeodesicLength=1.453614628779327 rxn_smarts="[C:1]([C:2]#[C:3][C:4]#[C:5][H:9])([H:6])([H:7])[H:8]>>[C:1]([C:2](=[C+:3][C:4]#[C-:5])[H:9])([H:6])([H:7])[H:8]"
C       -1.50122680      -0.41369921      -0.10662011
C       -0.05796580      -0.11991771       0.03674699
C        0.67092747       0.90199634      -0.02810145
C        1.93351583       1.40928276       0.01649987
C        2.85449243       0.57905886       0.21982700
H       -1.90282389      -0.87653268       0.79628677
H       -1.69030840      -1.09036157      -0.94164069
H       -2.12362519       0.46336025      -0.29238940
H        1.81701435      -0.85318703       0.29939101
9
Frame=13 idx=002124 GeodesicLength=1.563744701774753 rxn_smarts="[C:1]([C:2]#[C:3][C:4]#[C:5][H:9])([H:6])([H:7])[H:8]>>[C:1]([C:2](=[C+:3][C:4]#[C-:5])[H:9])([H:6])([H:7])[H:8]"
C       -1.51082833      -0.41018905      -0.10824260
C       -0.06204301      -0.13760666       0.04081791
C        0.65186063       0.89656760      -0.02771935
C        1.91734337       1.38836919       0.02028714
C        2.88760509       0.61676921       0.21038918
H       -1.92369352      -0.86946270       0.79143049
H       -1.70834299      -1.08248081      -0.94490068
H       -2.12471647       0.47274957      -0.29450835
H        1.87281522      -0.87471635       0.31244626
9
Frame=14 idx=002124 GeodesicLength=1.6722638690626632 rxn_smarts="[C:1]([C:2]#[C:3][C:4]#[C:5][H:9])([H:6])([H:7])[H:8]>>[C:1]([C:2](=[C+:3][C:4]#[C-:5])[H:9])([H:6])([H:7])[H:8]"
C       -1.52103456      -0.40657602      -0.10962715
C       -0.06690578      -0.15518719       0.04368030
C        0.63270361       0.89052595      -0.02891074
C        1.90229884       1.36377018       0.02251691
C        2.91958534       0.65767813       0.20641615
H       -1.94441059      -0.86151664       0.78738542
H       -1.72767706      -1.07469082      -0.94747677
H       -2.12616871       0.48229973      -0.29632932
H        1.93160892      -0.89630333       0.32234521
9
Frame=15 idx=002124 GeodesicLength=1.7794296600007369 rxn_smarts="[C:1]([C:2]#[C:3][C:4]#[C:5][H:9])([H:6])([H:7])[H:8]>>[C:1]([C:2](=[C+:3][C:4]#[C-:5])[H:9])([H:6])([H:7])[H:8]"
C       -1.53197480      -0.40278281      -0.11065824
C       -0.07248639      -0.17301610       0.04433447
C        0.61361933       0.88348340      -0.03292777
C        1.88856993       1.33475016       0.02107026
C        2.94983310       0.70279144       0.21149076
H       -1.96443607      -0.85280680       0.78451498
H       -1.74928383      -1.06654196      -0.94931110
H       -2.12803592       0.49229525      -0.29694762
H        1.99419467      -0.91817257       0.32843427
9
Frame=16 idx=002124 GeodesicLength=1.8856127646526621 rxn_smarts="[C:1]([C:2]#[C:3][C:4]#[C:5][H:9])([H:6])([H:7])[H:8]>>[C:1]([C:2](=[C+:3][C:4]#[C-:5])[H:9])([H:6])([H:7])[H:8]"
C       -1.54362676      -0.39879642      -0.11228568
C       -0.07937150      -0.19028186       0.04618195
C        0.59410696       0.87639878      -0.03419040
C        1.87556608       1.30168976       0.02443451
C        2.97960983       0.74998206       0.20708403
H       -1.98595939      -0.84419306       0.78038580
H       -1.77022931      -1.05774171      -0.95230828
H       -2.13035623       0.50244653      -0.29849363
H        2.06026033      -0.93950407       0.33919171
