18
Frame=0 idx=006808 GeodesicLength=0.0 rxn_smarts="[C:1]([C:2]([C:3]([C@@:4]([C:5]([H:16])([H:17])[H:18])([C:6]#[N:7])[H:15])([H:13])[H:14])([H:11])[H:12])([H:8])([H:9])[H:10]>>[C:1]([C:2]([C:3]([C@@:4]([C:5]([H:16])([H:17])[H:18])([N+:7]#[C-:6])[H:15])([H:13])[H:14])([H:11])[H:12])([H:8])([H:9])[H:10]"
C       -2.44807046      -0.18166672      -1.01026413
C       -1.43091869       0.03337187       0.10234271
C        0.00013032      -0.13558941      -0.38867823
C        1.06896051      -0.02238491       0.68293179
C        2.49363487      -0.21742732       0.21880275
C        1.04710295       1.78784319       1.01688719
N        0.85485630       1.22822165       2.04238679
H       -3.46715261      -0.05311844      -0.64286637
H       -2.29593738       0.53284533      -1.82269901
H       -2.37145858      -1.18617887      -1.43404279
H       -1.55068751       1.03301298       0.52534180
H       -1.61925883      -0.67015938       0.91981374
H        0.11855844      -1.14487453      -0.80500173
H        0.21196040       0.56842842      -1.19640060
H        0.84414725      -0.72573587       1.48248688
H        2.60582434      -1.25098713      -0.12114116
H        2.74139634       0.45366035      -0.60255057
H        3.19691236      -0.04926129       1.03265097
18
Frame=1 idx=006808 GeodesicLength=0.026147541201579215 rxn_smarts="[C:1]([C:2]([C:3]([C@@:4]([C:5]([H:16])([H:17])[H:18])([C:6]#[N:7])[H:15])([H:13])[H:14])([H:11])[H:12])([H:8])([H:9])[H:10]>>[C:1]([C:2]([C:3]([C@@:4]([C:5]([H:16])([H:17])[H:18])([N+:7]#[C-:6])[H:15])([H:13])[H:14])([H:11])[H:12])([H:8])([H:9])[H:10]"
C       -2.44762826      -0.18165182      -1.01104982
C       -1.43115917       0.03070946       0.10266912
C        0.00048038      -0.13643221      -0.38732610
C        1.06864378      -0.01717908       0.68589612
C        2.49258065      -0.21969222       0.21842607
C        1.04819814       1.79793445       1.02061179
N        0.85481232       1.23861991       2.04298810
H       -3.46701716      -0.05503001      -0.64383340
H       -2.29561203       0.53552876      -1.82115929
H       -2.36993474      -1.18473523      -1.43798408
H       -1.55181797       1.02911874       0.52854070
H       -1.61967302      -0.67534581       0.91795844
H        0.12049861      -1.14501960      -0.80437756
H        0.21154058       0.56675351      -1.19617120
H        0.84481425      -0.72632670       1.48151417
H        2.60113220      -1.25280736      -0.12349249
H        2.74144659       0.45015864      -0.60373551
H        3.19869487      -0.05460342       1.03052494
18
Frame=2 idx=006808 GeodesicLength=0.052290054809405094 rxn_smarts="[C:1]([C:2]([C:3]([C@@:4]([C:5]([H:16])([H:17])[H:18])([C:6]#[N:7])[H:15])([H:13])[H:14])([H:11])[H:12])([H:8])([H:9])[H:10]>>[C:1]([C:2]([C:3]([C@@:4]([C:5]([H:16])([H:17])[H:18])([N+:7]#[C-:6])[H:15])([H:13])[H:14])([H:11])[H:12])([H:8])([H:9])[H:10]"
C       -2.44717871      -0.18161953      -1.01182015
C       -1.43138265       0.02803337       0.10299976
C        0.00084303      -0.13730056      -0.38597006
C        1.06832873      -0.01197391       0.68886072
C        2.49150524      -0.22195242       0.21806553
C        1.04927874       1.80807721       1.02430317
N        0.85472894       1.24905833       2.04355085
H       -3.46687000      -0.05693526      -0.64478016
H       -2.29528813       0.53824438      -1.81957682
H       -2.36840276      -1.18324919      -1.44193655
H       -1.55292464       1.02519433       0.53175854
H       -1.62006567      -0.68055272       0.91608839
H        0.12243525      -1.14518942      -0.80374816
H        0.21113252       0.56503394      -1.19595131
H        0.84549674      -0.72695491       1.48046269
H        2.59644698      -1.25460689      -0.12581740
H        2.74148394       0.44665366      -0.60490351
H        3.20043244      -0.05996041       1.02841446
18
Frame=3 idx=006808 GeodesicLength=0.07842229886099822 rxn_smarts="[C:1]([C:2]([C:3]([C@@:4]([C:5]([H:16])([H:17])[H:18])([C:6]#[N:7])[H:15])([H:13])[H:14])([H:11])[H:12])([H:8])([H:9])[H:10]>>[C:1]([C:2]([C:3]([C@@:4]([C:5]([H:16])([H:17])[H:18])([N+:7]#[C-:6])[H:15])([H:13])[H:14])([H:11])[H:12])([H:8])([H:9])[H:10]"
C       -2.44672189      -0.18157512      -1.01257315
C       -1.43158740       0.02535601       0.10333179
C        0.00121910      -0.13819199      -0.38461358
C        1.06801548      -0.00677869       0.69182429
C        2.49041088      -0.22420455       0.21771870
C        1.05033864       1.81826040       1.02797942
N        0.85459649       1.25951379       2.04408624
H       -3.46671022      -0.05881977      -0.64570795
H       -2.29495864       0.54096445      -1.81796869
H       -2.36687305      -1.18173933      -1.44586996
H       -1.55400419       1.02126038       0.53497494
H       -1.62043676      -0.68575227       0.91421434
H        0.12436521      -1.14538140      -0.80311970
H        0.21074048       0.56327649      -1.19574042
H        0.84619542      -0.72763712       1.47932344
H        2.59177788      -1.25637921      -0.12812828
H        2.74150741       0.44315826      -0.60605094
H        3.20212516      -0.06533033       1.02631952
18
Frame=4 idx=006808 GeodesicLength=0.1045365428707818 rxn_smarts="[C:1]([C:2]([C:3]([C@@:4]([C:5]([H:16])([H:17])[H:18])([C:6]#[N:7])[H:15])([H:13])[H:14])([H:11])[H:12])([H:8])([H:9])[H:10]>>[C:1]([C:2]([C:3]([C@@:4]([C:5]([H:16])([H:17])[H:18])([N+:7]#[C-:6])[H:15])([H:13])[H:14])([H:11])[H:12])([H:8])([H:9])[H:10]"
C       -2.44625795      -0.18152468      -1.01330682
C       -1.43177158       0.02269072       0.10366183
C        0.00160929      -0.13910334      -0.38326000
C        1.06770423      -0.00160300       0.69478561
C        2.48929967      -0.22644497       0.21738305
C        1.05137222       1.82847110       1.03166052
N        0.85440590       1.26996087       2.04460615
H       -3.46653678      -0.06066841      -0.64661864
H       -2.29461599       0.54365806      -1.81635348
H       -2.36535708      -1.18022587      -1.44975148
H       -1.55505274       1.01733868       0.53816725
H       -1.62078621      -0.69091413       0.91234713
H        0.12628482      -1.14559150      -0.80249831
H        0.21036862       0.56148846      -1.19553704
H        0.84691124      -0.72838999       1.47808619
H        2.58713340      -1.25811649      -0.13043838
H        2.74151566       0.43968600      -0.60717315
H        3.20377329      -0.07071153       1.02423957
18
Frame=5 idx=006808 GeodesicLength=0.13062570733242687 rxn_smarts="[C:1]([C:2]([C:3]([C@@:4]([C:5]([H:16])([H:17])[H:18])([C:6]#[N:7])[H:15])([H:13])[H:14])([H:11])[H:12])([H:8])([H:9])[H:10]>>[C:1]([C:2]([C:3]([C@@:4]([C:5]([H:16])([H:17])[H:18])([N+:7]#[C-:6])[H:15])([H:13])[H:14])([H:11])[H:12])([H:8])([H:9])[H:10]"
C       -2.44578777      -0.18147462      -1.01401907
C       -1.43193322       0.02005266       0.10398571
C        0.00201443      -0.14003249      -0.38191294
C        1.06739527       0.00354231       0.69774360
C        2.48817431      -0.22866882       0.21705525
C        1.05237291       1.83869503       1.03536987
N        0.85414708       1.28037094       2.04512515
H       -3.46634894      -0.06246222      -0.64751314
H       -2.29425253       0.54629028      -1.81475380
H       -2.36386864      -1.17873176      -1.45354506
H       -1.55606607       1.01345450       0.54130963
H       -1.62111490      -0.69600396       0.91049933
H        0.12818991      -1.14581733      -0.80188985
H        0.21002202       0.55967549      -1.19534083
H        0.84764622      -0.72923298       1.47673987
H        2.58252381      -1.25980939      -0.13276316
H        2.74150845       0.43625449      -0.60826432
H        3.20537766      -0.07610214       1.02217374
18
Frame=6 idx=006808 GeodesicLength=0.15668291102955664 rxn_smarts="[C:1]([C:2]([C:3]([C@@:4]([C:5]([H:16])([H:17])[H:18])([C:6]#[N:7])[H:15])([H:13])[H:14])([H:11])[H:12])([H:8])([H:9])[H:10]>>[C:1]([C:2]([C:3]([C@@:4]([C:5]([H:16])([H:17])[H:18])([N+:7]#[C-:6])[H:15])([H:13])[H:14])([H:11])[H:12])([H:8])([H:9])[H:10]"
C       -2.44531225      -0.18143158      -1.01470815
C       -1.43207064       0.01745679       0.10429940
C        0.00243521      -0.14097700      -0.38057566
C        1.06708884       0.00864669       0.70069762
C        2.48703742      -0.23087156       0.21673186
C        1.05333490       1.84891808       1.03913092
N        0.85381080       1.29071627       2.04565799
H       -3.46614610      -0.06418358      -0.64839245
H       -2.29386092       0.54882706      -1.81319224
H       -2.36242076      -1.17728005      -1.45721607
H       -1.55704025       1.00963302       0.54437669
H       -1.62142404      -0.70098799       0.90868353
H        0.13007638      -1.14605613      -0.80129988
H        0.20970549       0.55784341      -1.19515106
H        0.84840236      -0.73018443       1.47527386
H        2.57795863      -1.26144898      -0.13511784
H        2.74148555       0.43288055      -0.60931909
H        3.20693938      -0.08150056       1.02012059
18
Frame=7 idx=006808 GeodesicLength=0.18270148244476592 rxn_smarts="[C:1]([C:2]([C:3]([C@@:4]([C:5]([H:16])([H:17])[H:18])([C:6]#[N:7])[H:15])([H:13])[H:14])([H:11])[H:12])([H:8])([H:9])[H:10]>>[C:1]([C:2]([C:3]([C@@:4]([C:5]([H:16])([H:17])[H:18])([N+:7]#[C-:6])[H:15])([H:13])[H:14])([H:11])[H:12])([H:8])([H:9])[H:10]"
C       -2.44483221      -0.18140349      -1.01537240
C       -1.43218217       0.01492008       0.10459850
C        0.00287230      -0.14193363      -0.37925161
C        1.06678521       0.01369874       0.70364733
C        2.48589173      -0.23304845       0.21640871
C        1.05425231       1.85912485       1.04297093
N        0.85338757       1.30096613       2.04622212
H       -3.46592762      -0.06581310      -0.64925817
H       -2.29343254       0.55122941      -1.81169524
H       -2.36102775      -1.17589778      -1.46072560
H       -1.55797126       1.00590303       0.54733987
H       -1.62171526      -0.70582827       0.90691431
H        0.13193969      -1.14630422      -0.80073447
H        0.20942422       0.55599947      -1.19496673
H        0.84918178      -0.73126441       1.47367656
H        2.57344735      -1.26302533      -0.13752039
H        2.74144664       0.42958295      -0.61033161
H        3.20845999      -0.08690599       1.01807791
18
Frame=8 idx=006808 GeodesicLength=0.20868962509213945 rxn_smarts="[C:1]([C:2]([C:3]([C@@:4]([C:5]([H:16])([H:17])[H:18])([C:6]#[N:7])[H:15])([H:13])[H:14])([H:11])[H:12])([H:8])([H:9])[H:10]>>[C:1]([C:2]([C:3]([C@@:4]([C:5]([H:16])([H:17])[H:18])([N+:7]#[C-:6])[H:15])([H:13])[H:14])([H:11])[H:12])([H:8])([H:9])[H:10]"
C       -2.44434806      -0.18137906      -1.01601412
C       -1.43227033       0.01241919       0.10488902
C        0.00332478      -0.14290667      -0.37793697
C        1.06648366       0.01870940       0.70659498
C        2.48473577      -0.23520661       0.21609057
C        1.05513150       1.86933475       1.04685197
N        0.85289027       1.31116296       2.04679294
H       -3.46569585      -0.06737365      -0.65010595
H       -2.29297903       0.55355024      -1.81023043
H       -2.35967218      -1.17455085      -1.46412612
H       -1.55886611       1.00222621       0.55023866
H       -1.62198713      -0.71057860       0.90517223
H        0.13378596      -1.14656608      -0.80018778
H        0.20917171       0.55413527      -1.19478883
H        0.84998248      -0.73244173       1.47196567
H        2.56897944      -1.26455383      -0.13994567
H        2.74139451       0.42633832      -0.61130893
H        3.20993860      -0.09231926       1.01604876
18
Frame=9 idx=006808 GeodesicLength=0.2346548679447216 rxn_smarts="[C:1]([C:2]([C:3]([C@@:4]([C:5]([H:16])([H:17])[H:18])([C:6]#[N:7])[H:15])([H:13])[H:14])([H:11])[H:12])([H:8])([H:9])[H:10]>>[C:1]([C:2]([C:3]([C@@:4]([C:5]([H:16])([H:17])[H:18])([N+:7]#[C-:6])[H:15])([H:13])[H:14])([H:11])[H:12])([H:8])([H:9])[H:10]"
C       -2.44385889      -0.18134921      -1.01663657
C       -1.43233830       0.00993631       0.10517670
C        0.00379128      -0.14390012      -0.37662613
C        1.06618363       0.02368509       0.70954402
C        2.48356789      -0.23735056       0.21577958
C        1.05597695       1.87956089       1.05075011
N        0.85233058       1.32133569       2.04735618
H       -3.46545243      -0.06887542      -0.65093929
H       -2.29250306       0.55582844      -1.80877545
H       -2.35834248      -1.17321509      -1.46745439
H       -1.55973061       0.99857380       0.55310352
H       -1.62224152      -0.71528121       0.90344204
H        0.13561828      -1.14684526      -0.79965465
H        0.20894247       0.55224227      -1.19461676
H        0.85080392      -0.73369493       1.47015627
H        2.56455015      -1.26604701      -0.14237048
H        2.74132395       0.42312616      -0.61226310
H        3.21137819      -0.09772983       1.01402838
18
Frame=10 idx=006808 GeodesicLength=0.2606050696712527 rxn_smarts="[C:1]([C:2]([C:3]([C@@:4]([C:5]([H:16])([H:17])[H:18])([C:6]#[N:7])[H:15])([H:13])[H:14])([H:11])[H:12])([H:8])([H:9])[H:10]>>[C:1]([C:2]([C:3]([C@@:4]([C:5]([H:16])([H:17])[H:18])([N+:7]#[C-:6])[H:15])([H:13])[H:14])([H:11])[H:12])([H:8])([H:9])[H:10]"
C       -2.44336387      -0.18130684      -1.01724287
C       -1.43238908       0.00745871       0.10546552
C        0.00427057      -0.14491750      -0.37531388
C        1.06588425       0.02863160       0.71249850
C        2.48238604      -0.23948427       0.21547765
C        1.05679373       1.88981541       1.05464544
N        0.85171860       1.33150953       2.04790016
H       -3.46519829      -0.07034085      -0.65175638
H       -2.29201214       0.55809984      -1.80730924
H       -2.35702110      -1.17186639      -1.47074946
H       -1.56056813       0.99492590       0.55595523
H       -1.62248147      -0.71996529       0.90171343
H        0.13743906      -1.14714687      -0.79912625
H        0.20873162       0.55031356      -1.19444946
H        0.85164425      -0.73500571       1.46826221
H        2.56015431      -1.26751425      -0.14478027
H        2.74123036       0.41992918      -0.61320399
H        3.21278129      -0.10313575       1.01201365
18
Frame=11 idx=006808 GeodesicLength=0.2865455497473993 rxn_smarts="[C:1]([C:2]([C:3]([C@@:4]([C:5]([H:16])([H:17])[H:18])([C:6]#[N:7])[H:15])([H:13])[H:14])([H:11])[H:12])([H:8])([H:9])[H:10]>>[C:1]([C:2]([C:3]([C@@:4]([C:5]([H:16])([H:17])[H:18])([N+:7]#[C-:6])[H:15])([H:13])[H:14])([H:11])[H:12])([H:8])([H:9])[H:10]"
C       -2.44286205      -0.18124235      -1.01783523
C       -1.43242436       0.00497192       0.10575948
C        0.00476189      -0.14596602      -0.37399514
C        1.06558518       0.03355438       0.71546107
C        2.48118902      -0.24161057       0.21518716
C        1.05758397       1.90010939       1.05851414
N        0.85105872       1.34170969       2.04840846
H       -3.46493390      -0.07179045      -0.65255454
H       -2.29151461       0.56040548      -1.80580585
H       -2.35569292      -1.17047541      -1.47405279
H       -1.56138100       0.99125993       0.55881513
H       -1.62270776      -0.72466178       0.89997534
H        0.13925010      -1.14748063      -0.79859071
H        0.20853519       0.54833637      -1.19428692
H        0.85250431      -0.73635605       1.46629608
H        2.55578659      -1.26896353      -0.14715925
H        2.74111209       0.41673194      -0.61413914
H        3.21414955      -0.10853230       1.01000272
18
Frame=12 idx=006808 GeodesicLength=0.31246814090841457 rxn_smarts="[C:1]([C:2]([C:3]([C@@:4]([C:5]([H:16])([H:17])[H:18])([C:6]#[N:7])[H:15])([H:13])[H:14])([H:11])[H:12])([H:8])([H:9])[H:10]>>[C:1]([C:2]([C:3]([C@@:4]([C:5]([H:16])([H:17])[H:18])([N+:7]#[C-:6])[H:15])([H:13])[H:14])([H:11])[H:12])([H:8])([H:9])[H:10]"
C       -2.44235324      -0.18117050      -1.01841018
C       -1.43244072       0.00249805       0.10605265
C        0.00526647      -0.14703760      -0.37267563
C        1.06528681       0.03844296       0.71842963
C        2.47997946      -0.24372178       0.21490405
C        1.05834259       1.91042550       1.06239077
N        0.85033802       1.35189872       2.04890172
H       -3.46465595      -0.07317871      -0.65334085
H       -2.29099093       0.56267179      -1.80431269
H       -2.35439126      -1.16909187      -1.47729080
H       -1.56216166       0.98760957       0.56165147
H       -1.62291864      -0.72932259       0.89824381
H        0.14104602      -1.14783687      -0.79805681
H        0.20836070       0.54632366      -1.19412734
H        0.85338523      -0.73777052       1.46423937
H        2.55145130      -1.27036965      -0.14956004
H        2.74097850       0.41357419      -0.61504405
H        3.21547729      -0.11394437       1.00800491
18
Frame=13 idx=006808 GeodesicLength=0.3383835728780371 rxn_smarts="[C:1]([C:2]([C:3]([C@@:4]([C:5]([H:16])([H:17])[H:18])([C:6]#[N:7])[H:15])([H:13])[H:14])([H:11])[H:12])([H:8])([H:9])[H:10]>>[C:1]([C:2]([C:3]([C@@:4]([C:5]([H:16])([H:17])[H:18])([N+:7]#[C-:6])[H:15])([H:13])[H:14])([H:11])[H:12])([H:8])([H:9])[H:10]"
C       -2.44183600      -0.18108328      -1.01897048
C       -1.43244152       0.00002010       0.10635081
C        0.00578367      -0.14813541      -0.37135032
C        1.06498842       0.04330487       0.72140832
C        2.47875563      -0.24582502       0.21463104
C        1.05907548       1.92078016       1.06624765
N        0.84956320       1.36210970       2.04936266
H       -3.46436641      -0.07452896      -0.65411551
H       -2.29045044       0.56494345      -1.80280178
H       -2.35309639      -1.16768811      -1.48050783
H       -1.56291815       0.98394716       0.56449439
H       -1.62311565      -0.73398636       0.89650766
H        0.14283340      -1.14821923      -0.79752060
H        0.20820312       0.54427259      -1.19396894
H        0.85428505      -0.73922716       1.46210928
H        2.54714184      -1.27174744      -0.15196321
H        2.74082845       0.41043161      -0.61593117
H        3.21676628      -0.11936867       1.00601805
18
Frame=14 idx=006808 GeodesicLength=0.3642984024871582 rxn_smarts="[C:1]([C:2]([C:3]([C@@:4]([C:5]([H:16])([H:17])[H:18])([C:6]#[N:7])[H:15])([H:13])[H:14])([H:11])[H:12])([H:8])([H:9])[H:10]>>[C:1]([C:2]([C:3]([C@@:4]([C:5]([H:16])([H:17])[H:18])([N+:7]#[C-:6])[H:15])([H:13])[H:14])([H:11])[H:12])([H:8])([H:9])[H:10]"
C       -2.44130859      -0.18097362      -1.01951925
C       -1.43242982      -0.00247945       0.10665894
C        0.00631167      -0.14926115      -0.37001400
C        1.06468935       0.04814815       0.72439931
C        2.47751465      -0.24792675       0.21437157
C        1.05979079       1.93118824       1.07005703
N        0.84874659       1.37237344       2.04977274
H       -3.46406583      -0.07586711      -0.65487934
H       -2.28990156       0.56726353      -1.80124370
H       -2.35179103      -1.16623594      -1.48374829
H       -1.56365620       0.98024327       0.56737324
H       -1.62329945      -0.73869065       0.89475288
H        0.14461594      -1.14862805      -0.79697786
H        0.20805576       0.54217988      -1.19380819
H        0.85520030      -0.74070285       1.45992119
H        2.54284951      -1.27311079      -0.15434599
H        2.74065982       0.40728075      -0.61680984
H        3.21801810      -0.12480090       1.00403958
18
Frame=15 idx=006808 GeodesicLength=0.39021799735585433 rxn_smarts="[C:1]([C:2]([C:3]([C@@:4]([C:5]([H:16])([H:17])[H:18])([C:6]#[N:7])[H:15])([H:13])[H:14])([H:11])[H:12])([H:8])([H:9])[H:10]>>[C:1]([C:2]([C:3]([C@@:4]([C:5]([H:16])([H:17])[H:18])([N+:7]#[C-:6])[H:15])([H:13])[H:14])([H:11])[H:12])([H:8])([H:9])[H:10]"
C       -2.44077115      -0.18083455      -1.02005680
C       -1.43240670      -0.00501647       0.10698045
C        0.00685013      -0.15041645      -0.36866497
C        1.06438870       0.05298095       0.72740302
C        2.47625470      -0.25003279       0.21413112
C        1.06049470       1.94166459       1.07378930
N        0.84789785       1.38271970       2.05011106
H       -3.46375531      -0.07721935      -0.65562621
H       -2.28935549       0.56966991      -1.79961025
H       -2.35046038      -1.16470787      -1.48705140
H       -1.56437966       0.97647052       0.57031375
H       -1.62346867      -0.74346904       0.89296617
H        0.14639847      -1.14906345      -0.79642830
H        0.20791510       0.54004127      -1.19364590
H        0.85612613      -0.74217559       1.45768730
H        2.53856508      -1.27446963      -0.15669293
H        2.74047552       0.40410602      -0.61768024
H        3.21923100      -0.13024776       1.00207483
18
Frame=16 idx=006808 GeodesicLength=0.41613557266342444 rxn_smarts="[C:1]([C:2]([C:3]([C@@:4]([C:5]([H:16])([H:17])[H:18])([C:6]#[N:7])[H:15])([H:13])[H:14])([H:11])[H:12])([H:8])([H:9])[H:10]>>[C:1]([C:2]([C:3]([C@@:4]([C:5]([H:16])([H:17])[H:18])([N+:7]#[C-:6])[H:15])([H:13])[H:14])([H:11])[H:12])([H:8])([H:9])[H:10]"
C       -2.44022444      -0.18067414      -1.02058108
C       -1.43237021      -0.00757349       0.10731079
C        0.00739981      -0.15159808      -0.36730711
C        1.06408673       0.05779205       0.73041863
C        2.47497852      -0.25213824       0.21390550
C        1.06118087       1.95219389       1.07747167
N        0.84700632       1.39311674       2.05039463
H       -3.46343397      -0.07856566      -0.65635761
H       -2.28880353       0.57212224      -1.79792787
H       -2.34911895      -1.16313106      -1.49037651
H       -1.56508400       0.97265825       0.57328656
H       -1.62362421      -0.74828240       0.89116227
H        0.14817650      -1.14952206      -0.79587813
H        0.20778650       0.53786416      -1.19348146
H        0.85706459      -0.74366619       1.45539637
H        2.53429808      -1.27581387      -0.15902277
H        2.74027544       0.40092702      -0.61853612
H        3.22040594      -0.13570917       1.00012223
