12
Frame=0 idx=002113 GeodesicLength=0.0 rxn_smarts="[O:1]=[C:2]1[N:3]([H:7])[C:4]([H:8])([H:9])[C:5]([H:10])([H:11])[N:6]1[H:12]>>[O:1]([C@:2]12[N:3]([H:7])[C:4]([H:8])([H:9])[C@@:5]1([H:11])[N:6]2[H:12])[H:10]"
O        1.79385665      -0.54265084       1.05936126
C        0.93568145      -0.16720864       0.14643126
N        0.55765811       1.20664629      -0.11918903
C       -0.89329143       0.88667274      -0.18903875
C       -0.65877432      -0.55328077       0.20152493
N        0.34442528      -1.02569377      -0.82251066
H        0.95309638       1.53529003      -0.99216049
H       -1.33118371       1.00587886      -1.18282489
H       -1.45900445       1.45820508       0.54635019
H        0.49041701      -0.54558856       1.32865855
H       -1.34848174      -1.28298892       0.60459633
H        0.61560075      -1.97528153      -0.58119870
12
Frame=1 idx=002113 GeodesicLength=0.08351255216748578 rxn_smarts="[O:1]=[C:2]1[N:3]([H:7])[C:4]([H:8])([H:9])[C:5]([H:10])([H:11])[N:6]1[H:12]>>[O:1]([C@:2]12[N:3]([H:7])[C:4]([H:8])([H:9])[C@@:5]1([H:11])[N:6]2[H:12])[H:10]"
O        1.80031473      -0.53662013       1.05279275
C        0.94446168      -0.16489803       0.13805256
N        0.55768598       1.20466689      -0.12326554
C       -0.89258627       0.88510981      -0.18846964
C       -0.65859306      -0.55487760       0.20685143
N        0.34136214      -1.02837392      -0.81756180
H        0.95511798       1.54402842      -0.99074228
H       -1.33253737       1.00237277      -1.18160624
H       -1.45697377       1.45881412       0.54623675
H        0.48579053      -0.55055588       1.34489870
H       -1.36002345      -1.28186834       0.59402114
H        0.61598090      -1.97779811      -0.58120785
12
Frame=2 idx=002113 GeodesicLength=0.16693517510832637 rxn_smarts="[O:1]=[C:2]1[N:3]([H:7])[C:4]([H:8])([H:9])[C:5]([H:10])([H:11])[N:6]1[H:12]>>[O:1]([C@:2]12[N:3]([H:7])[C:4]([H:8])([H:9])[C@@:5]1([H:11])[N:6]2[H:12])[H:10]"
O        1.80646356      -0.53048250       1.04622544
C        0.95344181      -0.16258165       0.12913040
N        0.55775512       1.20264551      -0.12750432
C       -0.89181822       0.88347216      -0.18786124
C       -0.65826531      -0.55650853       0.21232670
N        0.33831676      -1.03114459      -0.81256689
H        0.95703631       1.55299314      -0.98927388
H       -1.33395015       0.99873731      -1.18029400
H       -1.45479232       1.45938350       0.54619518
H        0.48091315      -0.55568204       1.36164068
H       -1.37145757      -1.28044656       0.58319641
H        0.61635686      -1.98038574      -0.58121448
12
Frame=3 idx=002113 GeodesicLength=0.2503031260209384 rxn_smarts="[O:1]=[C:2]1[N:3]([H:7])[C:4]([H:8])([H:9])[C:5]([H:10])([H:11])[N:6]1[H:12]>>[O:1]([C@:2]12[N:3]([H:7])[C:4]([H:8])([H:9])[C@@:5]1([H:11])[N:6]2[H:12])[H:10]"
O        1.81225904      -0.52423208       1.03966798
C        0.96263005      -0.16026076       0.11962185
N        0.55786920       1.20057907      -0.13191888
C       -0.89098168       0.88175810      -0.18721533
C       -0.65778013      -0.55817460       0.21794660
N        0.33529289      -1.03400544      -0.80753453
H        0.95884805       1.56219530      -0.98775307
H       -1.33542298       0.99497267      -1.17888505
H       -1.45244926       1.45991053       0.54622728
H        0.47574173      -0.56098961       1.37892058
H       -1.38273745      -1.27870811       0.57215372
H        0.61673054      -1.98304506      -0.58123115
12
Frame=4 idx=002113 GeodesicLength=0.3336567758440477 rxn_smarts="[O:1]=[C:2]1[N:3]([H:7])[C:4]([H:8])([H:9])[C:5]([H:10])([H:11])[N:6]1[H:12]>>[O:1]([C@:2]12[N:3]([H:7])[C:4]([H:8])([H:9])[C@@:5]1([H:11])[N:6]2[H:12])[H:10]"
O        1.81765347      -0.51785987       1.03312795
C        0.97203584      -0.15793585       0.10948069
N        0.55803271       1.19846460      -0.13652628
C       -0.89006998       0.87996622      -0.18653372
C       -0.65712437      -0.55987615       0.22370667
N        0.33229564      -1.03695545      -0.80247281
H        0.96054998       1.57164664      -0.98617790
H       -1.33695752       0.99107845      -1.17737498
H       -1.44993030       1.46039338       0.54633616
H        0.47022548      -0.56650627       1.39677701
H       -1.39381598      -1.27663956       0.56092749
H        0.61710502      -1.98577614      -0.58127028
12
Frame=5 idx=002113 GeodesicLength=0.4170028490359028 rxn_smarts="[O:1]=[C:2]1[N:3]([H:7])[C:4]([H:8])([H:9])[C:5]([H:10])([H:11])[N:6]1[H:12]>>[O:1]([C@:2]12[N:3]([H:7])[C:4]([H:8])([H:9])[C@@:5]1([H:11])[N:6]2[H:12])[H:10]"
O        1.82259963      -0.51135689       1.02661180
C        0.98166600      -0.15560758       0.09866638
N        0.55825015       1.19629894      -0.14134278
C       -0.88907677       0.87809646      -0.18581904
C       -0.65628698      -0.56161273       0.22959971
N        0.32933123      -1.03999131      -0.79739006
H        0.96214115       1.58135472      -0.98454766
H       -1.33855487       0.98705680      -1.17576098
H       -1.44722241       1.46083108       0.54652457
H        0.46431403      -0.57225914       1.41524572
H       -1.40464489      -1.27423325       0.54955865
H        0.61748373      -1.98857710      -0.58134630
12
Frame=6 idx=002113 GeodesicLength=0.5003780794659639 rxn_smarts="[O:1]=[C:2]1[N:3]([H:7])[C:4]([H:8])([H:9])[C:5]([H:10])([H:11])[N:6]1[H:12]>>[O:1]([C@:2]12[N:3]([H:7])[C:4]([H:8])([H:9])[C@@:5]1([H:11])[N:6]2[H:12])[H:10]"
O        1.82703938      -0.50470851       1.02012425
C        0.99153022      -0.15327608       0.08713017
N        0.55852741       1.19407816      -0.14639097
C       -0.88799384       0.87614917      -0.18507362
C       -0.65525353      -0.56338313       0.23561980
N        0.32640847      -1.04310842      -0.79229546
H        0.96362036       1.59132988      -0.98286141
H       -1.34021720       0.98290837      -1.17403802
H       -1.44430679       1.46122424       0.54679525
H        0.45794493      -0.57828587       1.43437148
H       -1.41517061      -1.27148224       0.53809364
H        0.61787120      -1.99144556      -0.58147510
12
Frame=7 idx=002113 GeodesicLength=0.5837931213748085 rxn_smarts="[O:1]=[C:2]1[N:3]([H:7])[C:4]([H:8])([H:9])[C:5]([H:10])([H:11])[N:6]1[H:12]>>[O:1]([C@:2]12[N:3]([H:7])[C:4]([H:8])([H:9])[C@@:5]1([H:11])[N:6]2[H:12])[H:10]"
O        1.83091724      -0.49790001       1.01366829
C        1.00163573      -0.15094109       0.07482697
N        0.55887020       1.19179860      -0.15169421
C       -0.88681326       0.87412547      -0.18430032
C       -0.65401069      -0.56518525       0.24175977
N        0.32353857      -1.04630027      -0.78719696
H        0.96498832       1.60157903      -0.98111905
H       -1.34194675       0.97863524      -1.17220247
H       -1.44116466       1.46157444       0.54715269
H        0.45105424      -0.58462396       1.45419602
H       -1.42534169      -1.26838443       0.52658190
H        0.61827275      -1.99437778      -0.58167265
12
Frame=8 idx=002113 GeodesicLength=0.6672593878903536 rxn_smarts="[O:1]=[C:2]1[N:3]([H:7])[C:4]([H:8])([H:9])[C:5]([H:10])([H:11])[N:6]1[H:12]>>[O:1]([C@:2]12[N:3]([H:7])[C:4]([H:8])([H:9])[C@@:5]1([H:11])[N:6]2[H:12])[H:10]"
O        1.83417264      -0.49091277       1.00724364
C        1.01199049      -0.14860132       0.06171275
N        0.55928511       1.18945605      -0.15728002
C       -0.88552598       0.87202747      -0.18350147
C       -0.65254322      -0.56701582       0.24801255
N        0.32073463      -1.04955793      -0.78210176
H        0.96624657       1.61210738      -0.97932283
H       -1.34374672       0.97423923      -1.17024839
H       -1.43777369       1.46188504       0.54760107
H        0.44357195      -0.59131739       1.47476525
H       -1.43510690      -1.26494201       0.51507518
H        0.61869511      -1.99736794      -0.58195598
12
Frame=9 idx=002113 GeodesicLength=0.7507752225653591 rxn_smarts="[O:1]=[C:2]1[N:3]([H:7])[C:4]([H:8])([H:9])[C:5]([H:10])([H:11])[N:6]1[H:12]>>[O:1]([C@:2]12[N:3]([H:7])[C:4]([H:8])([H:9])[C@@:5]1([H:11])[N:6]2[H:12])[H:10]"
O        1.83673181      -0.48371930       1.00084480
C        1.02260250      -0.14625538       0.04774925
N        0.55978084       1.18704429      -0.16317828
C       -0.88412166       0.86985870      -0.18267833
C       -0.65083601      -0.56887088       0.25437082
N        0.31801333      -1.05286727      -0.77701469
H        0.96739897       1.62291216      -0.97748347
H       -1.34562114       0.96972357      -1.16816876
H       -1.43410817       1.46216102       0.54814912
H        0.43543004      -0.59841719       1.49613042
H       -1.44441764      -1.26116353       0.50362277
H        0.61914714      -2.00040618      -0.58234365
12
Frame=10 idx=002113 GeodesicLength=0.8343292819701136 rxn_smarts="[O:1]=[C:2]1[N:3]([H:7])[C:4]([H:8])([H:9])[C:5]([H:10])([H:11])[N:6]1[H:12]>>[O:1]([C@:2]12[N:3]([H:7])[C:4]([H:8])([H:9])[C@@:5]1([H:11])[N:6]2[H:12])[H:10]"
O        1.83854461      -0.47629821       0.99446779
C        1.03347751      -0.14389919       0.03290027
N        0.56036239       1.18456046      -0.16942471
C       -0.88259112       0.86762263      -0.18183217
C       -0.64887377      -0.57074492       0.26083128
N        0.31539148      -1.05621636      -0.77193979
H        0.96844880       1.63399281      -0.97560363
H       -1.34757535       0.96508886      -1.16595430
H       -1.43014103       1.46240987       0.54880087
H        0.42654848      -0.60597444       1.51833014
H       -1.45323049      -1.25705800       0.49227510
H        0.61963849      -2.00348350      -0.58285086
12
Frame=11 idx=002113 GeodesicLength=0.9179023676319055 rxn_smarts="[O:1]=[C:2]1[N:3]([H:7])[C:4]([H:8])([H:9])[C:5]([H:10])([H:11])[N:6]1[H:12]>>[O:1]([C@:2]12[N:3]([H:7])[C:4]([H:8])([H:9])[C@@:5]1([H:11])[N:6]2[H:12])[H:10]"
O        1.83955254      -0.46862038       0.98810079
C        1.04461913      -0.14152966       0.01713795
N        0.56103619       1.18199936      -0.17605659
C       -0.88092457       0.86532393      -0.18096379
C       -0.64664189      -0.57263245       0.26738994
N        0.31289122      -1.05958714      -0.76687760
H        0.96940317       1.64534019      -0.97369493
H       -1.34961631       0.96033728      -1.16359482
H       -1.42584328       1.46264004       0.54956648
H        0.41684808      -0.61404472       1.54140787
H       -1.46150443      -1.25263916       0.48107789
H        0.62018014      -2.00658727      -0.58349321
12
Frame=12 idx=002113 GeodesicLength=1.001482458483849 rxn_smarts="[O:1]=[C:2]1[N:3]([H:7])[C:4]([H:8])([H:9])[C:5]([H:10])([H:11])[N:6]1[H:12]>>[O:1]([C@:2]12[N:3]([H:7])[C:4]([H:8])([H:9])[C@@:5]1([H:11])[N:6]2[H:12])[H:10]"
O        1.83969957      -0.46065484       0.98172899
C        1.05603063      -0.13914205       0.00043836
N        0.56180793       1.17935623      -0.18311679
C       -0.87911145       0.86296808      -0.18007246
C       -0.64412522      -0.57452645       0.27404613
N        0.31053648      -1.06295967      -0.76182760
H        0.97026896       1.65694260      -0.97177054
H       -1.35175221       0.95546956      -1.16107817
H       -1.42118174       1.46286285       0.55045573
H        0.40624286      -0.62268929       1.56540736
H       -1.46920038      -1.24792435       0.47007514
H        0.62078458      -2.00970269      -0.58428616
12
Frame=13 idx=002113 GeodesicLength=1.0850438253685653 rxn_smarts="[O:1]=[C:2]1[N:3]([H:7])[C:4]([H:8])([H:9])[C:5]([H:10])([H:11])[N:6]1[H:12]>>[O:1]([C@:2]12[N:3]([H:7])[C:4]([H:8])([H:9])[C@@:5]1([H:11])[N:6]2[H:12])[H:10]"
O        1.83893971      -0.45236798       0.97533090
C        1.06771091      -0.13673148      -0.01720946
N        0.56268224       1.17662573      -0.19064936
C       -0.87714223       0.86056124      -0.17915616
C       -0.64131082      -0.57641957       0.28079943
N        0.30835452      -1.06631032      -0.75678461
H        0.97105621       1.66878002      -0.96984740
H       -1.35399304       0.95048680      -1.15838967
H       -1.41612373       1.46309090       0.55147991
H        0.39464808      -0.63196922       1.59036661
H       -1.47628693      -1.24293376       0.45930298
H        0.62146507      -2.01281236      -0.58524317
12
Frame=14 idx=002113 GeodesicLength=1.1685651198859701 rxn_smarts="[O:1]=[C:2]1[N:3]([H:7])[C:4]([H:8])([H:9])[C:5]([H:10])([H:11])[N:6]1[H:12]>>[O:1]([C@:2]12[N:3]([H:7])[C:4]([H:8])([H:9])[C@@:5]1([H:11])[N:6]2[H:12])[H:10]"
O        1.83723242      -0.44372715       0.96888439
C        1.07965704      -0.13429193      -0.03580823
N        0.56366143       1.17380347      -0.19870254
C       -0.87500773       0.85811041      -0.17821270
C       -0.63818718      -0.57830379       0.28765210
N        0.30637484      -1.06961272      -0.75174258
H        0.97177561       1.68082943      -0.96794559
H       -1.35635012       0.94538945      -1.15551442
H       -1.41063451       1.46333875       0.55264937
H        0.38197513      -0.64195160       1.61631951
H       -1.48273353      -1.23768839       0.44879962
H        0.62223662      -2.01589592      -0.58637895
12
Frame=15 idx=002113 GeodesicLength=1.2520203142141417 rxn_smarts="[O:1]=[C:2]1[N:3]([H:7])[C:4]([H:8])([H:9])[C:5]([H:10])([H:11])[N:6]1[H:12]>>[O:1]([C@:2]12[N:3]([H:7])[C:4]([H:8])([H:9])[C@@:5]1([H:11])[N:6]2[H:12])[H:10]"
O        1.83455475      -0.43469646       0.96235826
C        1.09186089      -0.13181802      -0.05534514
N        0.56474573       1.17088432      -0.20732469
C       -0.87269991       0.85562309      -0.17723866
C       -0.63474615      -0.58017094       0.29460726
N        0.30462848      -1.07283842      -0.74669058
H        0.97244012       1.69305979      -0.96608626
H       -1.35883557       0.94017812      -1.15243491
H       -1.40468027       1.46362254       0.55397604
H        0.36813645      -0.65270019       1.64329049
H       -1.48851833      -1.23221230       0.43859183
H        0.62311381      -2.01893153      -0.58770363
12
Frame=16 idx=002113 GeodesicLength=1.3353962583072823 rxn_smarts="[O:1]=[C:2]1[N:3]([H:7])[C:4]([H:8])([H:9])[C:5]([H:10])([H:11])[N:6]1[H:12]>>[O:1]([C@:2]12[N:3]([H:7])[C:4]([H:8])([H:9])[C@@:5]1([H:11])[N:6]2[H:12])[H:10]"
O        1.83089522      -0.42524018       0.95571754
C        1.10431127      -0.12930402      -0.07579689
N        0.56593282       1.16786352      -0.21656644
C       -0.87021167       0.85310744      -0.17623014
C       -0.63098151      -0.58201240       0.30167012
N        0.30314893      -1.07595670      -0.74161543
H        0.97306424       1.70543594      -0.96429374
H       -1.36146321       0.93485294      -1.14913272
H       -1.39822677       1.46395989       0.55547215
H        0.35304119      -0.66428130       1.67129835
H       -1.49362254      -1.22652997       0.42870379
H        0.62411203      -2.02189516      -0.58922659
