14
Frame=0 idx=004656 GeodesicLength=0.0 rxn_smarts="[C:1]1([H:7])([H:8])[O:2][C:3]12[C:4]([H:9])([H:10])[C:5]([H:11])([H:12])[C:6]2([H:13])[H:14]>>[C:1](=[O:2])([H:7])[H:8].[C:3]1([H:10])=[C:4]([H:9])[C:5]([H:11])([H:12])[C:6]1([H:13])[H:14]"
C        1.81802147       0.18748193       0.66465211
O        1.72937416       1.47565613       0.48403310
C        0.39529501      -0.26251325       0.14404796
C       -0.85415030      -0.30754070       0.79476989
C       -1.63830112       0.12900180      -0.39649644
C       -0.28434301       0.15030400      -1.16585746
H        1.87303031      -0.18869561       1.71325905
H        2.58313585      -0.36644093       0.07797365
H       -1.11222850      -0.59678939       1.80870048
H        0.13408256      -1.39945358       0.32360669
H       -2.05282542       1.13051178      -0.23673017
H       -2.43510444      -0.52762877      -0.74544108
H        0.03792111       1.13751588      -1.48128856
H       -0.19390762      -0.56140930      -1.98522921
14
Frame=1 idx=004656 GeodesicLength=0.0807606495115787 rxn_smarts="[C:1]1([H:7])([H:8])[O:2][C:3]12[C:4]([H:9])([H:10])[C:5]([H:11])([H:12])[C:6]2([H:13])[H:14]>>[C:1](=[O:2])([H:7])[H:8].[C:3]1([H:10])=[C:4]([H:9])[C:5]([H:11])([H:12])[C:6]1([H:13])[H:14]"
C        1.83077195       0.18501213       0.67071065
O        1.70523640       1.47066119       0.49715300
C        0.39193163      -0.26870972       0.13875260
C       -0.85593513      -0.32053718       0.79112122
C       -1.63795284       0.13182775      -0.39789145
C       -0.28555681       0.14885164      -1.16942489
H        1.89133584      -0.19570644       1.71607718
H        2.59577913      -0.35046255       0.06909391
H       -1.11399550      -0.57022466       1.81496727
H        0.12535364      -1.41761509       0.33607039
H       -2.05210348       1.13265467      -0.23530581
H       -2.43303729      -0.52378360      -0.75280578
H        0.03605388       1.13643252      -1.48547389
H       -0.19788141      -0.55840065      -1.99304441
14
Frame=2 idx=004656 GeodesicLength=0.1615553896943912 rxn_smarts="[C:1]1([H:7])([H:8])[O:2][C:3]12[C:4]([H:9])([H:10])[C:5]([H:11])([H:12])[C:6]2([H:13])[H:14]>>[C:1](=[O:2])([H:7])[H:8].[C:3]1([H:10])=[C:4]([H:9])[C:5]([H:11])([H:12])[C:6]1([H:13])[H:14]"
C        1.84372465       0.18275910       0.67677296
O        1.68140514       1.46479719       0.51018691
C        0.38845035      -0.27511247       0.13336792
C       -0.85779105      -0.33367109       0.78751438
C       -1.63762715       0.13451353      -0.39916673
C       -0.28686832       0.14749628      -1.17296400
H        1.90987890      -0.20226817       1.71893861
H        2.60827370      -0.33428224       0.06067667
H       -1.11533539      -0.54317266       1.81999870
H        0.11629379      -1.43605441       0.34885612
H       -2.05152042       1.13460911      -0.23378573
H       -2.43097704      -0.52003677      -0.76006272
H        0.03406276       1.13553086      -1.48939575
H       -0.20196992      -0.55510826      -2.00093734
14
Frame=3 idx=004656 GeodesicLength=0.24238345348082746 rxn_smarts="[C:1]1([H:7])([H:8])[O:2][C:3]12[C:4]([H:9])([H:10])[C:5]([H:11])([H:12])[C:6]2([H:13])[H:14]>>[C:1](=[O:2])([H:7])[H:8].[C:3]1([H:10])=[C:4]([H:9])[C:5]([H:11])([H:12])[C:6]1([H:13])[H:14]"
C        1.85690426       0.18074770       0.68283945
O        1.65795880       1.45808716       0.52305495
C        0.38484816      -0.28168348       0.12790816
C       -0.85971000      -0.34680610       0.78399133
C       -1.63732649       0.13709247      -0.40031696
C       -0.28827734       0.14624532      -1.17646756
H        1.92867729      -0.20831669       1.72186070
H        2.62061714      -0.31795620       0.05272301
H       -1.11629905      -0.51598200       1.82370215
H        0.10683726      -1.45471304       0.36204906
H       -2.05109050       1.13641390      -0.23222414
H       -2.42891907      -0.51638381      -0.76716882
H        0.03195817       1.13480538      -1.49307662
H       -0.20617862      -0.55155063      -2.00887471
14
Frame=4 idx=004656 GeodesicLength=0.3232429731006889 rxn_smarts="[C:1]1([H:7])([H:8])[O:2][C:3]12[C:4]([H:9])([H:10])[C:5]([H:11])([H:12])[C:6]2([H:13])[H:14]>>[C:1](=[O:2])([H:7])[H:8].[C:3]1([H:10])=[C:4]([H:9])[C:5]([H:11])([H:12])[C:6]1([H:13])[H:14]"
C        1.87033497       0.17900169       0.68890915
O        1.63497162       1.45055818       0.53568174
C        0.38112347      -0.28838839       0.12238118
C       -0.86168370      -0.35981488       0.78058419
C       -1.63705337       0.13959723      -0.40134498
C       -0.28978219       0.14510737      -1.17993372
H        1.94774564      -0.21379255       1.72485914
H        2.63281181      -0.30154071       0.04523039
H       -1.11694154      -0.48899247       1.82604548
H        0.09691768      -1.47353266       0.37572806
H       -2.05082682       1.13810694      -0.23067567
H       -2.42685889      -0.51282088      -0.77409167
H        0.02975167       1.13425291      -1.49654108
H       -0.21051034      -0.54774178      -2.01683220
14
Frame=5 idx=004656 GeodesicLength=0.4041306394920526 rxn_smarts="[C:1]1([H:7])([H:8])[O:2][C:3]12[C:4]([H:9])([H:10])[C:5]([H:11])([H:12])[C:6]2([H:13])[H:14]>>[C:1](=[O:2])([H:7])[H:8].[C:3]1([H:10])=[C:4]([H:9])[C:5]([H:11])([H:12])[C:6]1([H:13])[H:14]"
C        1.88403840       0.17754318       0.69498164
O        1.61250793       1.44223904       0.54799880
C        0.37727619      -0.29520024       0.11678706
C       -0.86370403      -0.37259418       0.77731162
C       -1.63681004       0.14205700      -0.40226025
C       -0.29138042       0.14409122      -1.18336610
H        1.96709242      -0.21864181       1.72794958
H        2.64486465      -0.28508970       0.03819578
H       -1.11731456      -0.46250474       1.82705358
H        0.08647396      -1.49246168       0.38995757
H       -2.05073858       1.13972196      -0.22918717
H       -2.42479372      -0.50934271      -0.78081209
H        0.02745425       1.13387240      -1.49981368
H       -0.21496645      -0.54368974      -2.02479634
14
Frame=6 idx=004656 GeodesicLength=0.4850436518117752 rxn_smarts="[C:1]1([H:7])([H:8])[O:2][C:3]12[C:4]([H:9])([H:10])[C:5]([H:11])([H:12])[C:6]2([H:13])[H:14]>>[C:1](=[O:2])([H:7])[H:8].[C:3]1([H:10])=[C:4]([H:9])[C:5]([H:11])([H:12])[C:6]1([H:13])[H:14]"
C        1.89803228       0.17639174       0.70105726
O        1.59061224       1.43315825       0.55995924
C        0.37330664      -0.30210299       0.11111917
C       -0.86576518      -0.38507260       0.77417912
C       -1.63659844       0.14449441      -0.40307779
C       -0.29306850       0.14320375      -1.18677275
H        1.98672399      -0.22282790       1.73114338
H        2.65678638      -0.26864448       0.03160903
H       -1.11745946      -0.43674715       1.82679699
H        0.07545168      -1.51146043       0.40478766
H       -2.05083070       1.14128547      -0.22779576
H       -2.42272243      -0.50594403      -0.78732539
H        0.02507726       1.13366374      -1.50291589
H       -0.21954575      -0.53939778      -2.03276427
14
Frame=7 idx=004656 GeodesicLength=0.5659788221757025 rxn_smarts="[C:1]1([H:7])([H:8])[O:2][C:3]12[C:4]([H:9])([H:10])[C:5]([H:11])([H:12])[C:6]2([H:13])[H:14]>>[C:1](=[O:2])([H:7])[H:8].[C:3]1([H:10])=[C:4]([H:9])[C:5]([H:11])([H:12])[C:6]1([H:13])[H:14]"
C        1.91233095       0.17556515       0.70713825
O        1.56931451       1.42334139       0.57152882
C        0.36921581      -0.30908980       0.10536525
C       -0.86786231      -0.39721078       0.77118071
C       -1.63641998       0.14692550      -0.40381484
C       -0.29484290       0.14245052      -1.19016448
H        2.00664258      -0.22632328       1.73445118
H        2.66859010      -0.25223896       0.02545949
H       -1.11740785      -0.41188091       1.82537302
H        0.06380514      -1.53050082       0.42025247
H       -2.05110363       1.14281615      -0.22652537
H       -2.42064598      -0.50261861      -0.79363777
H        0.02263008       1.13362817      -1.50586525
H       -0.22424651      -0.53486371      -2.04074148
14
Frame=8 idx=004656 GeodesicLength=0.646933505674278 rxn_smarts="[C:1]1([H:7])([H:8])[O:2][C:3]12[C:4]([H:9])([H:10])[C:5]([H:11])([H:12])[C:6]2([H:13])[H:14]>>[C:1](=[O:2])([H:7])[H:8].[C:3]1([H:10])=[C:4]([H:9])[C:5]([H:11])([H:12])[C:6]1([H:13])[H:14]"
C        1.92694539       0.17507968       0.71322886
O        1.54862918       1.41280977       0.58268819
C        0.36500469      -0.31616246       0.09950888
C       -0.86999212      -0.40899750       0.76830167
C       -1.63627562       0.14935962      -0.40448931
C       -0.29670023       0.14183538      -1.19355360
H        2.02684814      -0.22911084       1.73788213
H        2.68028997      -0.23589817       0.01973487
H       -1.11717768      -0.38800079       1.82289140
H        0.05149543      -1.54956596       0.43637334
H       -2.05155452       1.14432488      -0.22538833
H       -2.41856676      -0.49936004      -0.79976393
H        0.02012051       1.13376759      -1.50867452
H       -0.22906638      -0.53008115      -2.04873966
14
Frame=9 idx=004656 GeodesicLength=0.7279084888089211 rxn_smarts="[C:1]1([H:7])([H:8])[O:2][C:3]12[C:4]([H:9])([H:10])[C:5]([H:11])([H:12])[C:6]2([H:13])[H:14]>>[C:1](=[O:2])([H:7])[H:8].[C:3]1([H:10])=[C:4]([H:9])[C:5]([H:11])([H:12])[C:6]1([H:13])[H:14]"
C        1.94188543       0.17495217       0.71933627
O        1.52856399       1.40158180       0.59342244
C        0.36067462      -0.32332801       0.09353101
C       -0.87215129      -0.42044219       0.76552207
C       -1.63616595       0.15180230      -0.40511796
C       -0.29863839       0.14136101      -1.19695394
H        2.04733865      -0.23117439       1.74144832
H        2.69190148      -0.21964411       0.01442660
H       -1.11677915      -0.36516257       1.81946299
H        0.03848889      -1.56864780       0.45316158
H       -2.05217673       1.14581868      -0.22438638
H       -2.41648975      -0.49616024      -0.80572268
H        0.01755380       1.13408494      -1.51135503
H       -0.23400561      -0.52504159      -2.05677528
14
Frame=10 idx=004656 GeodesicLength=0.8089648712657999 rxn_smarts="[C:1]1([H:7])([H:8])[O:2][C:3]12[C:4]([H:9])([H:10])[C:5]([H:11])([H:12])[C:6]2([H:13])[H:14]>>[C:1](=[O:2])([H:7])[H:8].[C:3]1([H:10])=[C:4]([H:9])[C:5]([H:11])([H:12])[C:6]1([H:13])[H:14]"
C        1.95717667       0.17520091       0.72548332
O        1.50912783       1.38968866       0.60374266
C        0.35622801      -0.33060581       0.08741403
C       -0.87433761      -0.43157587       0.76282142
C       -1.63610388       0.15425742      -0.40572753
C       -0.30066810       0.14102893      -1.20039048
H        2.06814237      -0.23251180       1.74518226
H        2.70345484      -0.20348932       0.00953310
H       -1.11619614      -0.34337841       1.81520327
H        0.02475453      -1.58776840       0.47063188
H       -2.05297294       1.14731667      -0.22352774
H       -2.41444238      -0.49301643      -0.81155380
H        0.01492319       1.13459651      -1.51392748
H       -0.23908640      -0.51974306      -2.06488492
14
Frame=11 idx=004656 GeodesicLength=0.889902234785144 rxn_smarts="[C:1]1([H:7])([H:8])[O:2][C:3]12[C:4]([H:9])([H:10])[C:5]([H:11])([H:12])[C:6]2([H:13])[H:14]>>[C:1](=[O:2])([H:7])[H:8].[C:3]1([H:10])=[C:4]([H:9])[C:5]([H:11])([H:12])[C:6]1([H:13])[H:14]"
C        1.97277674       0.17583237       0.73161896
O        1.49027844       1.37707786       0.61363837
C        0.35165894      -0.33798736       0.08113871
C       -0.87655258      -0.44238955       0.76017684
C       -1.63605231       0.15671153      -0.40629961
C       -0.30274254       0.14083894      -1.20382908
H        2.08919219      -0.23311849       1.74899652
H        2.71491281      -0.18743960       0.00497913
H       -1.11550158      -0.32263798       1.81014677
H        0.01025363      -1.60683937       0.48879803
H       -2.05391919       1.14875706      -0.22278181
H       -2.41235187      -0.48992173      -0.81722817
H        0.01227242       1.13526177      -1.51633590
H       -0.24422510      -0.51414546      -2.07301878
14
Frame=12 idx=004656 GeodesicLength=0.9709471287198459 rxn_smarts="[C:1]1([H:7])([H:8])[O:2][C:3]12[C:4]([H:9])([H:10])[C:5]([H:11])([H:12])[C:6]2([H:13])[H:14]>>[C:1](=[O:2])([H:7])[H:8].[C:3]1([H:10])=[C:4]([H:9])[C:5]([H:11])([H:12])[C:6]1([H:13])[H:14]"
C        1.98874351       0.17687532       0.73780953
O        1.47202942       1.36380688       0.62314954
C        0.34696895      -0.34552153       0.07468697
C       -0.87879764      -0.45296793       0.75756652
C       -1.63604609       0.15916953      -0.40688164
C       -0.30490203       0.14078819      -1.20732794
H        2.11058133      -0.23300767       1.75298482
H        2.72634215      -0.17146694       0.00079900
H       -1.11461751      -0.30289924       1.80443802
H       -0.00505717      -1.62596063       0.50767328
H       -2.05501089       1.15019506      -0.22216748
H       -2.41030313      -0.48687162      -0.82282329
H        0.00957814       1.13612358      -1.51864236
H       -0.24950906      -0.50826301      -2.08126499
14
Frame=13 idx=004656 GeodesicLength=1.051953873775945 rxn_smarts="[C:1]1([H:7])([H:8])[O:2][C:3]12[C:4]([H:9])([H:10])[C:5]([H:11])([H:12])[C:6]2([H:13])[H:14]>>[C:1](=[O:2])([H:7])[H:8].[C:3]1([H:10])=[C:4]([H:9])[C:5]([H:11])([H:12])[C:6]1([H:13])[H:14]"
C        2.00505328       0.17834383       0.74403936
O        1.45436733       1.34984524       0.63222385
C        0.34216295      -0.35320104       0.06802777
C       -0.88106128      -0.46332523       0.75495427
C       -1.63606567       0.16162343      -0.40745901
C       -0.30712622       0.14088136      -1.21086980
H        2.13222987      -0.23212384       1.75712508
H        2.73772697      -0.15564807      -0.00301022
H       -1.11354744      -0.28415813       1.79810743
H       -0.02119074      -1.64507483       0.52722611
H       -2.05624601       1.15159027      -0.22163582
H       -2.40825361      -0.48385327      -0.82832327
H        0.00684010       1.13716404      -1.52080624
H       -0.25488953      -0.50206379      -2.08959952
14
Frame=14 idx=004656 GeodesicLength=1.132999987286882 rxn_smarts="[C:1]1([H:7])([H:8])[O:2][C:3]12[C:4]([H:9])([H:10])[C:5]([H:11])([H:12])[C:6]2([H:13])[H:14]>>[C:1](=[O:2])([H:7])[H:8].[C:3]1([H:10])=[C:4]([H:9])[C:5]([H:11])([H:12])[C:6]1([H:13])[H:14]"
C        2.02174024       0.18026502       0.75032753
O        1.43732238       1.33521320       0.64087316
C        0.33723981      -0.36104272       0.06114728
C       -0.88334051      -0.47350509       0.75233140
C       -1.63612332       0.16406692      -0.40805227
C       -0.30942679       0.14112614      -1.21447962
H        2.15417711      -0.23046033       1.76145080
H        2.74909812      -0.13999505      -0.00645365
H       -1.11229414      -0.26641203       1.79123101
H       -0.03819689      -1.66420406       0.54748831
H       -2.05762494       1.15294869      -0.22119161
H       -2.40623328      -0.48087800      -0.83376323
H        0.00405479       1.13841111      -1.52284816
H       -0.26039258      -0.49553380      -2.09806096
14
Frame=15 idx=004656 GeodesicLength=1.2140582074872053 rxn_smarts="[C:1]1([H:7])([H:8])[O:2][C:3]12[C:4]([H:9])([H:10])[C:5]([H:11])([H:12])[C:6]2([H:13])[H:14]>>[C:1](=[O:2])([H:7])[H:8].[C:3]1([H:10])=[C:4]([H:9])[C:5]([H:11])([H:12])[C:6]1([H:13])[H:14]"
C        2.03880517       0.18266353       0.75667788
O        1.42087961       1.31989462       0.64909470
C        0.33219972      -0.36906112       0.05402137
C       -0.88563045      -0.48354556       0.74967143
C       -1.63621241       0.16649199      -0.40866307
C       -0.31179802       0.14152231      -1.21815996
H        2.17641198      -0.22799620       1.76596095
H        2.76046221      -0.12452700      -0.00954052
H       -1.11084409      -0.24962897       1.78385069
H       -0.05611672      -1.68333751       0.56846062
H       -2.05913741       1.15425418      -0.22081030
H       -2.40423511      -0.47793831      -0.83915326
H        0.00122553       1.13986148      -1.52475498
H       -0.26601001      -0.48865344      -2.10665555
14
Frame=16 idx=004656 GeodesicLength=1.2951274541283078 rxn_smarts="[C:1]1([H:7])([H:8])[O:2][C:3]12[C:4]([H:9])([H:10])[C:5]([H:11])([H:12])[C:6]2([H:13])[H:14]>>[C:1](=[O:2])([H:7])[H:8].[C:3]1([H:10])=[C:4]([H:9])[C:5]([H:11])([H:12])[C:6]1([H:13])[H:14]"
C        2.05625857       0.18556886       0.76309938
O        1.40503903       1.30387836       0.65688428
C        0.32704344      -0.37727093       0.04662674
C       -0.88792465      -0.49348676       0.74695185
C       -1.63633115       0.16889018      -0.40929575
C       -0.31423963       0.14207239      -1.22191857
H        2.19893516      -0.22470576       1.77066596
H        2.77183289      -0.10926913      -0.01227348
H       -1.10918424      -0.23378777       1.77600589
H       -0.07499797      -1.70247066       0.59015050
H       -2.06077722       1.15549474      -0.22047166
H       -2.40226160      -0.47503176      -0.84450748
H       -0.00164863       1.14152073      -1.52652040
H       -0.27174400      -0.48140248      -2.11539726
