17
Frame=0 idx=010090 GeodesicLength=0.0 rxn_smarts="[C:1]([C:2]([O:3][C@@:4]([C:5]([H:14])([H:15])[H:16])([C:6](=[O:7])[H:17])[H:13])([H:11])[H:12])([H:8])([H:9])[H:10]>>[C:1]([C:2]([O:3][O:7]/[C:6](=[C:4](/[C:5]([H:14])([H:15])[H:16])[H:13])[H:17])([H:11])[H:12])([H:8])([H:9])[H:10]"
C        2.63237842      -1.01077152      -0.28877886
C        1.36346918      -1.44729677       0.42622988
O        0.24147551      -0.75070702       0.03892746
C       -1.83586413       0.56874884       0.05818110
C       -2.09375821       1.87243825       0.70130034
C       -1.28462018       0.41937677      -1.21085352
O       -0.94192844      -0.71740321      -1.60339813
H        2.82501780       0.04858261      -0.10966767
H        3.49724008      -1.58547912       0.05145360
H        2.52001213      -1.15906761      -1.36425280
H        1.19242129      -2.52921786       0.30546384
H        1.46672829      -1.29575910       1.51570445
H       -2.10881131      -0.34217421       0.57623745
H       -3.15287290       1.95957810       0.96404023
H       -1.53849556       1.94414630       1.64063607
H       -1.81134174       2.70941238       0.06305602
H       -0.97105022       1.31559315      -1.76427951
17
Frame=1 idx=010090 GeodesicLength=0.05418058136707549 rxn_smarts="[C:1]([C:2]([O:3][C@@:4]([C:5]([H:14])([H:15])[H:16])([C:6](=[O:7])[H:17])[H:13])([H:11])[H:12])([H:8])([H:9])[H:10]>>[C:1]([C:2]([O:3][O:7]/[C:6](=[C:4](/[C:5]([H:14])([H:15])[H:16])[H:13])[H:17])([H:11])[H:12])([H:8])([H:9])[H:10]"
C        2.63496802      -1.01183441      -0.29362114
C        1.36267020      -1.43482801       0.42260827
O        0.25627473      -0.69680100       0.06226852
C       -1.81585046       0.56150211       0.07641179
C       -2.10033601       1.87219532       0.69624235
C       -1.29239036       0.40620688      -1.20526187
O       -0.94023060      -0.73523232      -1.58155626
H        2.85502752       0.03800779      -0.09172493
H        3.48835817      -1.61527045       0.02486499
H        2.51102502      -1.13264594      -1.37122561
H        1.16314875      -2.50793044       0.27380568
H        1.47791343      -1.31295105       1.51400128
H       -2.10841635      -0.34404533       0.59400273
H       -3.16753286       1.95866734       0.92338669
H       -1.57402291       1.95616819       1.65094506
H       -1.80126396       2.70436800       0.05919576
H       -0.94934233       1.29442331      -1.75434332
17
Frame=2 idx=010090 GeodesicLength=0.10843149193588844 rxn_smarts="[C:1]([C:2]([O:3][C@@:4]([C:5]([H:14])([H:15])[H:16])([C:6](=[O:7])[H:17])[H:13])([H:11])[H:12])([H:8])([H:9])[H:10]>>[C:1]([C:2]([O:3][O:7]/[C:6](=[C:4](/[C:5]([H:14])([H:15])[H:16])[H:13])[H:17])([H:11])[H:12])([H:8])([H:9])[H:10]"
C        2.63457211      -1.00819481      -0.29720545
C        1.36002863      -1.42527776       0.41752295
O        0.26718365      -0.65226830       0.08391947
C       -1.79456147       0.55438023       0.09522577
C       -2.10243266       1.87248495       0.69070270
C       -1.29856729       0.39082368      -1.19810724
O       -0.94257157      -0.75656838      -1.55870914
H        2.87631107       0.03177186      -0.07078492
H        3.47823014      -1.63578261      -0.00057156
H        2.50215140      -1.10010996      -1.37661295
H        1.13803395      -2.48902248       0.23943916
H        1.48390153      -1.33407835       1.51035974
H       -2.10838954      -0.34437406       0.61316703
H       -3.17642575       1.96022695       0.88163320
H       -1.60578825       1.96801314       1.65994996
H       -1.78471634       2.69899705       0.05519053
H       -0.92695962       1.26897885      -1.74511925
17
Frame=3 idx=010090 GeodesicLength=0.1632673106486138 rxn_smarts="[C:1]([C:2]([O:3][C@@:4]([C:5]([H:14])([H:15])[H:16])([C:6](=[O:7])[H:17])[H:13])([H:11])[H:12])([H:8])([H:9])[H:10]>>[C:1]([C:2]([O:3][O:7]/[C:6](=[C:4](/[C:5]([H:14])([H:15])[H:16])[H:13])[H:17])([H:11])[H:12])([H:8])([H:9])[H:10]"
C        2.63095875      -0.99828002      -0.29938393
C        1.35578473      -1.41996001       0.41094112
O        0.27277361      -0.61855442       0.10634502
C       -1.77321634       0.54727230       0.11454602
C       -2.09932982       1.87404193       0.68397354
C       -1.30379555       0.37202752      -1.18909011
O       -0.95009297      -0.78318728      -1.53331872
H        2.88787026       0.03144779      -0.04430980
H        3.46783474      -1.64552103      -0.02685940
H        2.49236032      -1.05757197      -1.38034187
H        1.11830563      -2.47402393       0.20007518
H        1.48575167      -1.36259785       1.50484807
H       -2.11102723      -0.34248672       0.63405961
H       -3.17871360       1.96670042       0.83764906
H       -1.63319159       1.98027138       1.66702361
H       -1.75953226       2.69316019       0.05015306
H       -0.90274035       1.23726169      -1.73631046
17
Frame=4 idx=010090 GeodesicLength=0.21818604463384028 rxn_smarts="[C:1]([C:2]([O:3][C@@:4]([C:5]([H:14])([H:15])[H:16])([C:6](=[O:7])[H:17])[H:13])([H:11])[H:12])([H:8])([H:9])[H:10]>>[C:1]([C:2]([O:3][O:7]/[C:6](=[C:4](/[C:5]([H:14])([H:15])[H:16])[H:13])[H:17])([H:11])[H:12])([H:8])([H:9])[H:10]"
C        2.63180780      -0.99751709      -0.30233002
C        1.35163793      -1.40735463       0.40473769
O        0.28570317      -0.57379496       0.11956628
C       -1.75131892       0.54059788       0.13268870
C       -2.10145249       1.87214560       0.68020149
C       -1.30886495       0.35947316      -1.18160318
O       -0.95224505      -0.80059447      -1.51329605
H        2.91120449       0.02117235      -0.02793683
H        3.45590925      -1.66740630      -0.04671119
H        2.48903990      -1.03291152      -1.38371688
H        1.09157425      -2.45076981       0.17148879
H        1.48543514      -1.37412226       1.49854677
H       -2.10554689      -0.34309680       0.65282852
H       -3.18527111       1.96268831       0.79882243
H       -1.66500081       1.98900096       1.67545953
H       -1.74555321       2.68760174       0.05034126
H       -0.88705851       1.21488784      -1.72908731
17
Frame=5 idx=010090 GeodesicLength=0.27389016988256315 rxn_smarts="[C:1]([C:2]([O:3][C@@:4]([C:5]([H:14])([H:15])[H:16])([C:6](=[O:7])[H:17])[H:13])([H:11])[H:12])([H:8])([H:9])[H:10]>>[C:1]([C:2]([O:3][O:7]/[C:6](=[C:4](/[C:5]([H:14])([H:15])[H:16])[H:13])[H:17])([H:11])[H:12])([H:8])([H:9])[H:10]"
C        2.62724096      -0.98775784      -0.30452779
C        1.34620155      -1.40104623       0.39790065
O        0.29041881      -0.54376115       0.13845655
C       -1.73052047       0.53361095       0.15102714
C       -2.09699966       1.87229165       0.67423107
C       -1.31185843       0.34200416      -1.17167281
O       -0.95970431      -0.82557348      -1.48876496
H        2.92048025       0.01976253      -0.00480494
H        3.44405797      -1.67434140      -0.07130549
H        2.48027071      -0.99354841      -1.38584067
H        1.07278569      -2.43389374       0.13664359
H        1.48372821      -1.39717600       1.49110911
H       -2.10680858      -0.34083089       0.67252066
H       -3.18372244       1.96713304       0.75531438
H       -1.69209323       1.99819346       1.68144763
H       -1.71881966       2.68119645       0.04884124
H       -0.86465737       1.18373692      -1.72057534
17
Frame=6 idx=010090 GeodesicLength=0.3296016890426271 rxn_smarts="[C:1]([C:2]([O:3][C@@:4]([C:5]([H:14])([H:15])[H:16])([C:6](=[O:7])[H:17])[H:13])([H:11])[H:12])([H:8])([H:9])[H:10]>>[C:1]([C:2]([O:3][O:7]/[C:6](=[C:4](/[C:5]([H:14])([H:15])[H:16])[H:13])[H:17])([H:11])[H:12])([H:8])([H:9])[H:10]"
C        2.62431639      -0.98157667      -0.30689330
C        1.34038234      -1.39157458       0.39135903
O        0.29770411      -0.50982969       0.15272076
C       -1.71003227       0.52668134       0.16826822
C       -2.09410436       1.87063041       0.66970318
C       -1.31463347       0.32734119      -1.16265660
O       -0.96496866      -0.84644458      -1.46703653
H        2.93390127       0.01454869       0.01379328
H        3.43132323      -1.68555389      -0.09255952
H        2.47470303      -0.96200080      -1.38769617
H        1.05141542      -2.41372075       0.10723246
H        1.47994359      -1.41209785       1.48358074
H       -2.10475236      -0.33983934       0.69076438
H       -3.18263327       1.96693997       0.71505081
H       -1.71972611       2.00490275       1.68747052
H       -1.69654589       2.67482153       0.05005810
H       -0.84629298       1.15677228      -1.71315935
17
Frame=7 idx=010090 GeodesicLength=0.3859831984751706 rxn_smarts="[C:1]([C:2]([O:3][C@@:4]([C:5]([H:14])([H:15])[H:16])([C:6](=[O:7])[H:17])[H:13])([H:11])[H:12])([H:8])([H:9])[H:10]>>[C:1]([C:2]([O:3][O:7]/[C:6](=[C:4](/[C:5]([H:14])([H:15])[H:16])[H:13])[H:17])([H:11])[H:12])([H:8])([H:9])[H:10]"
C        2.61949298      -0.97287400      -0.30904963
C        1.33391171      -1.38336413       0.38483890
O        0.30218507      -0.48071760       0.16790543
C       -1.69072654       0.51937681       0.18480630
C       -2.08877261       1.86896945       0.66483249
C       -1.31643016       0.31166337      -1.15313901
O       -0.97141450      -0.86884063      -1.44454933
H        2.94268776       0.01164103       0.03302376
H        3.41829901      -1.69169168      -0.11464500
H        2.46737880      -0.92745006      -1.38864537
H        1.03250120      -2.39474627       0.07783045
H        1.47530816      -1.42831296       1.47545052
H       -2.10494847      -0.33824645       0.70820613
H       -3.17769667       1.96897279       0.67420579
H       -1.74525475       2.01031941       1.69228128
H       -1.67005554       2.66772413       0.05203108
H       -0.82646547       1.12757679      -1.70538379
17
Frame=8 idx=010090 GeodesicLength=0.44274582217778274 rxn_smarts="[C:1]([C:2]([O:3][C@@:4]([C:5]([H:14])([H:15])[H:16])([C:6](=[O:7])[H:17])[H:13])([H:11])[H:12])([H:8])([H:9])[H:10]>>[C:1]([C:2]([O:3][O:7]/[C:6](=[C:4](/[C:5]([H:14])([H:15])[H:16])[H:13])[H:17])([H:11])[H:12])([H:8])([H:9])[H:10]"
C        2.61402940      -0.96395937      -0.31138763
C        1.32712044      -1.37516756       0.37865445
O        0.30589918      -0.45334695       0.18283881
C       -1.67210301       0.51197693       0.20074528
C       -2.08294371       1.86689530       0.66009720
C       -1.31713797       0.29652578      -1.14351220
O       -0.97751045      -0.89060833      -1.42242339
H        2.95018595       0.00881747       0.05100850
H        3.40486271      -1.69640649      -0.13680444
H        2.45955847      -0.89361768      -1.38927385
H        1.01425300      -2.37585687       0.05029603
H        1.47015142      -1.44309968       1.46726595
H       -2.10553819      -0.33665537       0.72466793
H       -3.17108524       1.97061094       0.63385283
H       -1.77020639       2.01475999       1.69625837
H       -1.64329288       2.66042627       0.05505244
H       -0.80624274       1.09870563      -1.69733627
17
Frame=9 idx=010090 GeodesicLength=0.49967120556102046 rxn_smarts="[C:1]([C:2]([O:3][C@@:4]([C:5]([H:14])([H:15])[H:16])([C:6](=[O:7])[H:17])[H:13])([H:11])[H:12])([H:8])([H:9])[H:10]>>[C:1]([C:2]([O:3][O:7]/[C:6](=[C:4](/[C:5]([H:14])([H:15])[H:16])[H:13])[H:17])([H:11])[H:12])([H:8])([H:9])[H:10]"
C        2.61120896      -0.96162153      -0.31442279
C        1.32018673      -1.36170797       0.37349575
O        0.31466270      -0.41765676       0.19081650
C       -1.65279373       0.50489983       0.21519436
C       -2.08086477       1.86209169       0.65775688
C       -1.31736719       0.28621830      -1.13585708
O       -0.97866297      -0.90538300      -1.40542577
H        2.96489887      -0.00024407       0.06129563
H        3.38977747      -1.71006161      -0.15372807
H        2.45619597      -0.87343433      -1.39087935
H        0.99144182      -2.35222379       0.03148377
H        1.46300500      -1.44487495       1.46048098
H       -2.10001478      -0.33766924       0.73878112
H       -3.16767738       1.96456382       0.59860149
H       -1.79750813       2.01545891       1.70138126
H       -1.62538987       2.65373659       0.06183568
H       -0.79109872       1.07790811      -1.69081034
17
Frame=10 idx=010090 GeodesicLength=0.5571002431466116 rxn_smarts="[C:1]([C:2]([O:3][C@@:4]([C:5]([H:14])([H:15])[H:16])([C:6](=[O:7])[H:17])[H:13])([H:11])[H:12])([H:8])([H:9])[H:10]>>[C:1]([C:2]([O:3][O:7]/[C:6](=[C:4](/[C:5]([H:14])([H:15])[H:16])[H:13])[H:17])([H:11])[H:12])([H:8])([H:9])[H:10]"
C        2.60573254      -0.95442266      -0.31716874
C        1.31289969      -1.35187600       0.36800608
O        0.31892997      -0.38999785       0.20283679
C       -1.63485158       0.49751372       0.22989915
C       -2.07547320       1.85866038       0.65395845
C       -1.31667047       0.27319898      -1.12673986
O       -0.98298872      -0.92427314      -1.38538263
H        2.97286798      -0.00493581       0.07546779
H        3.37514103      -1.71572525      -0.17431031
H        2.44937650      -0.84457539      -1.39142668
H        0.97290316      -2.33216738       0.00915249
H        1.45627069      -1.45357648       1.45277500
H       -2.09889441      -0.33687429       0.75347879
H       -3.15952355       1.96346460       0.56063767
H       -1.82240235       2.01732333       1.70440320
H       -1.60098599       2.64638256       0.06753325
H       -0.77233128       1.05188068      -1.68312044
17
Frame=11 idx=010090 GeodesicLength=0.6150057153877068 rxn_smarts="[C:1]([C:2]([O:3][C@@:4]([C:5]([H:14])([H:15])[H:16])([C:6](=[O:7])[H:17])[H:13])([H:11])[H:12])([H:8])([H:9])[H:10]>>[C:1]([C:2]([O:3][O:7]/[C:6](=[C:4](/[C:5]([H:14])([H:15])[H:16])[H:13])[H:17])([H:11])[H:12])([H:8])([H:9])[H:10]"
C        2.59992091      -0.94718580      -0.31997974
C        1.30546874      -1.34205233       0.36260235
O        0.32283554      -0.36345566       0.21440356
C       -1.61722854       0.49019371       0.24435619
C       -2.06993811       1.85503979       0.65018369
C       -1.31528880       0.26054962      -1.11744536
O       -0.98724445      -0.94273645      -1.36546810
H        2.98027407      -0.01006033       0.08918162
H        3.36006489      -1.72072134      -0.19517326
H        2.44238603      -0.81583505      -1.39158328
H        0.95494143      -2.31217652      -0.01203468
H        1.44918474      -1.46135658       1.44491095
H       -2.09757179      -0.33592619       0.76783108
H       -3.15015850       1.96199434       0.52297164
H       -1.84728886       2.01877453       1.70653771
H       -1.57682366       2.63895700       0.07395970
H       -0.75353365       1.02599725      -1.67525408
17
Frame=12 idx=010090 GeodesicLength=0.6735558230262793 rxn_smarts="[C:1]([C:2]([O:3][C@@:4]([C:5]([H:14])([H:15])[H:16])([C:6](=[O:7])[H:17])[H:13])([H:11])[H:12])([H:8])([H:9])[H:10]>>[C:1]([C:2]([O:3][O:7]/[C:6](=[C:4](/[C:5]([H:14])([H:15])[H:16])[H:13])[H:17])([H:11])[H:12])([H:8])([H:9])[H:10]"
C        2.59265427      -0.93726377      -0.32280240
C        1.29793244      -1.33437587       0.35710605
O        0.32420918      -0.34171241       0.22871411
C       -1.60068494       0.48272687       0.25903924
C       -2.06273422       1.85223958       0.64545684
C       -1.31307450       0.24654151      -1.10715606
O       -0.99325005      -0.96329976      -1.34358618
H        2.98422958      -0.01310898       0.10485766
H        3.34518846      -1.72114373      -0.21883998
H        2.43322840      -0.78200444      -1.39093043
H        0.93940539      -2.29428500      -0.03483299
H        1.44267553      -1.47308453       1.43641840
H       -2.09897225      -0.33379468       0.78242321
H       -3.13777045       1.96310888       0.48353076
H       -1.87125310       2.02120352       1.70695207
H       -1.54931911       2.63113806       0.07999109
H       -0.73246464       0.99711472      -1.66634138
17
Frame=13 idx=010090 GeodesicLength=0.7334621292505454 rxn_smarts="[C:1]([C:2]([O:3][C@@:4]([C:5]([H:14])([H:15])[H:16])([C:6](=[O:7])[H:17])[H:13])([H:11])[H:12])([H:8])([H:9])[H:10]>>[C:1]([C:2]([O:3][O:7]/[C:6](=[C:4](/[C:5]([H:14])([H:15])[H:16])[H:13])[H:17])([H:11])[H:12])([H:8])([H:9])[H:10]"
C        2.58297801      -0.92357098      -0.32590845
C        1.29038151      -1.32953734       0.35177996
O        0.32194905      -0.32650649       0.24779981
C       -1.58577967       0.47482785       0.27397590
C       -2.05317330       1.85045181       0.63933992
C       -1.30935985       0.23059030      -1.09547668
O       -1.00110880      -0.98669180      -1.31889483
H        2.98323520      -0.01312636       0.12237520
H        3.33054091      -1.71493149      -0.24678203
H        2.41970765      -0.74144833      -1.38912180
H        0.92686738      -2.27891791      -0.05944906
H        1.43807558      -1.49025136       1.42699803
H       -2.10492416      -0.33005216       0.79662317
H       -3.12117780       1.96819457       0.44092870
H       -1.89446041       2.02475222       1.70516836
H       -1.51647480       2.62233040       0.08585268
H       -0.70727650       0.96388707      -1.65520888
17
Frame=14 idx=010090 GeodesicLength=0.7944240563780458 rxn_smarts="[C:1]([C:2]([O:3][C@@:4]([C:5]([H:14])([H:15])[H:16])([C:6](=[O:7])[H:17])[H:13])([H:11])[H:12])([H:8])([H:9])[H:10]>>[C:1]([C:2]([O:3][O:7]/[C:6](=[C:4](/[C:5]([H:14])([H:15])[H:16])[H:13])[H:17])([H:11])[H:12])([H:8])([H:9])[H:10]"
C        2.57212590      -0.90860728      -0.32936714
C        1.28278489      -1.32561409       0.34685986
O        0.31833591      -0.31402618       0.26901808
C       -1.57182997       0.46665735       0.28886269
C       -2.04280091       1.84879208       0.63270850
C       -1.30438137       0.21433061      -1.08331395
O       -1.00917823      -1.01051574      -1.29343662
H        2.98051101      -0.01237332       0.13961433
H        3.31551032      -1.70596409      -0.27679761
H        2.40388090      -0.69890762      -1.38666823
H        0.91524547      -2.26441336      -0.08353750
H        1.43454336      -1.50865059       1.41734342
H       -2.11276478      -0.32580112       0.80997884
H       -3.10221191       1.97418479       0.39718351
H       -1.91762399       2.02854310       1.70192452
H       -1.48204554       2.61298465       0.09234980
H       -0.68010106       0.92938083      -1.64272251
17
Frame=15 idx=010090 GeodesicLength=0.8560180100145848 rxn_smarts="[C:1]([C:2]([O:3][C@@:4]([C:5]([H:14])([H:15])[H:16])([C:6](=[O:7])[H:17])[H:13])([H:11])[H:12])([H:8])([H:9])[H:10]>>[C:1]([C:2]([O:3][O:7]/[C:6](=[C:4](/[C:5]([H:14])([H:15])[H:16])[H:13])[H:17])([H:11])[H:12])([H:8])([H:9])[H:10]"
C        2.56092686      -0.89417283      -0.33318290
C        1.27507830      -1.32115301       0.34252511
O        0.31487345      -0.30154330       0.29015362
C       -1.55836508       0.45831563       0.30330451
C       -2.03262419       1.84655952       0.62628690
C       -1.29836745       0.19895276      -1.07141402
O       -1.01618377      -1.03302379      -1.26885509
H        2.97801520      -0.01230636       0.15486996
H        3.29972030      -1.69695640      -0.30688870
H        2.38732698      -0.65811589      -1.38400491
H        0.90320939      -2.24958141      -0.10525508
H        1.43131664      -1.52497834       1.40800821
H       -2.12060404      -0.32188386       0.82197092
H       -3.08218323       1.97911399       0.35408541
H       -1.94101634       2.03152841       1.69784641
H       -1.44858721       2.60336574       0.10015907
H       -0.65253581       0.89587914      -1.62960942
17
Frame=16 idx=010090 GeodesicLength=0.9186067865630687 rxn_smarts="[C:1]([C:2]([O:3][C@@:4]([C:5]([H:14])([H:15])[H:16])([C:6](=[O:7])[H:17])[H:13])([H:11])[H:12])([H:8])([H:9])[H:10]>>[C:1]([C:2]([O:3][O:7]/[C:6](=[C:4](/[C:5]([H:14])([H:15])[H:16])[H:13])[H:17])([H:11])[H:12])([H:8])([H:9])[H:10]"
C        2.54886380      -0.87930398      -0.33731883
C        1.26724195      -1.31684836       0.33871787
O        0.31076984      -0.29038782       0.31229206
C       -1.54564740       0.44966113       0.31743375
C       -2.02199587       1.84405136       0.61975634
C       -1.29122306       0.18381926      -1.05951722
O       -1.02272772      -1.05508833      -1.24452229
H        2.97459303      -0.01194167       0.16881418
H        3.28331284      -1.68637293      -0.33775675
H        2.36913119      -0.61741406      -1.38092501
H        0.89133924      -2.23504490      -0.12548273
H        1.42878163      -1.54081054       1.39876504
H       -2.12948397      -0.31794872       0.83263200
H       -3.06028377       1.98400195       0.31104362
H       -1.96410752       2.03417429       1.69259615
H       -1.41479688       2.59323766       0.10894019
H       -0.62376733       0.86221568      -1.61546839
