18
Frame=0 idx=011572 GeodesicLength=0.0 rxn_smarts="[C:1]([C:2]([C@@:3]([C:4]([H:14])([H:15])[H:16])([N:5]([C:6](=[O:7])[H:18])[H:17])[H:13])([H:11])[H:12])([H:8])([H:9])[H:10]>>[C-:6]#[O+:7].[C:1]([C:2](/[C:3](=[N:5]\[H:17])[H:13])([H:11])[H:12])([H:8])([H:9])[H:10].[C:4]([H:14])([H:15])([H:16])[H:18]"
C       -2.12522748      -0.36422851      -1.30967987
C       -1.24316573       0.06526540      -0.13494324
C        0.21236772      -0.09446755      -0.42751351
C        1.10056765       1.36451362       1.11693747
N        0.85505746      -1.24158574      -0.21976177
C        2.23547893      -1.04889167       0.53251193
O        3.10565050      -1.82397418       0.46514510
H       -1.88298069       0.20631729      -2.20833257
H       -1.98888007      -1.42210299      -1.54012074
H       -3.17884313      -0.19754526      -1.08077775
H       -1.43896035       1.11497774       0.10135076
H       -1.49613696      -0.51297971       0.75950564
H        0.63151434       0.53826953      -1.20287574
H        0.33201590       1.17015940       1.86658245
H        1.96685317       1.79296388       1.63250084
H        0.75046641       2.12048984       0.41639128
H        0.32351899      -1.90796776       0.33508263
H        1.84070333       0.24078662       0.89799708
18
Frame=1 idx=011572 GeodesicLength=0.10224090607773738 rxn_smarts="[C:1]([C:2]([C@@:3]([C:4]([H:14])([H:15])[H:16])([N:5]([C:6](=[O:7])[H:18])[H:17])[H:13])([H:11])[H:12])([H:8])([H:9])[H:10]>>[C-:6]#[O+:7].[C:1]([C:2](/[C:3](=[N:5]\[H:17])[H:13])([H:11])[H:12])([H:8])([H:9])[H:10].[C:4]([H:14])([H:15])([H:16])[H:18]"
C       -2.12393950      -0.36310805      -1.31777434
C       -1.25712311       0.06072138      -0.13007965
C        0.20262918      -0.09989813      -0.40314265
C        1.10087708       1.36982142       1.11840102
N        0.83759007      -1.25308118      -0.19496004
C        2.25910486      -1.05956310       0.51509989
O        3.13717611      -1.81785618       0.38834157
H       -1.86743538       0.20908124      -2.21146144
H       -1.98730087      -1.42084278      -1.54883738
H       -3.18034699      -0.19466763      -1.10361231
H       -1.45462772       1.11023069       0.10578523
H       -1.52381298      -0.51837784       0.75983567
H        0.62652783       0.51688297      -1.18944598
H        0.31145855       1.21352403       1.85559620
H        1.94871303       1.79501723       1.66682746
H        0.78794557       2.12430674       0.39873847
H        0.30948986      -1.90943855       0.37446514
H        1.87307441       0.23724775       0.91622315
18
Frame=2 idx=011572 GeodesicLength=0.20416668405500704 rxn_smarts="[C:1]([C:2]([C@@:3]([C:4]([H:14])([H:15])[H:16])([N:5]([C:6](=[O:7])[H:18])[H:17])[H:13])([H:11])[H:12])([H:8])([H:9])[H:10]>>[C-:6]#[O+:7].[C:1]([C:2](/[C:3](=[N:5]\[H:17])[H:13])([H:11])[H:12])([H:8])([H:9])[H:10].[C:4]([H:14])([H:15])([H:16])[H:18]"
C       -2.12205591      -0.36246118      -1.32555831
C       -1.27094790       0.05606453      -0.12506880
C        0.19289068      -0.10483878      -0.37845275
C        1.10107908       1.37479752       1.12056453
N        0.82051729      -1.26389261      -0.16995344
C        2.28198717      -1.07011933       0.49679369
O        3.16458102      -1.81035217       0.31027350
H       -1.85153495       0.21144811      -2.21404494
H       -1.98462921      -1.41998934      -1.55724812
H       -3.18112551      -0.19267499      -1.12624823
H       -1.47060034       1.10528980       0.11033589
H       -1.55104969      -0.52401015       0.76009461
H        0.62142335       0.49615596      -1.17516506
H        0.29046846       1.25951047       1.84263746
H        1.92986888       1.79625987       1.70056958
H        0.82786428       2.12647057       0.38182369
H        0.29569021      -1.91066082       0.41288350
H        1.90557309       0.23300254       0.93576322
18
Frame=3 idx=011572 GeodesicLength=0.3058196632948423 rxn_smarts="[C:1]([C:2]([C@@:3]([C:4]([H:14])([H:15])[H:16])([N:5]([C:6](=[O:7])[H:18])[H:17])[H:13])([H:11])[H:12])([H:8])([H:9])[H:10]>>[C-:6]#[O+:7].[C:1]([C:2](/[C:3](=[N:5]\[H:17])[H:13])([H:11])[H:12])([H:8])([H:9])[H:10].[C:4]([H:14])([H:15])([H:16])[H:18]"
C       -2.11962981      -0.36227343      -1.33300501
C       -1.28464531       0.05127712      -0.11991144
C        0.18313406      -0.10928942      -0.35350710
C        1.10112884       1.37945250       1.12340750
N        0.80386630      -1.27401437      -0.14486081
C        2.30408027      -1.08050592       0.47770375
O        3.18788184      -1.80135705       0.23149324
H       -1.83537166       0.21346242      -2.21605558
H       -1.98092357      -1.41952428      -1.56534472
H       -3.18122495      -0.19156086      -1.14862166
H       -1.48690254       1.10012411       0.11503287
H       -1.57780704      -0.52992329       0.76028669
H        0.61616680       0.47615268      -1.16008936
H        0.26933072       1.30807603       1.82735214
H        1.91025804       1.79668132       1.73387340
H        0.87023895       2.12683544       0.36586586
H        0.28203437      -1.91177988       0.45006028
H        1.93838468       0.22816687       0.95631993
18
Frame=4 idx=011572 GeodesicLength=0.40722928705512396 rxn_smarts="[C:1]([C:2]([C@@:3]([C:4]([H:14])([H:15])[H:16])([N:5]([C:6](=[O:7])[H:18])[H:17])[H:13])([H:11])[H:12])([H:8])([H:9])[H:10]>>[C-:6]#[O+:7].[C:1]([C:2](/[C:3](=[N:5]\[H:17])[H:13])([H:11])[H:12])([H:8])([H:9])[H:10].[C:4]([H:14])([H:15])([H:16])[H:18]"
C       -2.11671581      -0.36251924      -1.34009185
C       -1.29822234       0.04634555      -0.11460953
C        0.17334101      -0.11325280      -0.32836858
C        1.10096374       1.38381848       1.12688675
N        0.78765830      -1.28344039      -0.11977865
C        2.32537727      -1.09065327       0.45791413
O        3.20714383      -1.79085535       0.15259631
H       -1.81903275       0.21517603      -2.21747111
H       -1.97625117      -1.41941735      -1.57312169
H       -3.18069325      -0.19129875      -1.17067665
H       -1.50355790       1.09470366       0.11991119
H       -1.60405630      -0.53615611       0.76041510
H        0.61072769       0.45692817      -1.14428048
H        0.24839034       1.35908654       1.80940032
H        1.88977506       1.79625934       1.76686884
H        0.91499675       2.12528650       0.35111929
H        0.26843332      -1.91292115       0.48577455
H        1.97172222       0.22291014       0.97751206
18
Frame=5 idx=011572 GeodesicLength=0.5084297120800201 rxn_smarts="[C:1]([C:2]([C@@:3]([C:4]([H:14])([H:15])[H:16])([N:5]([C:6](=[O:7])[H:18])[H:17])[H:13])([H:11])[H:12])([H:8])([H:9])[H:10]>>[C-:6]#[O+:7].[C:1]([C:2](/[C:3](=[N:5]\[H:17])[H:13])([H:11])[H:12])([H:8])([H:9])[H:10].[C:4]([H:14])([H:15])([H:16])[H:18]"
C       -2.11335853      -0.36316016      -1.34679879
C       -1.31168652       0.04126464      -0.10916006
C        0.16349461      -0.11677061      -0.30307134
C        1.10050999       1.38793414       1.13094250
N        0.77188210      -1.29221774      -0.09473814
C        2.34585982      -1.10055203       0.43756202
O        3.22258291      -1.77862483       0.07385136
H       -1.80256903       0.21664198      -2.21827712
H       -1.97068836      -1.41963275      -1.58056290
H       -3.17956916      -0.19182661      -1.19236915
H       -1.52056590       1.08902016       0.12498574
H       -1.62980437      -0.54271811       0.76049711
H        0.60511110       0.43846130      -1.12778764
H        0.22796474       1.41248163       1.78838699
H        1.86825611       1.79493433       1.79969732
H        0.96214702       2.12168619       0.33778129
H        0.25475942      -1.91423558       0.51991015
H        2.00567403       0.21731405       0.99915067
18
Frame=6 idx=011572 GeodesicLength=0.6094330849508405 rxn_smarts="[C:1]([C:2]([C@@:3]([C:4]([H:14])([H:15])[H:16])([N:5]([C:6](=[O:7])[H:18])[H:17])[H:13])([H:11])[H:12])([H:8])([H:9])[H:10]>>[C-:6]#[O+:7].[C:1]([C:2](/[C:3](=[N:5]\[H:17])[H:13])([H:11])[H:12])([H:8])([H:9])[H:10].[C:4]([H:14])([H:15])([H:16])[H:18]"
C       -2.10961470      -0.36414454      -1.35310794
C       -1.32503995       0.03602167      -0.10356104
C        0.15358338      -0.11984836      -0.27768479
C        1.09969041       1.39189235       1.13545406
N        0.75656373      -1.30033555      -0.06980910
C        2.36559193      -1.11009363       0.41665415
O        3.23432740      -1.76485908      -0.00406688
H       -1.78607591       0.21795390      -2.21844744
H       -1.96430405      -1.42010696      -1.58769201
H       -3.17790393      -0.19309514      -1.21364085
H       -1.53794229       1.08303553       0.13032694
H       -1.65502267      -0.54965781       0.76053031
H        0.59928935       0.42079148      -1.11069017
H        0.20851850       1.46795677       1.76402376
H        1.84551579       1.79270545       1.83240944
H        1.01143161       2.11600961       0.32612477
H        0.24094943      -1.91581065       0.55232030
H        2.04044198       0.21158496       1.02085649
18
Frame=7 idx=011572 GeodesicLength=0.7102620865000474 rxn_smarts="[C:1]([C:2]([C@@:3]([C:4]([H:14])([H:15])[H:16])([N:5]([C:6](=[O:7])[H:18])[H:17])[H:13])([H:11])[H:12])([H:8])([H:9])[H:10]>>[C-:6]#[O+:7].[C:1]([C:2](/[C:3](=[N:5]\[H:17])[H:13])([H:11])[H:12])([H:8])([H:9])[H:10].[C:4]([H:14])([H:15])([H:16])[H:18]"
C       -2.10553023      -0.36540693      -1.35899846
C       -1.33827901       0.03061084      -0.09780299
C        0.14360153      -0.12253359      -0.25225230
C        1.09843587       1.39579264       1.14026521
N        0.74170177      -1.30783808      -0.04500231
C        2.38460831      -1.11923378       0.39527556
O        3.24264413      -1.74949887      -0.08085150
H       -1.76961432       0.21920645      -2.21795752
H       -1.95717840      -1.42076927      -1.59451879
H       -3.17573743      -0.19501606      -1.23443656
H       -1.55566698       1.07673166       0.13599031
H       -1.67970725      -0.55699780       0.76052624
H        0.59327305       0.40387183      -1.09305821
H        0.19048276       1.52527711       1.73598112
H        1.82130918       1.78956491       1.86503944
H        1.06268389       2.10821490       0.31632997
H        0.22690207      -1.91776816       0.58293067
H        2.07607105       0.20579221       1.04254011
18
Frame=8 idx=011572 GeodesicLength=0.8109360367844749 rxn_smarts="[C:1]([C:2]([C@@:3]([C:4]([H:14])([H:15])[H:16])([N:5]([C:6](=[O:7])[H:18])[H:17])[H:13])([H:11])[H:12])([H:8])([H:9])[H:10]>>[C-:6]#[O+:7].[C:1]([C:2](/[C:3](=[N:5]\[H:17])[H:13])([H:11])[H:12])([H:8])([H:9])[H:10].[C:4]([H:14])([H:15])([H:16])[H:18]"
C       -2.10115078      -0.36686116      -1.36445163
C       -1.35139343       0.02502406      -0.09187274
C        0.13355113      -0.12488335      -0.22682144
C        1.09669387       1.39976278       1.14515960
N        0.72730369      -1.31477307      -0.02030978
C        2.40296553      -1.12791837       0.37351232
O        3.24780861      -1.73253905      -0.15618022
H       -1.75324347       0.22052049      -2.21677900
H       -1.94939985      -1.42152497      -1.60107048
H       -3.17310932      -0.19747014      -1.25470144
H       -1.57370399       1.07008384       0.14205673
H       -1.70385055      -0.56477202       0.76049013
H        0.58707885       0.38762802      -1.07497402
H        0.17434537       1.58406287       1.70401482
H        1.79536061       1.78556398       1.89752961
H        1.11561612       2.09831974       0.30854762
H        0.21253276      -1.92021552       0.61168803
H        2.11259485       0.19999187       1.06416190
18
Frame=9 idx=011572 GeodesicLength=0.9114620129602993 rxn_smarts="[C:1]([C:2]([C@@:3]([C:4]([H:14])([H:15])[H:16])([N:5]([C:6](=[O:7])[H:18])[H:17])[H:13])([H:11])[H:12])([H:8])([H:9])[H:10]>>[C-:6]#[O+:7].[C:1]([C:2](/[C:3](=[N:5]\[H:17])[H:13])([H:11])[H:12])([H:8])([H:9])[H:10].[C:4]([H:14])([H:15])([H:16])[H:18]"
C       -2.09651990      -0.36840363      -1.36944489
C       -1.36436307       0.01925534      -0.08575139
C        0.12344401      -0.12697311      -0.20143937
C        1.09443993       1.40394115       1.14986644
N        0.71337600      -1.32121186       0.00428919
C        2.42071646      -1.13611431       0.35148589
O        3.25012795      -1.71390866      -0.22979678
H       -1.73702140       0.22203913      -2.21487654
H       -1.94106299      -1.42226183      -1.60738275
H       -3.17005711      -0.20031359      -1.27436863
H       -1.59198900       1.06307349       0.14862040
H       -1.72744104      -0.57301397       0.76042931
H        0.58073713       0.37194165      -1.05652883
H        0.16059559       1.64385784       1.66795877
H        1.76737317       1.78080429       1.92973015
H        1.16990325       2.08638646       0.30286234
H        0.19775680      -1.92328649       0.63853808
H        2.14998423       0.19418811       1.08580861
18
Frame=10 idx=011572 GeodesicLength=1.0118679876438956 rxn_smarts="[C:1]([C:2]([C@@:3]([C:4]([H:14])([H:15])[H:16])([N:5]([C:6](=[O:7])[H:18])[H:17])[H:13])([H:11])[H:12])([H:8])([H:9])[H:10]>>[C-:6]#[O+:7].[C:1]([C:2](/[C:3](=[N:5]\[H:17])[H:13])([H:11])[H:12])([H:8])([H:9])[H:10].[C:4]([H:14])([H:15])([H:16])[H:18]"
C       -2.09167861      -0.36991324      -1.37395834
C       -1.37716301       0.01329653      -0.07941787
C        0.11329970      -0.12887948      -0.17615548
C        1.09167616       1.40847485       1.15408307
N        0.69993103      -1.32721919       0.02883226
C        2.43794271      -1.14377486       0.32929118
O        3.24991244      -1.69365716      -0.30139383
H       -1.72100257       0.22393065      -2.21220945
H       -1.93226138      -1.42284441      -1.61350988
H       -3.16661674      -0.20338055      -1.29337057
H       -1.61044443       1.05567557       0.15579491
H       -1.75046621      -0.58176926       0.76034061
H        0.57428075       0.35667865      -1.03782199
H        0.14968820       1.70404413       1.62779136
H        1.73704309       1.77546575       1.96138853
H        1.22509769       2.07255460       0.29932043
H        0.18249845      -1.92707517       0.66344842
H        2.18826273       0.18839259       1.10754664
18
Frame=11 idx=011572 GeodesicLength=1.1121751451301432 rxn_smarts="[C:1]([C:2]([C@@:3]([C:4]([H:14])([H:15])[H:16])([N:5]([C:6](=[O:7])[H:18])[H:17])[H:13])([H:11])[H:12])([H:8])([H:9])[H:10]>>[C-:6]#[O+:7].[C:1]([C:2](/[C:3](=[N:5]\[H:17])[H:13])([H:11])[H:12])([H:8])([H:9])[H:10].[C:4]([H:14])([H:15])([H:16])[H:18]"
C       -2.08666086      -0.37126934      -1.37797438
C       -1.38976322       0.00715195      -0.07285314
C        0.10314468      -0.13068394      -0.15100888
C        1.08843276       1.41349195       1.15749993
N        0.68697312      -1.33287324       0.05337740
C        2.45472048      -1.15088381       0.30704074
O        3.24747033      -1.67179654      -0.37075454
H       -1.70522931       0.22634780      -2.20874573
H       -1.92308485      -1.42314193      -1.61949602
H       -3.16281823      -0.20649728      -1.31164767
H       -1.62897128       1.04788702       0.16367233
H       -1.77291501      -0.59105647       0.76022406
H        0.56775245       0.34167776      -1.01894652
H        0.14199112       1.76396414       1.58363304
H        1.70408711       1.76975500       1.99217740
H        1.28073711       2.05701770       0.29791858
H        0.16668440      -1.93168432       0.68640127
H        2.22744921       0.18259353       1.12948212
18
Frame=12 idx=011572 GeodesicLength=1.2124464911621151 rxn_smarts="[C:1]([C:2]([C@@:3]([C:4]([H:14])([H:15])[H:16])([N:5]([C:6](=[O:7])[H:18])[H:17])[H:13])([H:11])[H:12])([H:8])([H:9])[H:10]>>[C-:6]#[O+:7].[C:1]([C:2](/[C:3](=[N:5]\[H:17])[H:13])([H:11])[H:12])([H:8])([H:9])[H:10].[C:4]([H:14])([H:15])([H:16])[H:18]"
C       -2.08149196      -0.37237038      -1.38148013
C       -1.40213886       0.00084233      -0.06604339
C        0.09300845      -0.13246300      -0.12601908
C        1.08476892       1.41909312       1.15984797
N        0.67449395      -1.33825383       0.07800923
C        2.47113502      -1.15745778       0.28482881
O        3.24308328      -1.64829843      -0.43779173
H       -1.68971310       0.22939230      -2.20447016
H       -1.91361884      -1.42305303      -1.62535927
H       -3.15868762      -0.20949548      -1.32916261
H       -1.64746288       1.03973586       0.17230258
H       -1.79479749      -0.60085257       0.76008305
H        0.56120753       0.32676636      -0.99997462
H        0.13774710       1.82295970       1.53572639
H        1.66824879       1.76391048       2.02173495
H        1.33639296       2.03998994       0.29863161
H        0.15023032      -1.93718641       0.70740270
H        2.26759442       0.17674082       1.15173369
18
Frame=13 idx=011572 GeodesicLength=1.3126498716237263 rxn_smarts="[C:1]([C:2]([C@@:3]([C:4]([H:14])([H:15])[H:16])([N:5]([C:6](=[O:7])[H:18])[H:17])[H:13])([H:11])[H:12])([H:8])([H:9])[H:10]>>[C-:6]#[O+:7].[C:1]([C:2](/[C:3](=[N:5]\[H:17])[H:13])([H:11])[H:12])([H:8])([H:9])[H:10].[C:4]([H:14])([H:15])([H:16])[H:18]"
C       -2.07614835      -0.37312042      -1.38449059
C       -1.41426102      -0.00559865      -0.05899202
C        0.08291587      -0.13425355      -0.10118331
C        1.08073465       1.42536017       1.16088480
N        0.66248011      -1.34338837       0.10287720
C        2.48726003      -1.16347284       0.26265037
O        3.23688669      -1.62351072      -0.50234554
H       -1.67441219       0.23315462      -2.19939146
H       -1.90387060      -1.42247172      -1.63112878
H       -3.15419666      -0.21223239      -1.34594328
H       -1.66582094       1.03125569       0.18169541
H       -1.81612459      -0.61111781       0.75989689
H        0.55468312       0.31180665      -0.98095333
H        0.13705506       1.88021764       1.48468532
H        1.62936858       1.75810015       2.04963086
H        1.39140503       2.02185409       0.30141730
H        0.13312648      -1.94354024       0.72659694
H        2.30891873       0.17095771       1.17409322
18
Frame=14 idx=011572 GeodesicLength=1.4128968197070628 rxn_smarts="[C:1]([C:2]([C@@:3]([C:4]([H:14])([H:15])[H:16])([N:5]([C:6](=[O:7])[H:18])[H:17])[H:13])([H:11])[H:12])([H:8])([H:9])[H:10]>>[C-:6]#[O+:7].[C:1]([C:2](/[C:3](=[N:5]\[H:17])[H:13])([H:11])[H:12])([H:8])([H:9])[H:10].[C:4]([H:14])([H:15])([H:16])[H:18]"
C       -2.07065555      -0.37347893      -1.38698687
C       -1.42611322      -0.01211832      -0.05169485
C        0.07289899      -0.13609931      -0.07649600
C        1.07642903       1.43231084       1.16047725
N        0.65090432      -1.34834651       0.12803809
C        2.50316372      -1.16900424       0.24055065
O        3.22915830      -1.59733743      -0.56447175
H       -1.65931934       0.23761330      -2.19352286
H       -1.89392965      -1.42138047      -1.63674351
H       -3.14937651      -0.21458939      -1.36196054
H       -1.68394452       1.02253462       0.19180421
H       -1.83691497      -0.62174455       0.75969462
H        0.54823714       0.29666826      -0.96191205
H        0.13985665       1.93528072       1.43088344
H        1.58730342       1.75259125       2.07548741
H        1.44553601       2.00282725       0.30624689
H        0.11525896      -1.95083657       0.74387669
H        2.35150720       0.16510949       1.19672921
18
Frame=15 idx=011572 GeodesicLength=1.5132030234852727 rxn_smarts="[C:1]([C:2]([C@@:3]([C:4]([H:14])([H:15])[H:16])([N:5]([C:6](=[O:7])[H:18])[H:17])[H:13])([H:11])[H:12])([H:8])([H:9])[H:10]>>[C-:6]#[O+:7].[C:1]([C:2](/[C:3](=[N:5]\[H:17])[H:13])([H:11])[H:12])([H:8])([H:9])[H:10].[C:4]([H:14])([H:15])([H:16])[H:18]"
C       -2.06498333      -0.37342412      -1.38897760
C       -1.43768165      -0.01865313      -0.04416360
C        0.06297659      -0.13799696      -0.05191827
C        1.07192369       1.43994325       1.15855421
N        0.63973018      -1.35313561       0.15362004
C        2.51888967      -1.17407885       0.21846138
O        3.22000219      -1.57004627      -0.62418925
H       -1.64436288       0.24272393      -2.18689913
H       -1.88379213      -1.41977125      -1.64214843
H       -3.14419682      -0.21649591      -1.37725957
H       -1.70176136       1.01366342       0.20253759
H       -1.85719779      -0.63260932       0.75948297
H        0.54190407       0.28127482      -0.94283687
H        0.14596925       1.98763726       1.37496234
H        1.54199818       1.74754679       2.09892893
H        1.49837846       1.98324149       0.31311247
H        0.09658708      -1.95904491       0.75926093
H        2.39561662       0.15922536       1.21947187
18
Frame=16 idx=011572 GeodesicLength=1.6136028641484501 rxn_smarts="[C:1]([C:2]([C@@:3]([C:4]([H:14])([H:15])[H:16])([N:5]([C:6](=[O:7])[H:18])[H:17])[H:13])([H:11])[H:12])([H:8])([H:9])[H:10]>>[C-:6]#[O+:7].[C:1]([C:2](/[C:3](=[N:5]\[H:17])[H:13])([H:11])[H:12])([H:8])([H:9])[H:10].[C:4]([H:14])([H:15])([H:16])[H:18]"
C       -2.05910138      -0.37297868      -1.39046358
C       -1.44896191      -0.02512677      -0.03641000
C        0.05315881      -0.13992619      -0.02739070
C        1.06729136       1.44821069       1.15513993
N        0.62890584      -1.35775415       0.17973806
C        2.53445259      -1.17875252       0.19630177
O        3.20949464      -1.54173462      -0.68163990
H       -1.62945999       0.24836363      -2.17956992
H       -1.87345576      -1.41769314      -1.64723410
H       -3.13862717      -0.21792681      -1.39188884
H       -1.71921569       1.00475790       0.21375378
H       -1.87701053      -0.64354643       0.75929386
H        0.53571340       0.26558365      -0.92368034
H        0.15513079       2.03698489       1.31745913
H        1.49344356       1.74314137       2.11963072
H        1.54971848       1.96332532       0.32205020
H        0.07704522      -1.96816053       0.77267094
H        2.44147775       0.15323239       1.24223900
