16
Frame=0 idx=003010 GeodesicLength=0.0 rxn_smarts="[C:1]([C@@:2]1([H:10])[C:3]([H:11])([H:12])[C:4]([H:13])([H:14])[C@:5]1([O:6][H:16])[H:15])([H:7])([H:8])[H:9]>>[C:1]([C@@:2]1([H:10])[C:3]([H:11])=[C:4]([H:14])[C@:5]1([O:6][H:16])[H:15])([H:7])([H:8])[H:9].[H:12][H:13]"
C        1.50690456      -0.93131639      -0.18757046
C        0.48217299      -0.25737361       0.70295705
C        0.17318405       1.21300906       0.45371908
C       -0.88123089       0.90464566      -0.44760065
C       -1.03329979      -0.48447799       0.12094066
O       -1.24355354      -1.52177454      -0.78626517
H        1.40502391      -2.01727581      -0.14350545
H        1.38497502      -0.63171973      -1.22920424
H        2.51761427      -0.67043596       0.13049983
H        0.62577894      -0.55312035       1.74722863
H        0.00268300       1.84208102       1.31662083
H        0.11826620       2.50707636      -0.29898191
H       -0.94377566       2.43551625      -0.49466860
H       -0.79535658       0.99285682      -1.52272121
H       -1.71641050      -0.54175392       0.97248816
H       -1.60297598      -2.28593685      -0.33393659
16
Frame=1 idx=003010 GeodesicLength=0.07542674307150307 rxn_smarts="[C:1]([C@@:2]1([H:10])[C:3]([H:11])([H:12])[C:4]([H:13])([H:14])[C@:5]1([O:6][H:16])[H:15])([H:7])([H:8])[H:9]>>[C:1]([C@@:2]1([H:10])[C:3]([H:11])=[C:4]([H:14])[C@:5]1([O:6][H:16])[H:15])([H:7])([H:8])[H:9].[H:12][H:13]"
C        1.50924484      -0.94048120      -0.18429095
C        0.48234735      -0.26137604       0.69954158
C        0.18099156       1.21177658       0.44827503
C       -0.87070620       0.90180900      -0.45773261
C       -1.02992380      -0.48191014       0.12032309
O       -1.24787067      -1.51752725      -0.78795874
H        1.40720271      -2.02623830      -0.13367900
H        1.38989823      -0.64914031      -1.22852730
H        2.51904044      -0.67651012       0.13425280
H        0.62174496      -0.55613359       1.74471651
H        0.03792061       1.83464132       1.32126811
H        0.08547030       2.54248204      -0.29188423
H       -0.98548072       2.43683264      -0.48822967
H       -0.78218530       0.99687305      -1.53219156
H       -1.71794542      -0.53171219       0.96861256
H       -1.59974889      -2.28338549      -0.33249563
16
Frame=2 idx=003010 GeodesicLength=0.15101521335786128 rxn_smarts="[C:1]([C@@:2]1([H:10])[C:3]([H:11])([H:12])[C:4]([H:13])([H:14])[C@:5]1([O:6][H:16])[H:15])([H:7])([H:8])[H:9]>>[C:1]([C@@:2]1([H:10])[C:3]([H:11])=[C:4]([H:14])[C@:5]1([O:6][H:16])[H:15])([H:7])([H:8])[H:9].[H:12][H:13]"
C        1.51161854      -0.95000119      -0.18081596
C        0.48268891      -0.26536754       0.69611470
C        0.18936633       1.21056593       0.44263239
C       -0.85960495       0.89917023      -0.46810416
C       -1.02636673      -0.47899763       0.11950374
O       -1.25214990      -1.51288603      -0.78981561
H        1.40914945      -2.03548170      -0.12347041
H        1.39497239      -0.66705339      -1.22763016
H        2.52054595      -0.68312182       0.13817906
H        0.61771364      -0.55897605       1.74224359
H        0.07511171       1.82769280       1.32464125
H        0.04997759       2.57806210      -0.28316418
H       -1.02867690       2.43642501      -0.48158935
H       -0.76826626       1.00137471      -1.54180674
H       -1.71929065      -0.52109609       0.96445936
H       -1.59678910      -2.28030934      -0.33137753
16
Frame=3 idx=003010 GeodesicLength=0.2268477358137858 rxn_smarts="[C:1]([C@@:2]1([H:10])[C:3]([H:11])([H:12])[C:4]([H:13])([H:14])[C@:5]1([O:6][H:16])[H:15])([H:7])([H:8])[H:9]>>[C:1]([C@@:2]1([H:10])[C:3]([H:11])=[C:4]([H:14])[C@:5]1([O:6][H:16])[H:15])([H:7])([H:8])[H:9].[H:12][H:13]"
C        1.51401306      -0.95988145      -0.17712670
C        0.48319654      -0.26933643       0.69268660
C        0.19834152       1.20938140       0.43681198
C       -0.84790554       0.89678307      -0.47869609
C       -1.02262024      -0.47569452       0.11846924
O       -1.25639052      -1.50778771      -0.79186238
H        1.41082713      -2.04500535      -0.11286849
H        1.40019313      -0.68545381      -1.22648739
H        2.52212320      -0.69029978       0.14230510
H        0.61366819      -0.56162884       1.73981700
H        0.11443150       1.82126513       1.32661606
H        0.01159623       2.61371242      -0.27268268
H       -1.07335665       2.43405245      -0.47484174
H       -0.75358697       1.00641370      -1.55153848
H       -1.72042660      -0.50986531       0.96000946
H       -1.59410398      -2.27665498      -0.33061150
16
Frame=4 idx=003010 GeodesicLength=0.3029716533086917 rxn_smarts="[C:1]([C@@:2]1([H:10])[C:3]([H:11])([H:12])[C:4]([H:13])([H:14])[C@:5]1([O:6][H:16])[H:15])([H:7])([H:8])[H:9]>>[C:1]([C@@:2]1([H:10])[C:3]([H:11])=[C:4]([H:14])[C@:5]1([O:6][H:16])[H:15])([H:7])([H:8])[H:9].[H:12][H:13]"
C        1.51641193      -0.97013080      -0.17320910
C        0.48387247      -0.27327212       0.68926912
C        0.20796036       1.20822537       0.43083213
C       -0.83559195       0.89470979      -0.48947518
C       -1.01867192      -0.47195230       0.11721278
O       -1.26059222      -1.50216139      -0.79412352
H        1.41219362      -2.05481137      -0.10186611
H        1.40554997      -0.70433831      -1.22507616
H        2.52376415      -0.69808042       0.14664912
H        0.60960062      -0.56406538       1.73744726
H        0.15601395       1.81540474       1.32702121
H       -0.02986213       2.64929746      -0.26021317
H       -1.11948573       2.42947013      -0.46815332
H       -0.73813959       1.01205460      -1.56134694
H       -1.72132698      -0.49798518       0.95525934
H       -1.59169656      -2.27236480      -0.33022746
16
Frame=5 idx=003010 GeodesicLength=0.3785748195153059 rxn_smarts="[C:1]([C@@:2]1([H:10])[C:3]([H:11])([H:12])[C:4]([H:13])([H:14])[C@:5]1([O:6][H:16])[H:15])([H:7])([H:8])[H:9]>>[C:1]([C@@:2]1([H:10])[C:3]([H:11])=[C:4]([H:14])[C@:5]1([O:6][H:16])[H:15])([H:7])([H:8])[H:9].[H:12][H:13]"
C        1.51877193      -0.98072923      -0.16908218
C        0.48471131      -0.27711985       0.68583807
C        0.21822740       1.20711065       0.42458356
C       -0.82274567       0.89293207      -0.50044012
C       -1.01452039      -0.46778743       0.11574437
O       -1.26475782      -1.49602364      -0.79658382
H        1.41321321      -2.06487177      -0.09043140
H        1.41095463      -0.72373040      -1.22342255
H        2.52543546      -0.70642542       0.15114559
H        0.60555557      -0.56613370       1.73513565
H        0.19966055       1.81023448       1.32556756
H       -0.07449367       2.68431223      -0.24501768
H       -1.16656950       2.42286284      -0.46185812
H       -0.72198600       1.01833039      -1.57122410
H       -1.72195604      -0.48548381       0.95023646
H       -1.58950097      -2.26747742      -0.33019130
16
Frame=6 idx=003010 GeodesicLength=0.45416712772601303 rxn_smarts="[C:1]([C@@:2]1([H:10])[C:3]([H:11])([H:12])[C:4]([H:13])([H:14])[C@:5]1([O:6][H:16])[H:15])([H:7])([H:8])[H:9]>>[C:1]([C@@:2]1([H:10])[C:3]([H:11])=[C:4]([H:14])[C@:5]1([O:6][H:16])[H:15])([H:7])([H:8])[H:9].[H:12][H:13]"
C        1.52108478      -0.99168043      -0.16472022
C        0.48571944      -0.28087600       0.68242662
C        0.22920917       1.20604405       0.41816443
C       -0.80932576       0.89158458      -0.51151515
C       -1.01015131      -0.46310173       0.11405871
O       -1.26889093      -1.48923886      -0.79927889
H        1.41383362      -2.07518351      -0.07858071
H        1.41642251      -0.74358665      -1.22148345
H        2.52713912      -0.71539694       0.15584855
H        0.60150628      -0.56786520       1.73289563
H        0.24565685       1.80570122       1.32216817
H       -0.12254048       2.71869128      -0.22710413
H       -1.21473368       2.41376345      -0.45616788
H       -0.70507400       1.02529859      -1.58108854
H       -1.72229241      -0.47228847       0.94493795
H       -1.58756321      -2.26186536      -0.33056109
16
Frame=7 idx=003010 GeodesicLength=0.5297687968936199 rxn_smarts="[C:1]([C@@:2]1([H:10])[C:3]([H:11])([H:12])[C:4]([H:13])([H:14])[C@:5]1([O:6][H:16])[H:15])([H:7])([H:8])[H:9]>>[C:1]([C@@:2]1([H:10])[C:3]([H:11])=[C:4]([H:14])[C@:5]1([O:6][H:16])[H:15])([H:7])([H:8])[H:9].[H:12][H:13]"
C        1.52332196      -1.00296211      -0.16012694
C        0.48689571      -0.28451619       0.67904793
C        0.24092787       1.20503386       0.41160934
C       -0.79536652       0.89073095      -0.52262575
C       -1.00555990      -0.45785905       0.11217667
O       -1.27299740      -1.48174389      -0.80220829
H        1.41401553      -2.08571797      -0.06632911
H        1.42190668      -0.76386841      -1.21925218
H        2.52885657      -0.72499171       0.16074414
H        0.59747049      -0.56921999       1.73073546
H        0.29398109       1.80176943       1.31669123
H       -0.17413059       2.75212911      -0.20621894
H       -1.26372770       2.40211794      -0.45143245
H       -0.68741626       1.03298066      -1.59086389
H       -1.72230570      -0.45839557       0.93939928
H       -1.58587183      -2.25548707      -0.33134650
16
Frame=8 idx=003010 GeodesicLength=0.6053084031232421 rxn_smarts="[C:1]([C@@:2]1([H:10])[C:3]([H:11])([H:12])[C:4]([H:13])([H:14])[C@:5]1([O:6][H:16])[H:15])([H:7])([H:8])[H:9]>>[C:1]([C@@:2]1([H:10])[C:3]([H:11])=[C:4]([H:14])[C@:5]1([O:6][H:16])[H:15])([H:7])([H:8])[H:9].[H:12][H:13]"
C        1.52545338      -1.01454770      -0.15532242
C        0.48825049      -0.28801008       0.67571280
C        0.25342245       1.20409160       0.40494152
C       -0.78090864       0.89044314      -0.53369031
C       -1.00073821      -0.45201951       0.11013344
O       -1.27708649      -1.47347323      -0.80535198
H        1.41371770      -2.09644293      -0.05370459
H        1.42734619      -0.78453498      -1.21673984
H        2.53057329      -0.73520418       0.16578981
H        0.59349074      -0.57015159       1.72866404
H        0.34448282       1.79841241       1.30902614
H       -0.22935217       2.78422217      -0.18201262
H       -1.31325474       2.38791147      -0.44812102
H       -0.66901815       1.04139447      -1.60047070
H       -1.72196151      -0.44379521       0.93367968
H       -1.58441715      -2.24829585      -0.33253393
16
Frame=9 idx=003010 GeodesicLength=0.6799353586688303 rxn_smarts="[C:1]([C@@:2]1([H:10])[C:3]([H:11])([H:12])[C:4]([H:13])([H:14])[C@:5]1([O:6][H:16])[H:15])([H:7])([H:8])[H:9]>>[C:1]([C@@:2]1([H:10])[C:3]([H:11])=[C:4]([H:14])[C@:5]1([O:6][H:16])[H:15])([H:7])([H:8])[H:9].[H:12][H:13]"
C        1.52743754      -1.02638732      -0.15035086
C        0.48978439      -0.29127628       0.67237672
C        0.26667719       1.20323859       0.39800552
C       -0.76606724       0.89067184      -0.54474141
C       -0.99568916      -0.44560768       0.10795824
O       -1.28116615      -1.46448575      -0.80863528
H        1.41293246      -2.10729379      -0.04067573
H        1.43262607      -0.80560959      -1.21400341
H        2.53226037      -0.74594890       0.17087109
H        0.58965097      -0.57046973       1.72666139
H        0.39666882       1.79569287       1.29896639
H       -0.28819873       2.81414692      -0.15353681
H       -1.36259266       2.37169683      -0.44678559
H       -0.64996184       1.05047494      -1.60994286
H       -1.72122713      -0.42848860       0.92783553
H       -1.58313490      -2.24035434      -0.33400292
16
Frame=10 idx=003010 GeodesicLength=0.754299020025528 rxn_smarts="[C:1]([C@@:2]1([H:10])[C:3]([H:11])([H:12])[C:4]([H:13])([H:14])[C@:5]1([O:6][H:16])[H:15])([H:7])([H:8])[H:9]>>[C:1]([C@@:2]1([H:10])[C:3]([H:11])=[C:4]([H:14])[C@:5]1([O:6][H:16])[H:15])([H:7])([H:8])[H:9].[H:12][H:13]"
C        1.52926335      -1.03846200      -0.14522313
C        0.49152608      -0.29431762       0.66908663
C        0.28078060       1.20249110       0.39095224
C       -0.75081405       0.89157699      -0.55563317
C       -0.99039456      -0.43852673       0.10570295
O       -1.28525405      -1.45462689      -0.81204407
H        1.41160947      -2.11825018      -0.02732003
H        1.43772819      -0.82700075      -1.21102976
H        2.53392372      -0.75727024       0.17598498
H        0.58598231      -0.57025161       1.72474618
H        0.45056763       1.79342292       1.28658318
H       -0.35091372       2.84165661      -0.12099145
H       -1.41168531       2.35325819      -0.44783562
H       -0.63016878       1.06024109      -1.61914340
H       -1.72006850      -0.41241801       0.92193850
H       -1.58208239      -2.23152286      -0.33577401
16
Frame=11 idx=003010 GeodesicLength=0.8283247390136392 rxn_smarts="[C:1]([C@@:2]1([H:10])[C:3]([H:11])([H:12])[C:4]([H:13])([H:14])[C@:5]1([O:6][H:16])[H:15])([H:7])([H:8])[H:9]>>[C:1]([C@@:2]1([H:10])[C:3]([H:11])=[C:4]([H:14])[C@:5]1([O:6][H:16])[H:15])([H:7])([H:8])[H:9].[H:12][H:13]"
C        1.53090755      -1.05073440      -0.13997767
C        0.49350144      -0.29709123       0.66583859
C        0.29577671       1.20187301       0.38377598
C       -0.73517714       0.89320016      -0.56631429
C       -0.98483948      -0.43073714       0.10341813
O       -1.28936603      -1.44385291      -0.81551125
H        1.40972532      -2.12926587      -0.01366938
H        1.44257900      -0.84867711      -1.20785374
H        2.53555633      -0.76914357       0.18105377
H        0.58256005      -0.56944313       1.72291009
H        0.50584645       1.79149810       1.27191150
H       -0.41766894       2.86611570      -0.08408950
H       -1.46005528       2.33291028      -0.45175297
H       -0.60963771       1.07063866      -1.62803339
H       -1.71844208      -0.39553193       0.91606068
H       -1.58126620      -2.22175862      -0.33776655
16
Frame=12 idx=003010 GeodesicLength=0.9019961291466393 rxn_smarts="[C:1]([C@@:2]1([H:10])[C:3]([H:11])([H:12])[C:4]([H:13])([H:14])[C@:5]1([O:6][H:16])[H:15])([H:7])([H:8])[H:9]>>[C:1]([C@@:2]1([H:10])[C:3]([H:11])=[C:4]([H:14])[C@:5]1([O:6][H:16])[H:15])([H:7])([H:8])[H:9].[H:12][H:13]"
C        1.53235487      -1.06315953      -0.13465538
C        0.49573708      -0.29955152       0.66262098
C        0.31169850       1.20141168       0.37645030
C       -0.71918064       0.89556531      -0.57676506
C       -0.97901269      -0.42221135       0.10115132
O       -1.29351629      -1.43214195      -0.81895934
H        1.40727318      -2.14028880       0.00024846
H        1.44710714      -0.87060755      -1.20451546
H        2.53715788      -0.78152773       0.18599558
H        0.57946199      -0.56799710       1.72113822
H        0.56205382       1.78982554       1.25507577
H       -0.48848172       2.88682047      -0.04271377
H       -1.50724778       2.31106310      -0.45885139
H       -0.58839761       1.08160619      -1.63660597
H       -1.71631462      -0.37777250       0.91026631
H       -1.58069314      -2.21103427      -0.33988057
16
Frame=13 idx=003010 GeodesicLength=0.9749129517319148 rxn_smarts="[C:1]([C@@:2]1([H:10])[C:3]([H:11])([H:12])[C:4]([H:13])([H:14])[C@:5]1([O:6][H:16])[H:15])([H:7])([H:8])[H:9]>>[C:1]([C@@:2]1([H:10])[C:3]([H:11])=[C:4]([H:14])[C@:5]1([O:6][H:16])[H:15])([H:7])([H:8])[H:9].[H:12][H:13]"
C        1.53359043      -1.07568761      -0.12929897
C        0.49824485      -0.30163031       0.65938761
C        0.32853971       1.20113796       0.36884305
C       -0.70286294       0.89862013      -0.58706077
C       -0.97291183      -0.41295721       0.09893121
O       -1.29771524      -1.41955298      -0.82229430
H        1.40427045      -2.15125120       0.01445490
H        1.45123362      -0.89281487      -1.20106429
H        2.53872057      -0.79434307       0.19070872
H        0.57676255      -0.56578925       1.71939117
H        0.61861141       1.78842094       1.23620421
H       -0.56337969       2.90277879       0.00342361
H       -1.55256608       2.28847841      -0.46930518
H       -0.56651440       1.09304267      -1.64495522
H       -1.71367323      -0.35907009       0.90459924
H       -1.58035018      -2.19938231      -0.34196498
16
Frame=14 idx=003010 GeodesicLength=1.0479635559269591 rxn_smarts="[C:1]([C@@:2]1([H:10])[C:3]([H:11])([H:12])[C:4]([H:13])([H:14])[C@:5]1([O:6][H:16])[H:15])([H:7])([H:8])[H:9]>>[C:1]([C@@:2]1([H:10])[C:3]([H:11])=[C:4]([H:14])[C@:5]1([O:6][H:16])[H:15])([H:7])([H:8])[H:9].[H:12][H:13]"
C        1.53460936      -1.08827330      -0.12393896
C        0.50104775      -0.30334194       0.65618357
C        0.34633178       1.20106362       0.36112903
C       -0.68621102       0.90245827      -0.59704822
C       -0.96652806      -0.40292117       0.09682858
O       -1.30198080      -1.40597600      -0.82548074
H        1.40070803      -2.16211388       0.02883663
H        1.45492162      -0.91517085      -1.19751104
H        2.54025226      -0.80758220       0.19516624
H        0.57450324      -0.56294834       1.71768256
H        0.67538252       1.78702546       1.21566997
H       -0.64227829       2.91377066       0.05340585
H       -1.59599050       2.26517428      -0.48310157
H       -0.54398517       1.10495476      -1.65294255
H       -1.71049079      -0.33940746       0.89914184
H       -1.58029194      -2.18671191      -0.34402118
16
Frame=15 idx=003010 GeodesicLength=1.1216453014044199 rxn_smarts="[C:1]([C@@:2]1([H:10])[C:3]([H:11])([H:12])[C:4]([H:13])([H:14])[C@:5]1([O:6][H:16])[H:15])([H:7])([H:8])[H:9]>>[C:1]([C@@:2]1([H:10])[C:3]([H:11])=[C:4]([H:14])[C@:5]1([O:6][H:16])[H:15])([H:7])([H:8])[H:9].[H:12][H:13]"
C        1.53540788      -1.10085070      -0.11862045
C        0.50414163      -0.30470650       0.65302884
C        0.36501346       1.20116929       0.35342135
C       -0.66926306       0.90705313      -0.60663814
C       -0.95986773      -0.39214331       0.09490638
O       -1.30630853      -1.39142315      -0.82847620
H        1.39662933      -2.17281578       0.04328960
H        1.45812117      -0.93756267      -1.19388920
H        2.54174595      -0.82116579       0.19931459
H        0.57271584      -0.55957516       1.71600927
H        0.73193212       1.78542679       1.19398123
H       -0.72468927       2.91968470       0.10604904
H       -1.63739224       2.24150095      -0.49983583
H       -0.52092670       1.11731320      -1.66048283
H       -1.70675819      -0.31885181       0.89396665
H       -1.58050168      -2.17305318      -0.34602431
16
Frame=16 idx=003010 GeodesicLength=1.1956565180799898 rxn_smarts="[C:1]([C@@:2]1([H:10])[C:3]([H:11])([H:12])[C:4]([H:13])([H:14])[C@:5]1([O:6][H:16])[H:15])([H:7])([H:8])[H:9]>>[C:1]([C@@:2]1([H:10])[C:3]([H:11])=[C:4]([H:14])[C@:5]1([O:6][H:16])[H:15])([H:7])([H:8])[H:9].[H:12][H:13]"
C        1.53597710      -1.11335989      -0.11338021
C        0.50752475      -0.30571920       0.64994160
C        0.38454758       1.20146333       0.34580561
C       -0.65204377       0.91241325      -0.61575513
C       -0.95294117      -0.38063000       0.09322272
O       -1.31071063      -1.37587807      -0.83123889
H        1.39205731      -2.18330024       0.05773709
H        1.46077817      -0.95989649      -1.19022955
H        2.54319415      -0.83502899       0.20310352
H        0.57143268      -0.55572299       1.71437409
H        0.78800460       1.78352127       1.17148239
H       -0.81041417       2.91999283       0.16044486
H       -1.67651834       2.21782292      -0.51919084
H       -0.49740742       1.13013048      -1.66751818
H       -1.70248219      -0.29741121       0.88914459
H       -1.58099864      -2.15839701      -0.34794369
