13
Frame=0 idx=002462 GeodesicLength=0.0 rxn_smarts="[N:1]#[C:2][C:3]([C:4]1([H:9])[C:5]([H:10])([H:11])[C:6]1([H:12])[H:13])([H:7])[H:8]>>[C:3](=[C:4]([C:5](=[C:6]([H:12])[H:13])[H:10])[H:9])([H:7])[H:8].[N:1]#[C:2][H:11]"
N        2.49224037      -1.31810913       1.11063021
C        1.48969905      -0.89431343       0.69683451
C        1.12453803       0.38715143      -0.52914290
C       -0.03291066       0.90887353       0.05706905
C       -0.94979098      -0.09166177       0.60247651
C       -1.69483553      -0.18656507      -0.55692984
H        1.01196286      -0.37161219      -1.30151244
H        1.95147642       1.05798216      -0.73882575
H       -0.13545864       1.94180767       0.35836295
H       -1.47463405       0.08191780       1.53641359
H        0.22292087      -1.02162538       0.83976413
H       -1.22409120      -0.35889121      -1.51378993
H       -2.78111658      -0.13495447      -0.56135008
13
Frame=1 idx=002462 GeodesicLength=0.08235428260414727 rxn_smarts="[N:1]#[C:2][C:3]([C:4]1([H:9])[C:5]([H:10])([H:11])[C:6]1([H:12])[H:13])([H:7])[H:8]>>[C:3](=[C:4]([C:5](=[C:6]([H:12])[H:13])[H:10])[H:9])([H:7])[H:8].[N:1]#[C:2][H:11]"
N        2.50146615      -1.33836005       1.10946041
C        1.50264300      -0.90553686       0.69855476
C        1.12421369       0.39520958      -0.52982522
C       -0.04163124       0.91065288       0.04901678
C       -0.95263524      -0.09048864       0.60774277
C       -1.69060990      -0.18092649      -0.55819827
H        1.01495166      -0.35837559      -1.30786332
H        1.94470962       1.07439072      -0.73817571
H       -0.13904390       1.94141361       0.36004807
H       -1.48065201       0.09588651       1.53727308
H        0.21611092      -1.03004424       0.84616691
H       -1.22335209      -0.39210020      -1.50904680
H       -2.77617065      -0.12172122      -0.56515346
13
Frame=2 idx=002462 GeodesicLength=0.1647052679441562 rxn_smarts="[N:1]#[C:2][C:3]([C:4]1([H:9])[C:5]([H:10])([H:11])[C:6]1([H:12])[H:13])([H:7])[H:8]>>[C:3](=[C:4]([C:5](=[C:6]([H:12])[H:13])[H:10])[H:9])([H:7])[H:8].[N:1]#[C:2][H:11]"
N        2.51067740      -1.35949029       1.10787784
C        1.51581295      -0.91718100       0.70003895
C        1.12388285       0.40344698      -0.53038235
C       -0.05027074       0.91262563       0.04105054
C       -0.95546557      -0.08893596       0.61303323
C       -1.68601514      -0.17582580      -0.55955348
H        1.01785510      -0.34475503      -1.31419273
H        1.93795933       1.09083910      -0.73724114
H       -0.14297152       1.94133618       0.36092962
H       -1.48678680       0.11017584       1.53789035
H        0.20898644      -1.03829668       0.85315265
H       -1.22283673      -0.42449371      -1.50341866
H       -2.77082757      -0.10944527      -0.56918480
13
Frame=3 idx=002462 GeodesicLength=0.2470546475531482 rxn_smarts="[N:1]#[C:2][C:3]([C:4]1([H:9])[C:5]([H:10])([H:11])[C:6]1([H:12])[H:13])([H:7])[H:8]>>[C:3](=[C:4]([C:5](=[C:6]([H:12])[H:13])[H:10])[H:9])([H:7])[H:8].[N:1]#[C:2][H:11]"
N        2.51986918      -1.38149737       1.10588019
C        1.52922392      -0.92924500       0.70127688
C        1.12354410       0.41186570      -0.53081925
C       -0.05884352       0.91478380       0.03314769
C       -0.95827887      -0.08701326       0.61835096
C       -1.68107498      -0.17126966      -0.56097103
H        1.02068526      -0.33075850      -1.32049292
H        1.93121957       1.10733937      -0.73602565
H       -0.14724703       1.94157940       0.36103828
H       -1.49303329       0.12477635       1.53826666
H        0.20154617      -1.04637666       0.86074488
H       -1.22249563      -0.45609537      -1.49697037
H       -2.76511489      -0.09808880      -0.57342632
13
Frame=4 idx=002462 GeodesicLength=0.3294025663659147 rxn_smarts="[N:1]#[C:2][C:3]([C:4]1([H:9])[C:5]([H:10])([H:11])[C:6]1([H:12])[H:13])([H:7])[H:8]>>[C:3](=[C:4]([C:5](=[C:6]([H:12])[H:13])[H:10])[H:9])([H:7])[H:8].[N:1]#[C:2][H:11]"
N        2.52903423      -1.40437532       1.10346944
C        1.54289051      -0.94172894       0.70225713
C        1.12319594       0.42046766      -0.53114152
C       -0.06736245       0.91711939       0.02528653
C       -0.96107171      -0.08472883       0.62369791
C       -1.67581161      -0.16725943      -0.56242782
H        1.02345411      -0.31639394      -1.32675686
H        1.92448483       1.12390209      -0.73453274
H       -0.15187254       1.94214373       0.36040365
H       -1.49938590       0.13967889       1.53840204
H        0.19378746      -1.05427836       0.86896477
H       -1.22228486      -0.48692521      -1.48976347
H       -2.75905801      -0.08762173      -0.57785906
13
Frame=5 idx=002462 GeodesicLength=0.41175010397079365 rxn_smarts="[N:1]#[C:2][C:3]([C:4]1([H:9])[C:5]([H:10])([H:11])[C:6]1([H:12])[H:13])([H:7])[H:8]>>[C:3](=[C:4]([C:5](=[C:6]([H:12])[H:13])[H:10])[H:9])([H:7])[H:8].[N:1]#[C:2][H:11]"
N        2.53815886      -1.42813743       1.10063471
C        1.55682631      -0.95463069       0.70296767
C        1.12283705       0.42925985      -0.53135272
C       -0.07584036       0.91962834       0.01744632
C       -0.96384130      -0.08208600       0.62907624
C       -1.67024336      -0.16379207      -0.56390234
H        1.02617561      -0.30166231      -1.33297797
H        1.91774981       1.14054309      -0.73276130
H       -0.15685109       1.94303181       0.35905061
H       -1.50584188       0.15487993       1.53829511
H        0.18570596      -1.06199052       0.87783676
H       -1.22215745      -0.51702159      -1.48184616
H       -2.75267817      -0.07802241      -0.58246695
13
Frame=6 idx=002462 GeodesicLength=0.4940976671262049 rxn_smarts="[N:1]#[C:2][C:3]([C:4]1([H:9])[C:5]([H:10])([H:11])[C:6]1([H:12])[H:13])([H:7])[H:8]>>[C:3](=[C:4]([C:5](=[C:6]([H:12])[H:13])[H:10])[H:9])([H:7])[H:8].[N:1]#[C:2][H:11]"
N        2.54722946      -1.45278907       1.09737285
C        1.57104446      -0.96795232       0.70339202
C        1.12246581       0.43824839      -0.53145763
C       -0.08428816       0.92230612       0.00960802
C       -0.96658489      -0.07908733       0.63448694
C       -1.66438702      -0.16085994      -0.56537497
H        1.02886254      -0.28656451      -1.33915165
H        1.91100970       1.15727567      -0.73071073
H       -0.16218268       1.94424319       0.35700378
H       -1.51239868       0.17037433       1.53794355
H        0.17729571      -1.06950230       0.88738354
H       -1.22207104      -0.54641823      -1.47326228
H       -2.74599520      -0.06927399      -0.58723344
13
Frame=7 idx=002462 GeodesicLength=0.5764486779165743 rxn_smarts="[N:1]#[C:2][C:3]([C:4]1([H:9])[C:5]([H:10])([H:11])[C:6]1([H:12])[H:13])([H:7])[H:8]>>[C:3](=[C:4]([C:5](=[C:6]([H:12])[H:13])[H:10])[H:9])([H:7])[H:8].[N:1]#[C:2][H:11]"
N        2.55622264      -1.47834538       1.09367239
C        1.58556183      -0.98168443       0.70352986
C        1.12208116       0.44744071      -0.53146048
C       -0.09271683       0.92514907       0.00175253
C       -0.96929741      -0.07573611       0.63993067
C       -1.65825534      -0.15845585      -0.56682635
H        1.03153016      -0.27110546      -1.34526809
H        1.90425710       1.17411650      -0.72838366
H       -0.16787000       1.94577797       0.35428223
H       -1.51905102       0.18615621       1.53734507
H        0.16855074      -1.07680606       0.89762134
H       -1.22198861      -0.57514450      -1.46405535
H       -2.73902441      -0.06136268      -0.59214016
13
Frame=8 idx=002462 GeodesicLength=0.6587717645802134 rxn_smarts="[N:1]#[C:2][C:3]([C:4]1([H:9])[C:5]([H:10])([H:11])[C:6]1([H:12])[H:13])([H:7])[H:8]>>[C:3](=[C:4]([C:5](=[C:6]([H:12])[H:13])[H:10])[H:9])([H:7])[H:8].[N:1]#[C:2][H:11]"
N        2.56515304      -1.50460571       1.08971947
C        1.60038325      -0.99586749       0.70331142
C        1.12167393       0.45681306      -0.53140005
C       -0.10111817       0.92813217      -0.00612997
C       -0.97197271      -0.07205930       0.64538563
C       -1.65188371      -0.15652317      -0.56824848
H        1.03416329      -0.25532386      -1.35134604
H        1.89749496       1.19102737      -0.72582320
H       -0.17384771       1.94759089       0.35097471
H       -1.52576884       0.20215809       1.53649772
H        0.15945206      -1.08394538       0.90849771
H       -1.22192195      -0.60314115      -1.45429954
H       -2.73180743      -0.05425552      -0.59713938
13
Frame=9 idx=002462 GeodesicLength=0.7410827665711428 rxn_smarts="[N:1]#[C:2][C:3]([C:4]1([H:9])[C:5]([H:10])([H:11])[C:6]1([H:12])[H:13])([H:7])[H:8]>>[C:3](=[C:4]([C:5](=[C:6]([H:12])[H:13])[H:10])[H:9])([H:7])[H:8].[N:1]#[C:2][H:11]"
N        2.57400732      -1.53157021       1.08553256
C        1.61552812      -1.01050176       0.70273016
C        1.12124332       0.46637135      -0.53128548
C       -0.10950007       0.93125293      -0.01405380
C       -0.97460599      -0.06806175       0.65085133
C       -1.64528478      -0.15504541      -0.56962611
H        1.03677507      -0.23922759      -1.35738292
H        1.89071685       1.20802284      -0.72303915
H       -0.18011489       1.94968085       0.34710137
H       -1.53254587       0.21836922       1.53540460
H        0.14998761      -1.09092205       0.92001778
H       -1.22184488      -0.63042612      -1.44404302
H       -2.72436180      -0.04794229      -0.60220733
13
Frame=10 idx=002462 GeodesicLength=0.823375362883258 rxn_smarts="[N:1]#[C:2][C:3]([C:4]1([H:9])[C:5]([H:10])([H:11])[C:6]1([H:12])[H:13])([H:7])[H:8]>>[C:3](=[C:4]([C:5](=[C:6]([H:12])[H:13])[H:10])[H:9])([H:7])[H:8].[N:1]#[C:2][H:11]"
N        2.58277475      -1.55921692       1.08115574
C        1.63100670      -1.02560448       0.70174659
C        1.12078587       0.47612151      -0.53112744
C       -0.11786661       0.93450674      -0.02202991
C       -0.97719199      -0.06374768       0.65632425
C       -1.63846927      -0.15399963      -0.57094619
H        1.03937097      -0.22281410      -1.36338361
H        1.88391718       1.22511296      -0.72003701
H       -0.18666245       1.95203972       0.34268615
H       -1.53937391       0.23477557       1.53406456
H        0.14014148      -1.09773729       0.93218522
H       -1.22173075      -0.65702765      -1.43331657
H       -2.71670197      -0.04240874      -0.60732179
13
Frame=11 idx=002462 GeodesicLength=0.9056937299456955 rxn_smarts="[N:1]#[C:2][C:3]([C:4]1([H:9])[C:5]([H:10])([H:11])[C:6]1([H:12])[H:13])([H:7])[H:8]>>[C:3](=[C:4]([C:5](=[C:6]([H:12])[H:13])[H:10])[H:9])([H:7])[H:8].[N:1]#[C:2][H:11]"
N        2.59142886      -1.58760262       1.07658951
C        1.64684163      -1.04117852       0.70034551
C        1.12030220       0.48608561      -0.53093534
C       -0.12622758       0.93790525      -0.03007085
C       -0.97972855      -0.05911469       0.66181282
C       -1.63143984      -0.15337626      -0.57219869
H        1.04197000      -0.20607489      -1.36935814
H        1.87708941       1.24233629      -0.71682402
H       -0.19350123       1.95468960       0.33773921
H       -1.54625744       0.25138040       1.53249168
H        0.12989931      -1.10439141       0.94502635
H       -1.22154123      -0.68300694      -1.42214648
H       -2.70883553      -0.03765181      -0.61247155
13
Frame=12 idx=002462 GeodesicLength=0.9879470984729355 rxn_smarts="[N:1]#[C:2][C:3]([C:4]1([H:9])[C:5]([H:10])([H:11])[C:6]1([H:12])[H:13])([H:7])[H:8]>>[C:3](=[C:4]([C:5](=[C:6]([H:12])[H:13])[H:10])[H:9])([H:7])[H:8].[N:1]#[C:2][H:11]"
N        2.59992464      -1.61680784       1.07170065
C        1.66306047      -1.05715668       0.69857251
C        1.11979504       0.49626538      -0.53067849
C       -0.13459159       0.94142311      -0.03819351
C       -0.98220740      -0.05415480       0.66730980
C       -1.62419474      -0.15319515      -0.57334711
H        1.04459641      -0.18901482      -1.37523910
H        1.87022235       1.25969508      -0.71336451
H       -0.20065961       1.95759935       0.33220459
H       -1.55319578       0.26819188       1.53064410
H        0.11925109      -1.11081237       0.95857774
H       -1.22123737      -0.70833330      -1.41056063
H       -2.70076352      -0.03369983      -0.61762606
13
Frame=13 idx=002462 GeodesicLength=1.0701438261358818 rxn_smarts="[N:1]#[C:2][C:3]([C:4]1([H:9])[C:5]([H:10])([H:11])[C:6]1([H:12])[H:13])([H:7])[H:8]>>[C:3](=[C:4]([C:5](=[C:6]([H:12])[H:13])[H:10])[H:9])([H:7])[H:8].[N:1]#[C:2][H:11]"
N        2.60820030      -1.64691947       1.06649416
C        1.67966891      -1.07358771       0.69628338
C        1.11926081       0.50670970      -0.53035536
C       -0.14296513       0.94508113      -0.04640240
C       -0.98462556      -0.04883780       0.67281046
C       -1.61671442      -0.15342181      -0.57439493
H        1.04725125      -0.17153853      -1.38105710
H        1.86331156       1.27723985      -0.70961394
H       -0.20814653       1.96077710       0.32610510
H       -1.56020080       0.28524329       1.52849490
H        0.10817839      -1.11696474       0.97287217
H       -1.22074988      -0.73324155      -1.39842031
H       -2.69246889      -0.03053948      -0.62281613
13
Frame=14 idx=002462 GeodesicLength=1.1523839880875286 rxn_smarts="[N:1]#[C:2][C:3]([C:4]1([H:9])[C:5]([H:10])([H:11])[C:6]1([H:12])[H:13])([H:7])[H:8]>>[C:3](=[C:4]([C:5](=[C:6]([H:12])[H:13])[H:10])[H:9])([H:7])[H:8].[N:1]#[C:2][H:11]"
N        2.61619612      -1.67811160       1.06083974
C        1.69670324      -1.09045122       0.69354551
C        1.11870787       0.51745168      -0.52996562
C       -0.15136421       0.94890479      -0.05471521
C       -0.98698600      -0.04315408       0.67835035
C       -1.60898235      -0.15409323      -0.57532354
H        1.04998211      -0.15365228      -1.38681321
H        1.85634745       1.29504243      -0.70558079
H       -0.21601782       1.96429611       0.31938965
H       -1.56730479       0.30256215       1.52608373
H        0.09666652      -1.12282401       0.98801598
H       -1.22000725      -0.75774457      -1.38579652
H       -2.68394088      -0.02822616      -0.62803008
13
Frame=15 idx=002462 GeodesicLength=1.234624857475636 rxn_smarts="[N:1]#[C:2][C:3]([C:4]1([H:9])[C:5]([H:10])([H:11])[C:6]1([H:12])[H:13])([H:7])[H:8]>>[C:3](=[C:4]([C:5](=[C:6]([H:12])[H:13])[H:10])[H:9])([H:7])[H:8].[N:1]#[C:2][H:11]"
N        2.62384515      -1.71043487       1.05469582
C        1.71419156      -1.10773067       0.69032169
C        1.11813509       0.52850888      -0.52950065
C       -0.15979195       0.95288402      -0.06314225
C       -0.98928086      -0.03709238       0.68392133
C       -1.60098673      -0.15520366      -0.57611516
H        1.05280009      -0.13533119      -1.39248675
H        1.84931880       1.31312041      -0.70124216
H       -0.22428324       1.96813609       0.31204483
H       -1.57450849       0.32015199       1.52337739
H        0.08469740      -1.12834450       1.00403649
H       -1.21896561      -0.78188629      -1.37265572
H       -2.67517119      -0.02677782      -0.63325488
13
Frame=16 idx=002462 GeodesicLength=1.3168634066027571 rxn_smarts="[N:1]#[C:2][C:3]([C:4]1([H:9])[C:5]([H:10])([H:11])[C:6]1([H:12])[H:13])([H:7])[H:8]>>[C:3](=[C:4]([C:5](=[C:6]([H:12])[H:13])[H:10])[H:9])([H:7])[H:8].[N:1]#[C:2][H:11]"
N        2.63107358      -1.74395318       1.04802525
C        1.73216846      -1.12541679       0.68658254
C        1.11754270       0.53990422      -0.52895940
C       -0.16825230       0.95701697      -0.07169316
C       -0.99150413      -0.03064354       0.68952393
C       -1.59271188      -0.15675175      -0.57675431
H        1.05572142      -0.11655503      -1.39807019
H        1.84221310       1.33150540      -0.69658865
H       -0.23295893       1.97229611       0.30405749
H       -1.58181875       0.33801539       1.52036067
H        0.07224989      -1.13349269       1.02097195
H       -1.21757537      -0.80571104      -1.35897720
H       -2.66614779      -0.02621407      -0.63847893
