10
Frame=0 idx=007771 GeodesicLength=0.0 rxn_smarts="[O:1]=[C:2]([n:3]1[c:4]([H:9])[n:5][c:6]([H:10])[n:7]1)[H:8]>>[O:1]1[C:2]([H:8])=[N:3][C:4]([H:9])=[N:5][C:6]([H:10])=[N:7]1"
O        1.16135699      -1.56003252      -0.10967780
C        1.49961620      -0.45838027       0.28644281
N        0.69673252       0.49931275       0.76545955
C       -0.09609151       1.23575536      -0.01497989
N       -1.14264761       0.81319483      -0.67627731
C       -1.44735705      -0.47110982      -0.31799476
N       -0.82856675      -1.33165039       0.36324611
H        2.57429617      -0.21793377       0.26627656
H        0.05007657       2.31628912      -0.03610595
H       -2.46741553      -0.82544530      -0.52638932
10
Frame=1 idx=007771 GeodesicLength=0.058255709372785604 rxn_smarts="[O:1]=[C:2]([n:3]1[c:4]([H:9])[n:5][c:6]([H:10])[n:7]1)[H:8]>>[O:1]1[C:2]([H:8])=[N:3][C:4]([H:9])=[N:5][C:6]([H:10])=[N:7]1"
O        1.17631471      -1.53201696      -0.19076514
C        1.50357896      -0.45211037       0.27723798
N        0.67790710       0.48472262       0.75699666
C       -0.10112433       1.23335245      -0.02980223
N       -1.15928704       0.81376077      -0.67223929
C       -1.45746465      -0.47150282      -0.31009969
N       -0.80389585      -1.32494765       0.35090685
H        2.57933639      -0.23660945       0.36603395
H        0.06900332       2.30933579      -0.06997607
H       -2.48436860      -0.82398437      -0.47829302
10
Frame=2 idx=007771 GeodesicLength=0.11613159769649026 rxn_smarts="[O:1]=[C:2]([n:3]1[c:4]([H:9])[n:5][c:6]([H:10])[n:7]1)[H:8]>>[O:1]1[C:2]([H:8])=[N:3][C:4]([H:9])=[N:5][C:6]([H:10])=[N:7]1"
O        1.19157583      -1.50089066      -0.26510345
C        1.50785551      -0.44456347       0.26785711
N        0.66106398       0.47209045       0.74822323
C       -0.10656093       1.23212554      -0.04290901
N       -1.17594743       0.81512572      -0.66609953
C       -1.46540873      -0.47219652      -0.30238604
N       -0.77868862      -1.31748658       0.33893913
H        2.57572308      -0.26215079       0.45856458
H        0.08684693       2.30274091      -0.10309563
H       -2.49645960      -0.82479459      -0.43399040
10
Frame=3 idx=007771 GeodesicLength=0.17402675550848268 rxn_smarts="[O:1]=[C:2]([n:3]1[c:4]([H:9])[n:5][c:6]([H:10])[n:7]1)[H:8]>>[O:1]1[C:2]([H:8])=[N:3][C:4]([H:9])=[N:5][C:6]([H:10])=[N:7]1"
O        1.20781244      -1.46659087      -0.33438055
C        1.51263116      -0.43572174       0.25896509
N        0.64542828       0.46080936       0.73951576
C       -0.11244977       1.23170313      -0.05456572
N       -1.19217171       0.81677525      -0.65887549
C       -1.47146780      -0.47342583      -0.29548993
N       -0.75270445      -1.30991505       0.32584562
H        2.56424326      -0.29321639       0.54572472
H        0.10401122       2.29596857      -0.13638753
H       -2.50533263      -0.82638642      -0.39035197
10
Frame=4 idx=007771 GeodesicLength=0.23215235603940332 rxn_smarts="[O:1]=[C:2]([n:3]1[c:4]([H:9])[n:5][c:6]([H:10])[n:7]1)[H:8]>>[O:1]1[C:2]([H:8])=[N:3][C:4]([H:9])=[N:5][C:6]([H:10])=[N:7]1"
O        1.22483743      -1.42885229      -0.39982526
C        1.51823779      -0.42522960       0.25010540
N        0.63125739       0.45126793       0.73050694
C       -0.11869911       1.23224693      -0.06530213
N       -1.20814658       0.81855532      -0.65054730
C       -1.47602718      -0.47492364      -0.28831496
N       -0.72585223      -1.30182772       0.31238939
H        2.54533254      -0.33103290       0.62896071
H        0.11999823       2.28922616      -0.17016302
H       -2.51093829      -0.82943019      -0.34780978
10
Frame=5 idx=007771 GeodesicLength=0.2906584936643911 rxn_smarts="[O:1]=[C:2]([n:3]1[c:4]([H:9])[n:5][c:6]([H:10])[n:7]1)[H:8]>>[O:1]1[C:2]([H:8])=[N:3][C:4]([H:9])=[N:5][C:6]([H:10])=[N:7]1"
O        1.24284818      -1.38836711      -0.46048727
C        1.52417696      -0.41402053       0.24341723
N        0.61762537       0.44256039       0.72229328
C       -0.12507989       1.23323019      -0.07480874
N       -1.22301986       0.82016325      -0.64204228
C       -1.47912680      -0.47683783      -0.28187458
N       -0.69865768      -1.29370457       0.29776268
H        2.51966403      -0.37219114       0.70531193
H        0.13558242       2.28179070      -0.20417717
H       -2.51401272      -0.83262336      -0.30539507
10
Frame=6 idx=007771 GeodesicLength=0.3495486283933472 rxn_smarts="[O:1]=[C:2]([n:3]1[c:4]([H:9])[n:5][c:6]([H:10])[n:7]1)[H:8]>>[O:1]1[C:2]([H:8])=[N:3][C:4]([H:9])=[N:5][C:6]([H:10])=[N:7]1"
O        1.26204098      -1.34525106      -0.51668445
C        1.53031798      -0.40240113       0.23938924
N        0.60419690       0.43442352       0.71522062
C       -0.13167876       1.23458548      -0.08295090
N       -1.23701712       0.82161066      -0.63347396
C       -1.48116091      -0.47919664      -0.27643462
N       -0.67137370      -1.28573138       0.28157574
H        2.48850162      -0.41570448       0.77484901
H        0.15121684       2.27330865      -0.23892351
H       -2.51504384      -0.83564363      -0.26256717
10
Frame=7 idx=007771 GeodesicLength=0.40945842113612346 rxn_smarts="[O:1]=[C:2]([n:3]1[c:4]([H:9])[n:5][c:6]([H:10])[n:7]1)[H:8]>>[O:1]1[C:2]([H:8])=[N:3][C:4]([H:9])=[N:5][C:6]([H:10])=[N:7]1"
O        1.28230990      -1.29777754      -0.56995298
C        1.53702122      -0.38915399       0.23695342
N        0.59131908       0.42764519       0.70878739
C       -0.13891192       1.23671706      -0.08975398
N       -1.25039570       0.82266624      -0.62459840
C       -1.48209859      -0.48181865      -0.27067477
N       -0.64342520      -1.27725530       0.26462680
H        2.45093370      -0.46501303       0.83984563
H        0.16663318       2.26352954      -0.27569101
H       -2.51338567      -0.83953951      -0.21954210
10
Frame=8 idx=007771 GeodesicLength=0.4698866883599892 rxn_smarts="[O:1]=[C:2]([n:3]1[c:4]([H:9])[n:5][c:6]([H:10])[n:7]1)[H:8]>>[O:1]1[C:2]([H:8])=[N:3][C:4]([H:9])=[N:5][C:6]([H:10])=[N:7]1"
O        1.30327254      -1.24931785      -0.61747624
C        1.54324581      -0.37652043       0.23748165
N        0.57840769       0.42084159       0.70319062
C       -0.14557334       1.23875503      -0.09612052
N       -1.26255423       0.82360786      -0.61593108
C       -1.48213906      -0.48468296      -0.26599268
N       -0.61609172      -1.26875393       0.24666324
H        2.40955196      -0.51373167       0.89639478
H        0.18164669       2.25263537      -0.31153043
H       -2.50976635      -0.84283300      -0.17667933
10
Frame=9 idx=007771 GeodesicLength=0.5310163962861417 rxn_smarts="[O:1]=[C:2]([n:3]1[c:4]([H:9])[n:5][c:6]([H:10])[n:7]1)[H:8]>>[O:1]1[C:2]([H:8])=[N:3][C:4]([H:9])=[N:5][C:6]([H:10])=[N:7]1"
O        1.32467955      -1.19925153      -0.66031544
C        1.54929136      -0.36393334       0.24050806
N        0.56570805       0.41462364       0.69874698
C       -0.15233925       1.24117039      -0.10134757
N       -1.27419145       0.82454071      -0.60692986
C       -1.48172264      -0.48747189      -0.26125571
N       -0.58940886      -1.25969244       0.22885466
H        2.36554327      -0.56345989       0.94546829
H        0.19672285       2.24011582      -0.34800031
H       -2.50428289      -0.84664147      -0.13572910
10
Frame=10 idx=007771 GeodesicLength=0.5927411614681065 rxn_smarts="[O:1]=[C:2]([n:3]1[c:4]([H:9])[n:5][c:6]([H:10])[n:7]1)[H:8]>>[O:1]1[C:2]([H:8])=[N:3][C:4]([H:9])=[N:5][C:6]([H:10])=[N:7]1"
O        1.34703873      -1.14816349      -0.69830107
C        1.55479692      -0.35193251       0.24608202
N        0.55272476       0.40825272       0.69504479
C       -0.15882494       1.24347017      -0.10619291
N       -1.28518416       0.82544526      -0.59804197
C       -1.48095673      -0.49040449      -0.25762712
N       -0.56346620      -1.25056711       0.20960532
H        2.31956775      -0.61247150       0.98787266
H        0.21158918       2.22600799      -0.38417572
H       -2.49728530      -0.84963705      -0.09426599
10
Frame=11 idx=007771 GeodesicLength=0.6552303458580356 rxn_smarts="[O:1]=[C:2]([n:3]1[c:4]([H:9])[n:5][c:6]([H:10])[n:7]1)[H:8]>>[O:1]1[C:2]([H:8])=[N:3][C:4]([H:9])=[N:5][C:6]([H:10])=[N:7]1"
O        1.36961861      -1.09575336      -0.73164976
C        1.55951435      -0.34044042       0.25424151
N        0.53956913       0.40200661       0.69244270
C       -0.16520070       1.24587521      -0.11010267
N       -1.29549340       0.82631194      -0.58905701
C       -1.47997878      -0.49324103      -0.25418206
N       -0.53852484      -1.24098009       0.19024769
H        2.27258106      -0.66085718       1.02301040
H        0.22674534       2.20976711      -0.42070760
H       -2.48883076      -0.85268880      -0.05424319
10
Frame=12 idx=007771 GeodesicLength=0.7183247479404403 rxn_smarts="[O:1]=[C:2]([n:3]1[c:4]([H:9])[n:5][c:6]([H:10])[n:7]1)[H:8]>>[O:1]1[C:2]([H:8])=[N:3][C:4]([H:9])=[N:5][C:6]([H:10])=[N:7]1"
O        1.39266730      -1.04296038      -0.76055972
C        1.56351955      -0.32980968       0.26438954
N        0.52628813       0.39569864       0.69041966
C       -0.17132047       1.24826609      -0.11377324
N       -1.30547196       0.82735186      -0.57993849
C       -1.47897293      -0.49593065      -0.25119680
N       -0.51456035      -1.23105047       0.17036671
H        2.22539411      -0.70804806       1.05222037
H        0.24161606       2.19185113      -0.45691330
H       -2.47915944      -0.85536849      -0.01501474
10
Frame=13 idx=007771 GeodesicLength=0.7820220453587216 rxn_smarts="[O:1]=[C:2]([n:3]1[c:4]([H:9])[n:5][c:6]([H:10])[n:7]1)[H:8]>>[O:1]1[C:2]([H:8])=[N:3][C:4]([H:9])=[N:5][C:6]([H:10])=[N:7]1"
O        1.41594086      -0.99003109      -0.78516211
C        1.56680022      -0.31999410       0.27615753
N        0.51305583       0.38941242       0.68872768
C       -0.17703587       1.25062337      -0.11734996
N       -1.31515737       0.82861000      -0.57034386
C       -1.47792744      -0.49840953      -0.24835660
N       -0.49158525      -1.22064397       0.15029498
H        2.17805985      -0.75391952       1.07586266
H        0.25617866       2.17230914      -0.49276590
H       -2.46832948      -0.85795672       0.02293557
10
Frame=14 idx=007771 GeodesicLength=0.8463359514179425 rxn_smarts="[O:1]=[C:2]([n:3]1[c:4]([H:9])[n:5][c:6]([H:10])[n:7]1)[H:8]>>[O:1]1[C:2]([H:8])=[N:3][C:4]([H:9])=[N:5][C:6]([H:10])=[N:7]1"
O        1.43929766      -0.93709848      -0.80572601
C        1.56933519      -0.31103187       0.28936814
N        0.49988562       0.38316568       0.68741750
C       -0.18243064       1.25299520      -0.12077672
N       -1.32457598       0.83010851      -0.56034615
C       -1.47692706      -0.50060272      -0.24553481
N       -0.46965995      -1.20970131       0.13034473
H        2.13127765      -0.79839230       1.09428449
H        0.27040521       2.15106248      -0.52832669
H       -2.45660770      -0.86050520       0.05929551
10
Frame=15 idx=007771 GeodesicLength=0.9112232831062625 rxn_smarts="[O:1]=[C:2]([n:3]1[c:4]([H:9])[n:5][c:6]([H:10])[n:7]1)[H:8]>>[O:1]1[C:2]([H:8])=[N:3][C:4]([H:9])=[N:5][C:6]([H:10])=[N:7]1"
O        1.46267927      -0.88435247      -0.82245763
C        1.57108712      -0.30297815       0.30379454
N        0.48679024       0.37693031       0.68634818
C       -0.18745789       1.25532864      -0.12420380
N       -1.33369761       0.83181593      -0.55004291
C       -1.47600748      -0.50250726      -0.24272083
N       -0.44878009      -1.19824426       0.11050229
H        2.08535237      -0.84130054       1.10796996
H        0.28418241       2.12823708      -0.56339694
H       -2.44414835      -0.86292928       0.09420714
10
Frame=16 idx=007771 GeodesicLength=0.9765646921564717 rxn_smarts="[O:1]=[C:2]([n:3]1[c:4]([H:9])[n:5][c:6]([H:10])[n:7]1)[H:8]>>[O:1]1[C:2]([H:8])=[N:3][C:4]([H:9])=[N:5][C:6]([H:10])=[N:7]1"
O        1.48595135      -0.83216823      -0.83558019
C        1.57205867      -0.29589786       0.31914283
N        0.47384027       0.37069806       0.68539152
C       -0.19208085       1.25759279      -0.12775749
N       -1.34250006       0.83371933      -0.53951332
C       -1.47518662      -0.50412490      -0.23988188
N       -0.42896380      -1.18631026       0.09093808
H        2.04063766      -0.88241346       1.11737238
H        0.29737693       2.10409908      -0.59770531
H       -2.43113354      -0.86519455       0.12759340
