13
Frame=0 idx=001154 GeodesicLength=0.0 rxn_smarts="[C:1]([C:2]([C:3]([H:10])([H:11])[H:12])([C:4](=[O:5])[H:13])[H:9])([H:6])([H:7])[H:8]>>[C:1]([O:5]/[C:4](=[C:2](/[C:3]([H:10])([H:11])[H:12])[H:9])[H:13])([H:6])([H:7])[H:8]"
C       -1.62036792       0.76307766       0.74594886
C        0.28174265      -0.15005731      -0.42349727
C        0.97957130      -1.45259792      -0.67619222
C        0.84419923       0.95359342       0.18504692
O        0.13476044       1.86563925       0.68042432
H       -2.12187238      -0.01955332       0.19338105
H       -1.34826929       0.50339457       1.75737343
H       -2.04804933       1.74542944       0.61086571
H       -0.51809549       0.12687269      -1.10381754
H        1.21698336      -1.61036044      -1.73256909
H        0.35728715      -2.29557614      -0.36154944
H        1.90835975      -1.51616399      -0.10595810
H        1.93375058       1.08630205       0.23054336
13
Frame=1 idx=001154 GeodesicLength=0.059915899047059115 rxn_smarts="[C:1]([C:2]([C:3]([H:10])([H:11])[H:12])([C:4](=[O:5])[H:13])[H:9])([H:6])([H:7])[H:8]>>[C:1]([O:5]/[C:4](=[C:2](/[C:3]([H:10])([H:11])[H:12])[H:9])[H:13])([H:6])([H:7])[H:8]"
C       -1.59828303       0.74452448       0.74344880
C        0.27531200      -0.13569563      -0.43054247
C        0.96308554      -1.44701009      -0.66489486
C        0.85216116       0.96059643       0.18095204
O        0.15694829       1.84734872       0.73951316
H       -2.10661465      -0.04928630       0.21172956
H       -1.36502399       0.49928718       1.76866966
H       -2.03472533       1.71893801       0.57616208
H       -0.50782088       0.14742041      -1.12746043
H        1.23576022      -1.59870353      -1.71348092
H        0.31910712      -2.28326441      -0.37771672
H        1.87198152      -1.52863542      -0.06569988
H        1.93811204       1.12448015       0.15931999
13
Frame=2 idx=001154 GeodesicLength=0.11919116235635205 rxn_smarts="[C:1]([C:2]([C:3]([H:10])([H:11])[H:12])([C:4](=[O:5])[H:13])[H:9])([H:6])([H:7])[H:8]>>[C:1]([O:5]/[C:4](=[C:2](/[C:3]([H:10])([H:11])[H:12])[H:9])[H:13])([H:6])([H:7])[H:8]"
C       -1.57659370       0.72800403       0.74154605
C        0.26794707      -0.12353077      -0.43644507
C        0.94821070      -1.44165898      -0.65455977
C        0.85890662       0.96667279       0.17581621
O        0.18064712       1.82499565       0.79721134
H       -2.09283751      -0.07507016       0.22990713
H       -1.38349811       0.49766371       1.77910517
H       -2.01801398       1.69508611       0.54234123
H       -0.49932975       0.16397328      -1.14898007
H        1.25474245      -1.58681683      -1.69454976
H        0.28618813      -2.27256997      -0.39478622
H        1.83718608      -1.53895354      -0.02847056
H        1.93644489       1.16220469       0.09186431
13
Frame=3 idx=001154 GeodesicLength=0.177699416149209 rxn_smarts="[C:1]([C:2]([C:3]([H:10])([H:11])[H:12])([C:4](=[O:5])[H:13])[H:9])([H:6])([H:7])[H:8]>>[C:1]([O:5]/[C:4](=[C:2](/[C:3]([H:10])([H:11])[H:12])[H:9])[H:13])([H:6])([H:7])[H:8]"
C       -1.55541413       0.71343005       0.74019388
C        0.25968480      -0.11336338      -0.44147641
C        0.93498195      -1.43653176      -0.64522497
C        0.86423796       0.97202428       0.16966600
O        0.20576101       1.79885190       0.85308296
H       -2.08064211      -0.09710876       0.24788859
H       -1.40347484       0.49879831       1.78854241
H       -1.99853004       1.67373188       0.50963885
H       -0.49259843       0.17675321      -1.16877842
H        1.27337275      -1.57484465      -1.67608739
H        0.25849501      -2.26346800      -0.41200332
H        1.80458635      -1.54717300       0.00532065
H        1.92953971       1.19889993       0.02923718
13
Frame=4 idx=001154 GeodesicLength=0.23604004288112268 rxn_smarts="[C:1]([C:2]([C:3]([H:10])([H:11])[H:12])([C:4](=[O:5])[H:13])[H:9])([H:6])([H:7])[H:8]>>[C:1]([O:5]/[C:4](=[C:2](/[C:3]([H:10])([H:11])[H:12])[H:9])[H:13])([H:6])([H:7])[H:8]"
C       -1.53456065       0.70052082       0.73933603
C        0.25076840      -0.10501382      -0.44582057
C        0.92309586      -1.43188644      -0.63631485
C        0.86845440       0.97637741       0.16300831
O        0.23291177       1.76740809       0.90876401
H       -2.07008174      -0.11498887       0.26468377
H       -1.42493143       0.50159491       1.79667796
H       -1.97598957       1.65495739       0.47896765
H       -0.48718745       0.18632285      -1.18719048
H        1.29297692      -1.56269366      -1.65713150
H        0.23476338      -2.25597421      -0.43000927
H        1.77298087      -1.55420824       0.03772238
H        1.91679924       1.23758378      -0.03269343
13
Frame=5 idx=001154 GeodesicLength=0.2939158772875882 rxn_smarts="[C:1]([C:2]([C:3]([H:10])([H:11])[H:12])([C:4](=[O:5])[H:13])[H:9])([H:6])([H:7])[H:8]>>[C:1]([O:5]/[C:4](=[C:2](/[C:3]([H:10])([H:11])[H:12])[H:9])[H:13])([H:6])([H:7])[H:8]"
C       -1.51416141       0.68929985       0.73913047
C        0.24122219      -0.09842413      -0.44953525
C        0.91266821      -1.42770506      -0.62830709
C        0.87145839       0.97975114       0.15621952
O        0.26157064       1.73205140       0.96227105
H       -2.06091553      -0.12973603       0.28153680
H       -1.44737688       0.50775220       1.80384329
H       -1.95147154       1.63826700       0.44959608
H       -0.48311230       0.19280896      -1.20430757
H        1.31306497      -1.55017326      -1.63845007
H        0.21509997      -2.25014671      -0.44891478
H        1.74294695      -1.56032169       0.06781597
H        1.89900635       1.27657635      -0.09089842
13
Frame=6 idx=001154 GeodesicLength=0.35141231144522495 rxn_smarts="[C:1]([C:2]([C:3]([H:10])([H:11])[H:12])([C:4](=[O:5])[H:13])[H:9])([H:6])([H:7])[H:8]>>[C:1]([O:5]/[C:4](=[C:2](/[C:3]([H:10])([H:11])[H:12])[H:9])[H:13])([H:6])([H:7])[H:8]"
C       -1.49409942       0.67938241       0.73962786
C        0.23115374      -0.09317147      -0.45283211
C        0.90342923      -1.42372575      -0.62147345
C        0.87325909       0.98222970       0.14967312
O        0.29091827       1.69450542       1.01172866
H       -2.05229064      -0.14281041       0.29968006
H       -1.46990719       0.51854069       1.81019106
H       -1.92617691       1.62235397       0.42061353
H       -0.48026589       0.19686877      -1.22032358
H        1.33296943      -1.53701180      -1.62050319
H        0.19895196      -2.24547274      -0.46875758
H        1.71444345      -1.56571911       0.09516629
H        1.87761488       1.31403032      -0.14279066
13
Frame=7 idx=001154 GeodesicLength=0.40915177127604213 rxn_smarts="[C:1]([C:2]([C:3]([H:10])([H:11])[H:12])([C:4](=[O:5])[H:13])[H:9])([H:6])([H:7])[H:8]>>[C:1]([O:5]/[C:4](=[C:2](/[C:3]([H:10])([H:11])[H:12])[H:9])[H:13])([H:6])([H:7])[H:8]"
C       -1.47408517       0.67056968       0.74066896
C        0.22090901      -0.08905344      -0.45601423
C        0.89502880      -1.42025694      -0.61518801
C        0.87441204       0.98367960       0.14347472
O        0.32167917       1.65321998       1.05889444
H       -2.04420226      -0.15364378       0.31791496
H       -1.49221998       0.53227989       1.81522657
H       -1.89965941       1.60749983       0.39309371
H       -0.47819414       0.19900493      -1.23556183
H        1.35384152      -1.52360634      -1.60202167
H        0.18519621      -2.24183076      -0.48996640
H        1.68603171      -1.57122636       0.12165237
H        1.85126250       1.35336370      -0.19217359
13
Frame=8 idx=001154 GeodesicLength=0.46703147623984387 rxn_smarts="[C:1]([C:2]([C:3]([H:10])([H:11])[H:12])([C:4](=[O:5])[H:13])[H:9])([H:6])([H:7])[H:8]>>[C:1]([O:5]/[C:4](=[C:2](/[C:3]([H:10])([H:11])[H:12])[H:9])[H:13])([H:6])([H:7])[H:8]"
C       -1.45412843       0.66263757       0.74232478
C        0.21059829      -0.08582466      -0.45904289
C        0.88728135      -1.41718546      -0.60976546
C        0.87514755       0.98409299       0.13810866
O        0.35305655       1.61012502       1.10234520
H       -2.03596899      -0.16356307       0.33745541
H       -1.51370216       0.55017974       1.81917142
H       -1.87302781       1.59260734       0.36601616
H       -0.47663408       0.19977893      -1.25006912
H        1.37513415      -1.50979254      -1.58348154
H        0.17347186      -2.23894890      -0.51278201
H        1.65769172      -1.57714936       0.14669742
H        1.82107999       1.39304241      -0.23697802
13
Frame=9 idx=001154 GeodesicLength=0.5252247004131165 rxn_smarts="[C:1]([C:2]([C:3]([H:10])([H:11])[H:12])([C:4](=[O:5])[H:13])[H:9])([H:6])([H:7])[H:8]>>[C:1]([O:5]/[C:4](=[C:2](/[C:3]([H:10])([H:11])[H:12])[H:9])[H:13])([H:6])([H:7])[H:8]"
C       -1.43410673       0.65536478       0.74453783
C        0.20031017      -0.08318487      -0.46213183
C        0.87993980      -1.41440901      -0.60512038
C        0.87562305       0.98371002       0.13336762
O        0.38487822       1.56577479       1.14197137
H       -2.02717645      -0.17311784       0.35860867
H       -1.53377156       0.57206809       1.82188516
H       -1.84677757       1.57709519       0.33923458
H       -0.47551027       0.19958437      -1.26405207
H        1.39690894      -1.49560413      -1.56455770
H        0.16327860      -2.23644697      -0.53738878
H        1.62880610      -1.58366647       0.17067736
H        1.78759769       1.43283205      -0.27703182
13
Frame=10 idx=001154 GeodesicLength=0.5840794544002731 rxn_smarts="[C:1]([C:2]([C:3]([H:10])([H:11])[H:12])([C:4](=[O:5])[H:13])[H:9])([H:6])([H:7])[H:8]>>[C:1]([O:5]/[C:4](=[C:2](/[C:3]([H:10])([H:11])[H:12])[H:9])[H:13])([H:6])([H:7])[H:8]"
C       -1.41373853       0.64870229       0.74721537
C        0.19031024      -0.08104952      -0.46532045
C        0.87274872      -1.41214191      -0.60106216
C        0.87640157       0.98228998       0.12945755
O        0.41734654       1.51996689       1.17826338
H       -2.01745514      -0.18235467       0.38124689
H       -1.55207156       0.59744879       1.82315398
H       -1.82077545       1.56086482       0.31278551
H       -0.47442896       0.19875691      -1.27759657
H        1.41958702      -1.48131372      -1.54458166
H        0.15406123      -2.23421829      -0.56427214
H        1.59841946      -1.59142647       0.19425791
H        1.74959487       1.47447490      -0.31354761
13
Frame=11 idx=001154 GeodesicLength=0.6433364268258964 rxn_smarts="[C:1]([C:2]([C:3]([H:10])([H:11])[H:12])([C:4](=[O:5])[H:13])[H:9])([H:6])([H:7])[H:8]>>[C:1]([O:5]/[C:4](=[C:2](/[C:3]([H:10])([H:11])[H:12])[H:9])[H:13])([H:6])([H:7])[H:8]"
C       -1.39322759       0.64248063       0.75016381
C        0.18048621      -0.07904452      -0.46868843
C        0.86564581      -1.40997112      -0.59766009
C        0.87714728       0.98040143       0.12604469
O        0.44979965       1.47392487       1.21073259
H       -2.00651096      -0.19192250       0.40577338
H       -1.56819064       0.62631083       1.82271083
H       -1.79600468       1.54318555       0.28618378
H       -0.47345807       0.19767977      -1.29083443
H        1.44186115      -1.46701625      -1.52414421
H        0.14591336      -2.23174467      -0.59220845
H        1.56735320      -1.59967607       0.21648784
H        1.70918528       1.51539207      -0.34456132
13
Frame=12 idx=001154 GeodesicLength=0.7033274038162265 rxn_smarts="[C:1]([C:2]([C:3]([H:10])([H:11])[H:12])([C:4](=[O:5])[H:13])[H:9])([H:6])([H:7])[H:8]>>[C:1]([O:5]/[C:4](=[C:2](/[C:3]([H:10])([H:11])[H:12])[H:9])[H:13])([H:6])([H:7])[H:8]"
C       -1.37236958       0.63694502       0.75322472
C        0.17103565      -0.07733743      -0.47224270
C        0.85853659      -1.40826371      -0.59465933
C        0.87837688       0.97777998       0.12313777
O        0.48281286       1.42676272       1.24022192
H       -1.99449095      -0.20112330       0.43153551
H       -1.58187892       0.65768138       1.82039588
H       -1.77189622       1.52469488       0.25983383
H       -0.47230859       0.19621835      -1.30388279
H        1.46430641      -1.45311396      -1.50257176
H        0.13861845      -2.22927913      -0.62149125
H        1.53493310      -1.60893202       0.23804759
H        1.66432432       1.55796722      -0.37154938
13
Frame=13 idx=001154 GeodesicLength=0.7640387060369025 rxn_smarts="[C:1]([C:2]([C:3]([H:10])([H:11])[H:12])([C:4](=[O:5])[H:13])[H:9])([H:6])([H:7])[H:8]>>[C:1]([O:5]/[C:4](=[C:2](/[C:3]([H:10])([H:11])[H:12])[H:9])[H:13])([H:6])([H:7])[H:8]"
C       -1.35115718       0.63204574       0.75630706
C        0.16191062      -0.07573117      -0.47610021
C        0.85132986      -1.40685800      -0.59203736
C        0.87997809       0.97477308       0.12035249
O        0.51614730       1.37913309       1.26641007
H       -1.98115449      -0.21018960       0.45876516
H       -1.59274570       0.69123599       1.81617740
H       -1.74890880       1.50510151       0.23367752
H       -0.47107716       0.19448650      -1.31685849
H        1.48682257      -1.43960927      -1.47971464
H        0.13213355      -2.22657713      -0.65207937
H        1.50094599      -1.61898866       0.25893214
H        1.61577536       1.60117793      -0.39383175
13
Frame=14 idx=001154 GeodesicLength=0.8254678299387652 rxn_smarts="[C:1]([C:2]([C:3]([H:10])([H:11])[H:12])([C:4](=[O:5])[H:13])[H:9])([H:6])([H:7])[H:8]>>[C:1]([O:5]/[C:4](=[C:2](/[C:3]([H:10])([H:11])[H:12])[H:9])[H:13])([H:6])([H:7])[H:8]"
C       -1.32965419       0.62792818       0.75920694
C        0.15313220      -0.07424509      -0.48015655
C        0.84406473      -1.40576178      -0.58975641
C        0.88200040       0.97141036       0.11768195
O        0.54968942       1.33115278       1.28946897
H       -1.96656777      -0.21886125       0.48724014
H       -1.60078310       0.72659299       1.80993031
H       -1.72709858       1.48455195       0.20761035
H       -0.46961614       0.19249614      -1.32976670
H        1.50883734      -1.42672777      -1.45586748
H        0.12657375      -2.22367120      -0.68325317
H        1.46596492      -1.62962517       0.27871980
H        1.56345702       1.64475987      -0.41105815
13
Frame=15 idx=001154 GeodesicLength=0.8875925938318623 rxn_smarts="[C:1]([C:2]([C:3]([H:10])([H:11])[H:12])([C:4](=[O:5])[H:13])[H:9])([H:6])([H:7])[H:8]>>[C:1]([O:5]/[C:4](=[C:2](/[C:3]([H:10])([H:11])[H:12])[H:9])[H:13])([H:6])([H:7])[H:8]"
C       -1.30793863       0.62463812       0.76177321
C        0.14467080      -0.07280728      -0.48441876
C        0.83674924      -1.40489133      -0.58776821
C        0.88435934       0.96789897       0.11495073
O        0.58325524       1.28313693       1.30939921
H       -1.95077313      -0.22700522       0.51680701
H       -1.60597089       0.76326216       1.80164939
H       -1.70664040       1.46308215       0.18164403
H       -0.46790925       0.19027524      -1.34267478
H        1.52997462      -1.41457222      -1.43125321
H        0.12195646      -2.22052446      -0.71445291
H        1.43038062      -1.64052189       0.29720991
H        1.50788596       1.68802882      -0.42286564
13
Frame=16 idx=001154 GeodesicLength=0.9505260243667149 rxn_smarts="[C:1]([C:2]([C:3]([H:10])([H:11])[H:12])([C:4](=[O:5])[H:13])[H:9])([H:6])([H:7])[H:8]>>[C:1]([O:5]/[C:4](=[C:2](/[C:3]([H:10])([H:11])[H:12])[H:9])[H:13])([H:6])([H:7])[H:8]"
C       -1.28601569       0.62227783       0.76386442
C        0.13653825      -0.07143380      -0.48886647
C        0.82941401      -1.40425844      -0.58601517
C        0.88707880       0.96430447       0.11204627
O        0.61680755       1.23514893       1.32629366
H       -1.93385196      -0.23431022       0.54719940
H       -1.60833357       0.80079339       1.79137400
H       -1.68746063       1.44089953       0.15583761
H       -0.46589004       0.18778226      -1.35561756
H        1.55007200      -1.40325298      -1.40600271
H        0.11828807      -2.21720483      -0.74531330
H        1.39447377      -1.65152811       0.31434950
H        1.44887944       1.73078197      -0.42914965
