11
Frame=0 idx=005450 GeodesicLength=0.0 rxn_smarts="[O:1]=[C:2]1[N:3]([H:7])[C:4]([H:8])([H:9])[C:5]([H:10])([H:11])[O:6]1>>[O:1]([C@@:2]12[N:3]([H:7])[C:4]([H:8])([H:9])[C@:5]1([H:11])[O:6]2)[H:10]"
O        1.83680866       1.14720533       0.49676318
C        0.99535463       0.29687985       0.01331800
N        0.47605330      -0.86515715       0.69900343
C       -0.89898009      -0.66374290       0.17616532
C       -0.51192900       0.63566565      -0.49908665
O        0.62690882       0.28133067      -1.32543526
H        0.93280305      -1.72022701       0.40584854
H       -1.23696127      -1.43303671      -0.52154921
H       -1.61644572      -0.54059146       0.98709376
H        0.52766100       1.42848608       0.45561815
H       -1.13127338       1.43318770      -0.88773921
11
Frame=1 idx=005450 GeodesicLength=0.08308337115919211 rxn_smarts="[O:1]=[C:2]1[N:3]([H:7])[C:4]([H:8])([H:9])[C:5]([H:10])([H:11])[O:6]1>>[O:1]([C@@:2]12[N:3]([H:7])[C:4]([H:8])([H:9])[C@:5]1([H:11])[O:6]2)[H:10]"
O        1.84194848       1.13944081       0.49680821
C        1.00453285       0.28905531       0.00914866
N        0.47677044      -0.86620465       0.69445818
C       -0.89836859      -0.66219255       0.17569199
C       -0.51215716       0.64038252      -0.49605460
O        0.62489182       0.28755469      -1.32527946
H        0.93317506      -1.72471540       0.41239536
H       -1.23813892      -1.43003014      -0.52277856
H       -1.61458861      -0.54082227       0.98797474
H        0.52174188       1.44226307       0.46425638
H       -1.13980726       1.42526861      -0.89662089
11
Frame=2 idx=005450 GeodesicLength=0.16606298575356623 rxn_smarts="[O:1]=[C:2]1[N:3]([H:7])[C:4]([H:8])([H:9])[C:5]([H:10])([H:11])[O:6]1>>[O:1]([C@@:2]12[N:3]([H:7])[C:4]([H:8])([H:9])[C@:5]1([H:11])[O:6]2)[H:10]"
O        1.84677778       1.13163435       0.49684852
C        1.01394953       0.28085054       0.00459297
N        0.47755021      -0.86731243       0.68977834
C       -0.89769118      -0.66056499       0.17519331
C       -0.51224746       0.64521241      -0.49294096
O        0.62289403       0.29385390      -1.32517451
H        0.93342695      -1.72930778       0.41912857
H       -1.23936218      -1.42688156      -0.52404402
H       -1.61259241      -0.54097419       0.98888818
H        0.51551635       1.45647289       0.47313639
H       -1.14822163       1.41701686      -0.90540680
11
Frame=3 idx=005450 GeodesicLength=0.24899494394461616 rxn_smarts="[O:1]=[C:2]1[N:3]([H:7])[C:4]([H:8])([H:9])[C:5]([H:10])([H:11])[O:6]1>>[O:1]([C@@:2]12[N:3]([H:7])[C:4]([H:8])([H:9])[C@:5]1([H:11])[O:6]2)[H:10]"
O        1.85124835       1.12378756       0.49688350
C        1.02362010       0.27223130      -0.00038402
N        0.47839896      -0.86848844       0.68495284
C       -0.89694103      -0.65885984       0.17466764
C       -0.51218392       0.65015113      -0.48975014
O        0.62092192       0.30021613      -1.32512870
H        0.93355302      -1.73401125       0.42606131
H       -1.24063330      -1.42358889      -0.52534217
H       -1.61044424      -0.54104064       0.98983581
H        0.50893798       1.47115746       0.48226258
H       -1.15647785       1.40844547      -0.91405864
11
Frame=4 idx=005450 GeodesicLength=0.33188915912146766 rxn_smarts="[O:1]=[C:2]1[N:3]([H:7])[C:4]([H:8])([H:9])[C:5]([H:10])([H:11])[O:6]1>>[O:1]([C@@:2]12[N:3]([H:7])[C:4]([H:8])([H:9])[C@:5]1([H:11])[O:6]2)[H:10]"
O        1.85531880       1.11590064       0.49691145
C        1.03355580       0.26316835      -0.00581228
N        0.47932275      -0.86973949       0.67997184
C       -0.89611235      -0.65707803       0.17411419
C       -0.51195332       0.65519257      -0.48648701
O        0.61898247       0.30662900      -1.32514813
H        0.93355039      -1.73883004       0.43320350
H       -1.24195437      -1.42015258      -0.52666877
H       -1.60813318      -0.54101622       0.99082007
H        0.50196280       1.48635180       0.49163918
H       -1.16453979       1.39957399      -0.92254403
11
Frame=5 idx=005450 GeodesicLength=0.41478251290790175 rxn_smarts="[O:1]=[C:2]1[N:3]([H:7])[C:4]([H:8])([H:9])[C:5]([H:10])([H:11])[O:6]1>>[O:1]([C@@:2]12[N:3]([H:7])[C:4]([H:8])([H:9])[C@:5]1([H:11])[O:6]2)[H:10]"
O        1.85893387       1.10796838       0.49693080
C        1.04377135       0.25362664      -0.01172638
N        0.48032938      -0.87107626       0.67482058
C       -0.89519777      -0.65522032       0.17353218
C       -0.51153850       0.66033025      -0.48315642
O        0.61708513       0.31307752      -1.32523815
H        0.93341617      -1.74376955       0.44056827
H       -1.24332869      -1.41657089      -0.52801924
H       -1.60564324      -0.54089542       0.99184481
H        0.49453799       1.50210487       0.50126768
H       -1.17236569       1.39042479      -0.93082415
11
Frame=6 idx=005450 GeodesicLength=0.4977147174191724 rxn_smarts="[O:1]=[C:2]1[N:3]([H:7])[C:4]([H:8])([H:9])[C:5]([H:10])([H:11])[O:6]1>>[O:1]([C@@:2]12[N:3]([H:7])[C:4]([H:8])([H:9])[C@:5]1([H:11])[O:6]2)[H:10]"
O        1.86203609       1.09998591       0.49694104
C        1.05428301       0.24356746      -0.01816122
N        0.48142800      -0.87251154       0.66948373
C       -0.89418839      -0.65328761       0.17292188
C       -0.51091985       0.66555742      -0.47976162
O        0.61524214       0.31954449      -1.32540346
H        0.93314672      -1.74883711       0.44816446
H       -1.24476051      -1.41284063      -0.52938766
H       -1.60295595      -0.54067144       0.99291661
H        0.48660129       1.51846957       0.51114830
H       -1.17991253       1.38102347      -0.93886207
11
Frame=7 idx=005450 GeodesicLength=0.5806886892823643 rxn_smarts="[O:1]=[C:2]1[N:3]([H:7])[C:4]([H:8])([H:9])[C:5]([H:10])([H:11])[O:6]1>>[O:1]([C@@:2]12[N:3]([H:7])[C:4]([H:8])([H:9])[C@:5]1([H:11])[O:6]2)[H:10]"
O        1.86457009       1.09194200       0.49693750
C        1.06510238       0.23295778      -0.02514731
N        0.48262805      -0.87405743       0.66394446
C       -0.89307644      -0.65128142       0.17228430
C       -0.51007931       0.67086547      -0.47630784
O        0.61346511       0.32601169      -1.32564492
H        0.93274350      -1.75403564       0.45600040
H       -1.24625404      -1.40896178      -0.53076787
H       -1.60005403      -0.54033800       0.99404261
H        0.47809378       1.53549533       0.52128545
H       -1.18713908       1.37140201      -0.94662678
11
Frame=8 idx=005450 GeodesicLength=0.6637286500778039 rxn_smarts="[O:1]=[C:2]1[N:3]([H:7])[C:4]([H:8])([H:9])[C:5]([H:10])([H:11])[O:6]1>>[O:1]([C@@:2]12[N:3]([H:7])[C:4]([H:8])([H:9])[C@:5]1([H:11])[O:6]2)[H:10]"
O        1.86646787       1.08382509       0.49692205
C        1.07624622       0.22175794      -0.03271574
N        0.48394046      -0.87573315       0.65818228
C       -0.89185177      -0.64920282       0.17162191
C       -0.50899445       0.67624669      -0.47279578
O        0.61177208       0.33245730      -1.32596200
H        0.93220448      -1.75937303       0.46407808
H       -1.24781608      -1.40492822      -0.53215225
H       -1.59691287      -0.53988868       0.99523452
H        0.46894362       1.55324729       0.53166962
H       -1.19399956       1.36159161      -0.95408268
11
Frame=9 idx=005450 GeodesicLength=0.7468239291422911 rxn_smarts="[O:1]=[C:2]1[N:3]([H:7])[C:4]([H:8])([H:9])[C:5]([H:10])([H:11])[O:6]1>>[O:1]([C@@:2]12[N:3]([H:7])[C:4]([H:8])([H:9])[C@:5]1([H:11])[O:6]2)[H:10]"
O        1.86765115       1.07560052       0.49688768
C        1.08772601       0.20994169      -0.04088608
N        0.48537847      -0.87755549       0.65217286
C       -0.89050457      -0.64705323       0.17093933
C       -0.50764506       0.68169189      -0.46922850
O        0.61018196       0.33885864      -1.32634352
H        0.93153562      -1.76485096       0.47239138
H       -1.24945387      -1.40073666      -0.53353099
H       -1.59350684      -0.53931665       0.99650761
H        0.45908990       1.57179523       0.54230219
H       -1.20045277       1.35162503      -0.96121195
11
Frame=10 idx=005450 GeodesicLength=0.829963163673225 rxn_smarts="[O:1]=[C:2]1[N:3]([H:7])[C:4]([H:8])([H:9])[C:5]([H:10])([H:11])[O:6]1>>[O:1]([C@@:2]12[N:3]([H:7])[C:4]([H:8])([H:9])[C@:5]1([H:11])[O:6]2)[H:10]"
O        1.86807578       1.06726111       0.49683715
C        1.09955116       0.19747224      -0.04968384
N        0.48695131      -0.87954707       0.64589381
C       -0.88902613      -0.64483456       0.17023999
C       -0.50601084       0.68719414      -0.46560445
O        0.60871369       0.34519295      -1.32678633
H        0.93074010      -1.77047397       0.48093985
H       -1.25117712      -1.39638033      -0.53489563
H       -1.58981277      -0.53861675       0.99787571
H        0.44845163       1.59119333       0.55317148
H       -1.20645682       1.34153892      -0.96798773
11
Frame=11 idx=005450 GeodesicLength=0.9131303674687208 rxn_smarts="[O:1]=[C:2]1[N:3]([H:7])[C:4]([H:8])([H:9])[C:5]([H:10])([H:11])[O:6]1>>[O:1]([C@@:2]12[N:3]([H:7])[C:4]([H:8])([H:9])[C@:5]1([H:11])[O:6]2)[H:10]"
O        1.86767468       1.05876948       0.49676925
C        1.11173019       0.18432529      -0.05912160
N        0.48867081      -0.88173292       0.63931568
C       -0.88740643      -0.64254724       0.16953081
C       -0.50407077       0.69274621      -0.46192176
O        0.60739280       0.35143465      -1.32727386
H        0.92982608      -1.77624241       0.48970883
H       -1.25299672      -1.39185033      -0.53623485
H       -1.58580035      -0.53778303       0.99935924
H        0.43695283       1.61151481       0.56426442
H       -1.21197312       1.33136548      -0.97439616
11
Frame=12 idx=005450 GeodesicLength=0.9963053435544535 rxn_smarts="[O:1]=[C:2]1[N:3]([H:7])[C:4]([H:8])([H:9])[C:5]([H:10])([H:11])[O:6]1>>[O:1]([C@@:2]12[N:3]([H:7])[C:4]([H:8])([H:9])[C@:5]1([H:11])[O:6]2)[H:10]"
O        1.86639475       1.05009493       0.49668369
C        1.12426818       0.17047740      -0.06920859
N        0.49054797      -0.88413912       0.63240912
C       -0.88563624      -0.64019226       0.16881904
C       -0.50180505       0.69834099      -0.45817874
O        0.60624364       0.35755669      -1.32779014
H        0.92880291      -1.78215748       0.49868109
H       -1.25492525      -1.38713783      -0.53753641
H       -1.58143975      -0.53680924       1.00097929
H        0.42451059       1.63282640       0.57556703
H       -1.21696174       1.32113952      -0.98042539
11
Frame=13 idx=005450 GeodesicLength=1.079457521487223 rxn_smarts="[O:1]=[C:2]1[N:3]([H:7])[C:4]([H:8])([H:9])[C:5]([H:10])([H:11])[O:6]1>>[O:1]([C@@:2]12[N:3]([H:7])[C:4]([H:8])([H:9])[C@:5]1([H:11])[O:6]2)[H:10]"
O        1.86418185       1.04119793       0.49658358
C        1.13716669       0.15591422      -0.07994278
N        0.49259259      -0.88679681       0.62514016
C       -0.88370699      -0.63777073       0.16811372
C       -0.49919561       0.70397191      -0.45437143
O        0.60529585       0.36353027      -1.32831081
H        0.92768397      -1.78821842       0.50782883
H       -1.25697856      -1.38223149      -0.53878685
H       -1.57669919      -0.53569035       1.00276120
H        0.41104584       1.65520114       0.58705303
H       -1.22138644       1.31089234      -0.98606864
11
Frame=14 idx=005450 GeodesicLength=1.1625491705145856 rxn_smarts="[O:1]=[C:2]1[N:3]([H:7])[C:4]([H:8])([H:9])[C:5]([H:10])([H:11])[O:6]1>>[O:1]([C@@:2]12[N:3]([H:7])[C:4]([H:8])([H:9])[C@:5]1([H:11])[O:6]2)[H:10]"
O        1.86100711       1.03203742       0.49647127
C        1.15042089       0.14063115      -0.09131269
N        0.49481240      -0.88973487       0.61747789
C       -0.88161104      -0.63528273       0.16742523
C       -0.49622802       0.70963379      -0.45049553
O        0.60457677       0.36932792      -1.32881028
H        0.92648413      -1.79442229       0.51711749
H       -1.25917200      -1.37711921      -0.53997108
H       -1.57154907      -0.53442145       1.00473046
H        0.39647559       1.67869801       0.59869720
H       -1.22521675       1.30065226      -0.99132995
11
Frame=15 idx=005450 GeodesicLength=1.245566629519447 rxn_smarts="[O:1]=[C:2]1[N:3]([H:7])[C:4]([H:8])([H:9])[C:5]([H:10])([H:11])[O:6]1>>[O:1]([C@@:2]12[N:3]([H:7])[C:4]([H:8])([H:9])[C@:5]1([H:11])[O:6]2)[H:10]"
O        1.85683980       1.02256394       0.49635068
C        1.16402343       0.12462847      -0.10330018
N        0.49721381      -0.89298881       0.60938369
C       -0.87934153      -0.63272860       0.16676462
C       -0.49288831       0.71532163      -0.44654592
O        0.60411837       0.37491977      -1.32925701
H        0.92522248      -1.80076470       0.52650946
H       -1.26152456      -1.37178668      -0.54107403
H       -1.56595555      -0.53299866       1.00691606
H        0.38071255       1.70338579       0.61046344
H       -1.22842049       1.29044784      -0.99621081
11
Frame=16 idx=005450 GeodesicLength=1.3284943390604542 rxn_smarts="[O:1]=[C:2]1[N:3]([H:7])[C:4]([H:8])([H:9])[C:5]([H:10])([H:11])[O:6]1>>[O:1]([C@@:2]12[N:3]([H:7])[C:4]([H:8])([H:9])[C@:5]1([H:11])[O:6]2)[H:10]"
O        1.85167164       1.01272455       0.49622723
C        1.17796156       0.10791951      -0.11587392
N        0.49980097      -0.89659236       0.60082176
C       -0.87689257      -0.63010768       0.16614517
C       -0.48916679       0.72103230      -0.44251605
O        0.60395189       0.38027784      -1.32961559
H        0.92391878      -1.80724077       0.53595484
H       -1.26405542      -1.36621850      -0.54207848
H       -1.55988725      -0.53141831       1.00934861
H        0.36366958       1.72932205       0.62231048
H       -1.23097238       1.28030135      -1.00072405
