17
Frame=0 idx=010894 GeodesicLength=0.0 rxn_smarts="[C:1]1([H:8])([H:9])[C@@:2]2([H:10])[C:3]([H:11])([H:12])[C@:4]3([H:13])[C:5]([H:14])([H:15])[C@@:6]2([H:16])[C@:7]13[H:17]>>[C:1]1([H:8])([H:9])[C:2]2=[C:3]([H:12])[C@:4]3([H:13])[C:5]([H:14])([H:15])[C@@:6]2([H:16])[C@:7]13[H:17].[H:10][H:11]"
C        1.39029651      -0.69817927      -0.24920590
C        0.78773308       0.68247117       0.16473229
C       -0.19225685       0.88903340      -0.85949760
C       -1.10311292      -0.25912637      -0.58714940
C       -1.57178607       0.15615242       0.84204137
C       -0.12582749      -0.12699220       1.21377634
C       -0.01354311      -1.20620429       0.11208803
H        1.76529489      -0.78054814      -1.26963647
H        2.12605819      -1.06379835       0.47103747
H        1.62387966       1.58440435      -0.34148818
H        1.63903489       1.63408380      -1.35596863
H       -0.29828412       1.72046991      -1.53628052
H       -1.80579729      -0.59303350      -1.34560450
H       -1.96927028       1.16552328       0.97386058
H       -2.26260185      -0.58081328       1.25259316
H        0.25081780      -0.26542763       2.22386482
H       -0.24063502      -2.25801524       0.29083711
17
Frame=1 idx=010894 GeodesicLength=0.0895078533943481 rxn_smarts="[C:1]1([H:8])([H:9])[C@@:2]2([H:10])[C:3]([H:11])([H:12])[C@:4]3([H:13])[C:5]([H:14])([H:15])[C@@:6]2([H:16])[C@:7]13[H:17]>>[C:1]1([H:8])([H:9])[C:2]2=[C:3]([H:12])[C@:4]3([H:13])[C:5]([H:14])([H:15])[C@@:6]2([H:16])[C@:7]13[H:17].[H:10][H:11]"
C        1.39533469      -0.70016648      -0.23779826
C        0.79071540       0.68029658       0.17044438
C       -0.18551883       0.89151099      -0.85779324
C       -1.09987996      -0.25509862      -0.58920924
C       -1.57405982       0.15302024       0.83879595
C       -0.12809922      -0.12594926       1.21374999
C       -0.01257370      -1.20513440       0.11114366
H        1.78027334      -0.78438108      -1.25415316
H        2.12516445      -1.06928246       0.48673623
H        1.64733245       1.58910537      -0.37017778
H        1.61383109       1.61028123      -1.39787951
H       -0.31784105       1.75270192      -1.49184321
H       -1.79789525      -0.58556824      -1.35357308
H       -1.97544084       1.16034671       0.97402910
H       -2.26325446      -0.58740760       1.24596560
H        0.24370969      -0.26697941       2.22538790
H       -0.24179798      -2.25729550       0.28617467
17
Frame=2 idx=010894 GeodesicLength=0.1788649552445142 rxn_smarts="[C:1]1([H:8])([H:9])[C@@:2]2([H:10])[C:3]([H:11])([H:12])[C@:4]3([H:13])[C:5]([H:14])([H:15])[C@@:6]2([H:16])[C@:7]13[H:17]>>[C:1]1([H:8])([H:9])[C:2]2=[C:3]([H:12])[C@:4]3([H:13])[C:5]([H:14])([H:15])[C@@:6]2([H:16])[C@:7]13[H:17].[H:10][H:11]"
C        1.40020379      -0.70163618      -0.22642796
C        0.79343215       0.67843360       0.17653641
C       -0.17915822       0.89474573      -0.85554164
C       -1.09678033      -0.25064532      -0.59111660
C       -1.57646598       0.14980502       0.83580271
C       -0.13049263      -0.12498386       1.21386890
C       -0.01162284      -1.20377108       0.10998868
H        1.79497576      -0.78729740      -1.23866511
H        2.12411527      -1.07437019       0.50222891
H        1.67087898       1.59378386      -0.40053219
H        1.58779149       1.58616519      -1.43870242
H       -0.33465548       1.78178432      -1.44802098
H       -1.79009362      -0.57749957      -1.36141376
H       -1.98186474       1.15497622       0.97472940
H       -2.26393706      -0.59427361       1.23936041
H        0.23652878      -0.26886102       2.22697183
H       -0.24285532      -2.25635571       0.28093340
17
Frame=3 idx=010894 GeodesicLength=0.2682467163756849 rxn_smarts="[C:1]1([H:8])([H:9])[C@@:2]2([H:10])[C:3]([H:11])([H:12])[C@:4]3([H:13])[C:5]([H:14])([H:15])[C@@:6]2([H:16])[C@:7]13[H:17]>>[C:1]1([H:8])([H:9])[C:2]2=[C:3]([H:12])[C@:4]3([H:13])[C:5]([H:14])([H:15])[C@@:6]2([H:16])[C@:7]13[H:17].[H:10][H:11]"
C        1.40492768      -0.70260350      -0.21504332
C        0.79590192       0.67685575       0.18308554
C       -0.17312176       0.89869056      -0.85267610
C       -1.09379211      -0.24578190      -0.59285526
C       -1.57900456       0.14648715       0.83305377
C       -0.13302091      -0.12413642       1.21416908
C       -0.01067692      -1.20212992       0.10865139
H        1.80944964      -0.78931374      -1.22311563
H        2.12292420      -1.07909620       0.51756748
H        1.69454356       1.59841483      -0.43263743
H        1.56087060       1.56165150      -1.47853113
H       -0.34888741       1.80816113      -1.40500644
H       -1.78235903      -0.56882420      -1.36912441
H       -1.98853087       1.14938491       0.97593431
H       -2.26466707      -0.60142152       1.23274560
H        0.22923893      -0.27113147       2.22865522
H       -0.24379587      -2.25520695       0.27512731
17
Frame=4 idx=010894 GeodesicLength=0.35774721414337707 rxn_smarts="[C:1]1([H:8])([H:9])[C@@:2]2([H:10])[C:3]([H:11])([H:12])[C@:4]3([H:13])[C:5]([H:14])([H:15])[C@@:6]2([H:16])[C@:7]13[H:17]>>[C:1]1([H:8])([H:9])[C:2]2=[C:3]([H:12])[C@:4]3([H:13])[C:5]([H:14])([H:15])[C@@:6]2([H:16])[C@:7]13[H:17].[H:10][H:11]"
C        1.40952941      -0.70308396      -0.20359267
C        0.79813645       0.67553874       0.19016289
C       -0.16736050       0.90330015      -0.84914796
C       -1.09089177      -0.24052039      -0.59441805
C       -1.58167446       0.14305299       0.83053421
C       -0.13569756      -0.12344333       1.21468374
C       -0.00971830      -1.20022731       0.10715547
H        1.82374484      -0.79044715      -1.20744738
H        2.12160423      -1.08349608       0.53280950
H        1.71833990       1.60295437      -0.46666070
H        1.53302431       1.53666584      -1.51740683
H       -0.36069935       1.83224996      -1.36289653
H       -1.77465496      -0.55953734      -1.37671102
H       -1.99543068       1.14355455       0.97760907
H       -2.26545594      -0.60885506       1.22608251
H        0.22180429      -0.27384483       2.23047702
H       -0.24459991      -2.25386115       0.26876672
17
Frame=5 idx=010894 GeodesicLength=0.44689549595916395 rxn_smarts="[C:1]1([H:8])([H:9])[C@@:2]2([H:10])[C:3]([H:11])([H:12])[C@:4]3([H:13])[C:5]([H:14])([H:15])[C@@:6]2([H:16])[C@:7]13[H:17]>>[C:1]1([H:8])([H:9])[C:2]2=[C:3]([H:12])[C@:4]3([H:13])[C:5]([H:14])([H:15])[C@@:6]2([H:16])[C@:7]13[H:17].[H:10][H:11]"
C        1.41403597      -0.70309943      -0.19206189
C        0.80014938       0.67446725       0.19777198
C       -0.16182348       0.90854899      -0.84495070
C       -1.08804170      -0.23487389      -0.59579861
C       -1.58448424       0.13951410       0.82823451
C       -0.13853048      -0.12291436       1.21541324
C       -0.00871873      -1.19807574       0.10551431
H        1.83788696      -0.79074468      -1.19164721
H        2.12017384      -1.08758933       0.54796436
H        1.74214174       1.60724142      -0.50275904
H        1.50435712       1.51127218      -1.55520311
H       -0.37027335       1.85429091      -1.32171021
H       -1.76692729      -0.54966411      -1.38416042
H       -2.00258048       1.13751460       0.97972710
H       -2.26632281      -0.61655001       1.21935930
H        0.21419506      -0.27701352       2.23243402
H       -0.24523751      -2.25232438       0.26187237
17
Frame=6 idx=010894 GeodesicLength=0.5361483984129352 rxn_smarts="[C:1]1([H:8])([H:9])[C@@:2]2([H:10])[C:3]([H:11])([H:12])[C@:4]3([H:13])[C:5]([H:14])([H:15])[C@@:6]2([H:16])[C@:7]13[H:17]>>[C:1]1([H:8])([H:9])[C:2]2=[C:3]([H:12])[C@:4]3([H:13])[C:5]([H:14])([H:15])[C@@:6]2([H:16])[C@:7]13[H:17].[H:10][H:11]"
C        1.41847512      -0.70265473      -0.18036754
C        0.80196055       0.67361893       0.20603048
C       -0.15642724       0.91438005      -0.84003869
C       -1.08520947      -0.22884586      -0.59700539
C       -1.58741189       0.13585228       0.82611156
C       -0.14153387      -0.12259388       1.21640034
C       -0.00766272      -1.19568520       0.10374966
H        1.85195780      -0.79019245      -1.17561183
H        2.11863871      -1.09141276       0.56313408
H        1.76601535       1.61125703      -0.54113779
H        1.47463738       1.48526409      -1.59210728
H       -0.37777898       1.87478166      -1.28137078
H       -1.75912916      -0.53916946      -1.39151255
H       -2.00993044       1.13122975       0.98222156
H       -2.26726631      -0.62451506       1.21248877
H        0.20636318      -0.28071057       2.23458173
H       -0.24569801      -2.25060383       0.25443367
17
Frame=7 idx=010894 GeodesicLength=0.625596088060194 rxn_smarts="[C:1]1([H:8])([H:9])[C@@:2]2([H:10])[C:3]([H:11])([H:12])[C@:4]3([H:13])[C:5]([H:14])([H:15])[C@@:6]2([H:16])[C@:7]13[H:17]>>[C:1]1([H:8])([H:9])[C:2]2=[C:3]([H:12])[C@:4]3([H:13])[C:5]([H:14])([H:15])[C@@:6]2([H:16])[C@:7]13[H:17].[H:10][H:11]"
C        1.42287850      -0.70174858      -0.16845958
C        0.80358027       0.67298597       0.21501318
C       -0.15109808       0.92077580      -0.83437424
C       -1.08234785      -0.22242628      -0.59803941
C       -1.59046293       0.13206646       0.82414081
C       -0.14472867      -0.12251168       1.21766748
C       -0.00651905      -1.19305696       0.10187109
H        1.86601676      -0.78877569      -1.15927782
H        2.11700972      -1.09498698       0.57837138
H        1.78996383       1.61488483      -0.58203083
H        1.44373121       1.45854993      -1.62816193
H       -0.38334066       1.89400536      -1.24179118
H       -1.75118992      -0.52802843      -1.39877599
H       -2.01748471       1.12470259       0.98505530
H       -2.26830965      -0.63274470       1.20541136
H        0.19825098      -0.28499159       2.23694561
H       -0.24594974      -2.24870005       0.24643478
17
Frame=8 idx=010894 GeodesicLength=0.7152322946765005 rxn_smarts="[C:1]1([H:8])([H:9])[C@@:2]2([H:10])[C:3]([H:11])([H:12])[C@:4]3([H:13])[C:5]([H:14])([H:15])[C@@:6]2([H:16])[C@:7]13[H:17]>>[C:1]1([H:8])([H:9])[C:2]2=[C:3]([H:12])[C@:4]3([H:13])[C:5]([H:14])([H:15])[C@@:6]2([H:16])[C@:7]13[H:17].[H:10][H:11]"
C        1.42727096      -0.70038216      -0.15628590
C        0.80501851       0.67255235       0.22479575
C       -0.14576566       0.92770597      -0.82793174
C       -1.07942066      -0.21560793      -0.59890122
C       -1.59362747       0.12815794       0.82228797
C       -0.14812702      -0.12269928       1.21923621
C       -0.00526451      -1.19019274       0.09989306
H        1.88011517      -0.78647175      -1.14258035
H        2.11529626      -1.09833662       0.59373053
H        1.81391946       1.61800694      -0.62569778
H        1.41152741       1.43107373      -1.66334129
H       -0.38705410       1.91222094      -1.20289223
H       -1.74305961      -0.51621311      -1.40595997
H       -2.02522284       1.11793162       0.98817638
H       -2.26945733      -0.64122521       1.19805875
H        0.18981764      -0.28991494       2.23954757
H       -0.24596622      -2.24660575       0.23786426
17
Frame=9 idx=010894 GeodesicLength=0.8040779418703716 rxn_smarts="[C:1]1([H:8])([H:9])[C@@:2]2([H:10])[C:3]([H:11])([H:12])[C@:4]3([H:13])[C:5]([H:14])([H:15])[C@@:6]2([H:16])[C@:7]13[H:17]>>[C:1]1([H:8])([H:9])[C:2]2=[C:3]([H:12])[C@:4]3([H:13])[C:5]([H:14])([H:15])[C@@:6]2([H:16])[C@:7]13[H:17].[H:10][H:11]"
C        1.43166531      -0.69858222      -0.14385360
C        0.80627131       0.67228826       0.23533444
C       -0.14039364       0.93513435      -0.82074932
C       -1.07639826      -0.20841652      -0.59958466
C       -1.59690662       0.12415678       0.82054082
C       -0.15172749      -0.12314597       1.22107343
C       -0.00387543      -1.18710079       0.09782966
H        1.89423070      -0.78334558      -1.12554029
H        2.11351796      -1.10146742       0.60918190
H        1.83750638       1.62034211      -0.67230661
H        1.37835163       1.40314749      -1.69736421
H       -0.38901909       1.92947411      -1.16460837
H       -1.73470162      -0.50378727      -1.41303827
H       -2.03315250       1.11097085       0.99155072
H       -2.27070927      -0.64990302       1.19043627
H        0.18105734      -0.29545174       2.24233478
H       -0.24571672      -2.24431343       0.22876331
17
Frame=10 idx=010894 GeodesicLength=0.8930224125040835 rxn_smarts="[C:1]1([H:8])([H:9])[C@@:2]2([H:10])[C:3]([H:11])([H:12])[C@:4]3([H:13])[C:5]([H:14])([H:15])[C@@:6]2([H:16])[C@:7]13[H:17]>>[C:1]1([H:8])([H:9])[C:2]2=[C:3]([H:12])[C@:4]3([H:13])[C:5]([H:14])([H:15])[C@@:6]2([H:16])[C@:7]13[H:17].[H:10][H:11]"
C        1.43609109      -0.69631613      -0.13106794
C        0.80735126       0.67220163       0.24681529
C       -0.13488013       0.94305686      -0.81275300
C       -1.07323874      -0.20080822      -0.60010069
C       -1.60028837       0.12004152       0.81886175
C       -0.15556026      -0.12391937       1.22324900
C       -0.00233236      -1.18377449       0.09568624
H        1.90847090      -0.77926453      -1.10802948
H        2.11167293      -1.10441002       0.62483876
H        1.86091039       1.62189668      -0.72218200
H        1.34377524       1.37444673      -1.73042723
H       -0.38930191       1.94608491      -1.12685220
H       -1.72605638      -0.49064493      -1.42006294
H       -2.04123033       1.10378779       0.99513346
H       -2.27208659      -0.65880993       1.18242975
H        0.17189091      -0.30174065       2.24539628
H       -0.24518765      -2.24182786       0.21906493
17
Frame=11 idx=010894 GeodesicLength=0.9821145437899516 rxn_smarts="[C:1]1([H:8])([H:9])[C@@:2]2([H:10])[C:3]([H:11])([H:12])[C@:4]3([H:13])[C:5]([H:14])([H:15])[C@@:6]2([H:16])[C@:7]13[H:17]>>[C:1]1([H:8])([H:9])[C:2]2=[C:3]([H:12])[C@:4]3([H:13])[C:5]([H:14])([H:15])[C@@:6]2([H:16])[C@:7]13[H:17].[H:10][H:11]"
C        1.44060040      -0.69356872      -0.11786135
C        0.80828044       0.67228586       0.25936198
C       -0.12908221       0.95144814      -0.80389229
C       -1.06985703      -0.19274417      -0.60044593
C       -1.60376325       0.11583660       0.81719545
C       -0.15964864      -0.12505768       1.22578375
C       -0.00057949      -1.18019491       0.09346473
H        1.92292309      -0.77414718      -1.08995339
H        2.10977997      -1.10718603       0.64076119
H        1.88393923       1.62241078      -0.77570021
H        1.30741061       1.34489049      -1.76244928
H       -0.38785697       1.96222436      -1.08946002
H       -1.71700827      -0.47671594      -1.42702978
H       -2.04943753       1.09640309       0.99885464
H       -2.27361336      -0.66789981       1.17391555
H        0.16223572      -0.30887116       2.24874287
H       -0.24432272      -2.23911373       0.20871209
17
Frame=12 idx=010894 GeodesicLength=1.071456729119383 rxn_smarts="[C:1]1([H:8])([H:9])[C@@:2]2([H:10])[C:3]([H:11])([H:12])[C@:4]3([H:13])[C:5]([H:14])([H:15])[C@@:6]2([H:16])[C@:7]13[H:17]>>[C:1]1([H:8])([H:9])[C:2]2=[C:3]([H:12])[C@:4]3([H:13])[C:5]([H:14])([H:15])[C@@:6]2([H:16])[C@:7]13[H:17].[H:10][H:11]"
C        1.44519356      -0.69033481      -0.10420885
C        0.80903695       0.67252589       0.27301230
C       -0.12296346       0.96029524      -0.79418220
C       -1.06623587      -0.18421932      -0.60062365
C       -1.60732591       0.11155033       0.81552488
C       -0.16400558      -0.12658395       1.22868138
C        0.00139556      -1.17636495       0.09117282
H        1.93759694      -0.76794473      -1.07127623
H        2.10783897      -1.10980639       0.65695958
H        1.90657255       1.62182720      -0.83294898
H        1.26931874       1.31446932      -1.79341838
H       -0.38480177       1.97797123      -1.05236714
H       -1.70753921      -0.46199866      -1.43394162
H       -2.05776070       1.08883791       1.00268266
H       -2.27528706      -0.67716361       1.16486268
H        0.15206541      -0.31688595       2.25237059
H       -0.24309913      -2.23617476       0.19770014
17
Frame=13 idx=010894 GeodesicLength=1.1609666560039773 rxn_smarts="[C:1]1([H:8])([H:9])[C@@:2]2([H:10])[C:3]([H:11])([H:12])[C@:4]3([H:13])[C:5]([H:14])([H:15])[C@@:6]2([H:16])[C@:7]13[H:17]>>[C:1]1([H:8])([H:9])[C:2]2=[C:3]([H:12])[C@:4]3([H:13])[C:5]([H:14])([H:15])[C@@:6]2([H:16])[C@:7]13[H:17].[H:10][H:11]"
C        1.44991138      -0.68660381      -0.09005013
C        0.80963139       0.67290473       0.28787941
C       -0.11638553       0.96955846      -0.78360175
C       -1.06230701      -0.17520878      -0.60063281
C       -1.61096731       0.10720540       0.81379974
C       -0.16865135      -0.12853768       1.23195692
C        0.00363677      -1.17227346       0.08881692
H        1.95256368      -0.76056539      -1.05191349
H        2.10586980      -1.11229183       0.67348307
H        1.92853795       1.61985869      -0.89435567
H        1.22925151       1.28326262      -1.82310935
H       -0.38006503       1.99342157      -1.01545868
H       -1.69756528      -0.44644980      -1.44079455
H       -2.06616855       1.08112398       1.00654294
H       -2.27713083      -0.68655202       1.15516375
H        0.14130999      -0.32587055       2.25628384
H       -0.24147157      -2.23298214       0.18598985
17
Frame=14 idx=010894 GeodesicLength=1.2505690747576805 rxn_smarts="[C:1]1([H:8])([H:9])[C@@:2]2([H:10])[C:3]([H:11])([H:12])[C@:4]3([H:13])[C:5]([H:14])([H:15])[C@@:6]2([H:16])[C@:7]13[H:17]>>[C:1]1([H:8])([H:9])[C:2]2=[C:3]([H:12])[C@:4]3([H:13])[C:5]([H:14])([H:15])[C@@:6]2([H:16])[C@:7]13[H:17].[H:10][H:11]"
C        1.45476237      -0.68237165      -0.07535209
C        0.81004735       0.67340407       0.30401744
C       -0.10928267       0.97921709      -0.77216086
C       -1.05803928      -0.16570193      -0.60047273
C       -1.61467690       0.10281733       0.81199090
C       -0.17359925      -0.13094427       1.23561202
C        0.00616549      -1.16791756       0.08640773
H        1.96784644      -0.75193890      -1.03181556
H        2.10387590      -1.11465911       0.69034739
H        1.94966083       1.61632450      -0.96010002
H        1.18726281       1.25136072      -1.85142880
H       -0.37371176       2.00862105      -0.97866440
H       -1.68705283      -0.43005897      -1.44758506
H       -2.07464160       1.07328822       1.01039464
H       -2.27914309      -0.69604001       1.14476700
H        0.12993372      -0.33587595       2.26047179
H       -0.23940752      -2.22952462       0.17357061
17
Frame=15 idx=010894 GeodesicLength=1.3400612909303022 rxn_smarts="[C:1]1([H:8])([H:9])[C@@:2]2([H:10])[C:3]([H:11])([H:12])[C@:4]3([H:13])[C:5]([H:14])([H:15])[C@@:6]2([H:16])[C@:7]13[H:17]>>[C:1]1([H:8])([H:9])[C:2]2=[C:3]([H:12])[C@:4]3([H:13])[C:5]([H:14])([H:15])[C@@:6]2([H:16])[C@:7]13[H:17].[H:10][H:11]"
C        1.45976998      -0.67763357      -0.06006460
C        0.81027698       0.67400166       0.32150465
C       -0.10155514       0.98924037      -0.75985590
C       -1.05338634      -0.15568627      -0.60014266
C       -1.61844909       0.09840289       0.81006400
C       -0.17886820      -0.13383520       1.23965320
C        0.00901113      -1.16329214       0.08395668
H        1.98348986      -0.74198019      -1.01091288
H        2.10187118      -1.11692579       0.70758496
H        1.96962643       1.61092544      -1.03052925
H        1.14337868       1.21896850      -1.87818003
H       -0.36573498       2.02360679      -0.94189937
H       -1.67594533      -0.41280828      -1.45431425
H       -2.08315796       1.06536058       1.01418577
H       -2.28133820      -0.70559408       1.13359920
H        0.11788424      -0.34696549       2.26492512
H       -0.23687326      -2.22578521       0.16042536
17
Frame=16 idx=010894 GeodesicLength=1.429241992984097 rxn_smarts="[C:1]1([H:8])([H:9])[C@@:2]2([H:10])[C:3]([H:11])([H:12])[C@:4]3([H:13])[C:5]([H:14])([H:15])[C@@:6]2([H:16])[C@:7]13[H:17]>>[C:1]1([H:8])([H:9])[C:2]2=[C:3]([H:12])[C@:4]3([H:13])[C:5]([H:14])([H:15])[C@@:6]2([H:16])[C@:7]13[H:17].[H:10][H:11]"
C        1.46494422      -0.67238640      -0.04415213
C        0.81030042       0.67467567       0.34039029
C       -0.09312875       0.99960214      -0.74670025
C       -1.04831647      -0.14515642      -0.59964263
C       -1.62227510       0.09397747       0.80799065
C       -0.18447215      -0.13723512       1.24407698
C        0.01219607      -1.15839612       0.08147364
H        1.99952170      -0.73060157      -0.98914517
H        2.09986374      -1.11910316       0.72521157
H        1.98813201       1.60337509      -1.10587083
H        1.09772713       1.18629908      -1.90320082
H       -0.35616054       2.03840075      -0.90510729
H       -1.66420667      -0.39469363      -1.46097869
H       -2.09169632       1.05737091       1.01787462
H       -2.28371843      -0.71518932       1.12160925
H        0.10512426      -0.35918726       2.26962523
H       -0.23383512      -2.22175210       0.14654558
