19
Frame=0 idx=010054 GeodesicLength=0.0 rxn_smarts="[C:1]([C:2]([C@@:3]1([H:13])[C:4]([H:14])([H:15])[C@:5]1([C:6]([O:7][H:19])([H:17])[H:18])[H:16])([H:11])[H:12])([H:8])([H:9])[H:10]>>[C:1]([H:8])([H:9])([H:10])[H:11].[C:2]([C@@:3]1([H:13])[C:4]([H:14])([H:15])[C@:5]1([C:6]([O:7][H:19])([H:17])[H:18])[H:16])[H:12]"
C       -2.29901460      -0.18869475       1.06898547
C       -0.85914873       1.24356248       0.07275925
C       -0.33770393       0.34310787      -0.95874857
C        1.06931003       0.73374278      -1.40838088
C        0.85637995      -0.54315064      -0.67744975
C        1.40879486      -0.71990882       0.71123256
O        2.77584743      -1.09309903       0.68817178
H       -2.78700632      -0.31374094       0.11053754
H       -2.99251046       0.20002643       1.81265180
H       -1.83591849      -1.11867436       1.39318859
H       -1.38336743       0.59065251       1.13964879
H       -1.72970072       1.79386673      -0.30395469
H       -0.97505373      -0.00667528      -1.76890577
H        1.26307499       0.71321399      -2.47230483
H        1.52517327       1.55625267      -0.87122141
H        0.89190007      -1.44325048      -1.28149939
H        1.25329554       0.19367355       1.29327451
H        0.89390425      -1.53658337       1.22194199
H        3.26174394      -0.40432126       0.23007308
19
Frame=1 idx=010054 GeodesicLength=0.05344914539688673 rxn_smarts="[C:1]([C:2]([C@@:3]1([H:13])[C:4]([H:14])([H:15])[C@:5]1([C:6]([O:7][H:19])([H:17])[H:18])[H:16])([H:11])[H:12])([H:8])([H:9])[H:10]>>[C:1]([H:8])([H:9])([H:10])[H:11].[C:2]([C@@:3]1([H:13])[C:4]([H:14])([H:15])[C@:5]1([C:6]([O:7][H:19])([H:17])[H:18])[H:16])[H:12]"
C       -2.29465826      -0.18517782       1.07601477
C       -0.87059329       1.23578407       0.06326384
C       -0.33686374       0.34337843      -0.96744648
C        1.07233477       0.73860747      -1.40781821
C        0.85893625      -0.54115857      -0.68317454
C        1.40437273      -0.72284679       0.70763392
O        2.77086495      -1.09814604       0.68913962
H       -2.78484420      -0.33629652       0.12174406
H       -2.99720154       0.20956894       1.80820908
H       -1.83803646      -1.11284721       1.41650508
H       -1.36705650       0.59866379       1.16157782
H       -1.73462931       1.79242558      -0.31878230
H       -0.96945615      -0.00679971      -1.78103785
H        1.27148164       0.72267723      -2.47083390
H        1.52288055       1.56051749      -0.86523111
H        0.89846881      -1.43898199      -1.29036634
H        1.24850711       0.18935556       1.29175061
H        0.88557525      -1.53996477       1.21352791
H        3.25991740      -0.40875914       0.23532403
19
Frame=2 idx=010054 GeodesicLength=0.10688997363939187 rxn_smarts="[C:1]([C:2]([C@@:3]1([H:13])[C:4]([H:14])([H:15])[C@:5]1([C:6]([O:7][H:19])([H:17])[H:18])[H:16])([H:11])[H:12])([H:8])([H:9])[H:10]>>[C:1]([H:8])([H:9])([H:10])[H:11].[C:2]([C@@:3]1([H:13])[C:4]([H:14])([H:15])[C@:5]1([C:6]([O:7][H:19])([H:17])[H:18])[H:16])[H:12]"
C       -2.29018835      -0.18168414       1.08308674
C       -0.88232241       1.22753033       0.05368943
C       -0.33604829       0.34360712      -0.97631654
C        1.07530535       0.74363102      -1.40706792
C        0.86149019      -0.53916376      -0.68900586
C        1.39979385      -0.72603423       0.70391912
O        2.76573764      -1.10334588       0.69006990
H       -2.78230050      -0.35967231       0.13371505
H       -3.00162145       0.21929099       1.80351627
H       -1.83968163      -1.10620297       1.44074710
H       -1.35101272       0.60744987       1.18266128
H       -1.73938157       1.79093709      -0.33388891
H       -0.96371464      -0.00688394      -1.79347991
H        1.27997931       0.73254398      -2.46911206
H        1.52029339       1.56486841      -0.85883177
H        0.90522673      -1.43457755      -1.29949393
H        1.24341064       0.18465590       1.29028876
H        0.87711173      -1.54372082       1.20475481
H        3.25792274      -0.41322912       0.24074844
19
Frame=3 idx=010054 GeodesicLength=0.16027141668584763 rxn_smarts="[C:1]([C:2]([C@@:3]1([H:13])[C:4]([H:14])([H:15])[C@:5]1([C:6]([O:7][H:19])([H:17])[H:18])[H:16])([H:11])[H:12])([H:8])([H:9])[H:10]>>[C:1]([H:8])([H:9])([H:10])[H:11].[C:2]([C@@:3]1([H:13])[C:4]([H:14])([H:15])[C@:5]1([C:6]([O:7][H:19])([H:17])[H:18])[H:16])[H:12]"
C       -2.28568436      -0.17824690       1.09011510
C       -0.89427452       1.21875813       0.04409216
C       -0.33523546       0.34378530      -0.98527240
C        1.07822748       0.74874089      -1.40611239
C        0.86404686      -0.53715011      -0.69488186
C        1.39510032      -0.72938754       0.70007573
O        2.76048973      -1.10863140       0.69089414
H       -2.77945752      -0.38363792       0.14641935
H       -3.00581405       0.22902703       1.79855832
H       -1.84097869      -1.09881332       1.46560700
H       -1.33526488       0.61698276       1.20292050
H       -1.74385186       1.78938995      -0.34912326
H       -0.95783144      -0.00694032      -1.80607074
H        1.28854126       0.74268453      -2.46708882
H        1.51743438       1.56922113      -0.85209219
H        0.91213583      -1.43001767      -1.30874818
H        1.23808858       0.17965390       1.28881526
H        0.86854426      -1.54768555       1.19567286
H        3.25578406      -0.41773290       0.24621941
19
Frame=4 idx=010054 GeodesicLength=0.21367186326918164 rxn_smarts="[C:1]([C:2]([C@@:3]1([H:13])[C:4]([H:14])([H:15])[C@:5]1([C:6]([O:7][H:19])([H:17])[H:18])[H:16])([H:11])[H:12])([H:8])([H:9])[H:10]>>[C:1]([H:8])([H:9])([H:10])[H:11].[C:2]([C@@:3]1([H:13])[C:4]([H:14])([H:15])[C@:5]1([C:6]([O:7][H:19])([H:17])[H:18])[H:16])[H:12]"
C       -2.28115975      -0.17490729       1.09709324
C       -0.90644236       1.20953274       0.03446978
C       -0.33444412       0.34392951      -0.99435363
C        1.08107075       0.75395982      -1.40501151
C        0.86660560      -0.53514824      -0.70080586
C        1.39033615      -0.73292223       0.69617396
O        2.75517325      -1.11404831       0.69169519
H       -2.77635618      -0.40806210       0.15982718
H       -3.00977647       0.23868379       1.79340455
H       -1.84193787      -1.09077485       1.49095690
H       -1.31981054       0.62728136       1.22238043
H       -1.74804315       1.78789570      -0.36445895
H       -0.95185031      -0.00698075      -1.81888598
H        1.29710417       0.75309962      -2.46487325
H        1.51428589       1.57364889      -0.84506035
H        0.91917948      -1.42539360      -1.31814273
H        1.23259781       0.17439718       1.28741100
H        0.85992758      -1.55190044       1.18639240
H        3.25354007      -0.42229082       0.25178763
19
Frame=5 idx=010054 GeodesicLength=0.26692634970688134 rxn_smarts="[C:1]([C:2]([C@@:3]1([H:13])[C:4]([H:14])([H:15])[C@:5]1([C:6]([O:7][H:19])([H:17])[H:18])[H:16])([H:11])[H:12])([H:8])([H:9])[H:10]>>[C:1]([H:8])([H:9])([H:10])[H:11].[C:2]([C@@:3]1([H:13])[C:4]([H:14])([H:15])[C@:5]1([C:6]([O:7][H:19])([H:17])[H:18])[H:16])[H:12]"
C       -2.27664856      -0.17168106       1.10398234
C       -0.91878720       1.19978681       0.02483542
C       -0.33365146       0.34401894      -1.00349183
C        1.08385259       0.75922362      -1.40372358
C        0.86916788      -0.53313108      -0.70673835
C        1.38549339      -0.73657575       0.69216791
O        2.74976674      -1.11952154       0.69239821
H       -2.77302870      -0.43279182       0.17397802
H       -3.01353751       0.24816300       1.78804155
H       -1.84261070      -1.08206775       1.51661901
H       -1.30464774       0.63831004       1.24097686
H       -1.75188276       1.78637788      -0.37977695
H       -0.94574744      -0.00701242      -1.83178884
H        1.30568384       0.76370378      -2.46237201
H        1.51087178       1.57804422      -0.83775692
H        0.92634540      -1.42063872      -1.32758316
H        1.22694258       0.16890912       1.28598135
H        0.85124027      -1.55623845       1.17687800
H        3.25117759      -0.42687881       0.25737298
19
Frame=6 idx=010054 GeodesicLength=0.32004949798973414 rxn_smarts="[C:1]([C:2]([C@@:3]1([H:13])[C:4]([H:14])([H:15])[C@:5]1([C:6]([O:7][H:19])([H:17])[H:18])[H:16])([H:11])[H:12])([H:8])([H:9])[H:10]>>[C:1]([H:8])([H:9])([H:10])[H:11].[C:2]([C@@:3]1([H:13])[C:4]([H:14])([H:15])[C@:5]1([C:6]([O:7][H:19])([H:17])[H:18])[H:16])[H:12]"
C       -2.27219728      -0.16861056       1.11075158
C       -0.93128056       1.18958644       0.01523163
C       -0.33287526       0.34406644      -1.01269335
C        1.08653541       0.76453830      -1.40232652
C        0.87173863      -0.53113356      -0.71265706
C        1.38066082      -0.74032604       0.68815233
O        2.74436332      -1.12506524       0.69307980
H       -2.76960681      -0.45758141       0.18871934
H       -3.01707368       0.25738807       1.78258040
H       -1.84313188      -1.07290232       1.54231908
H       -1.28978714       0.64993573       1.25879641
H       -1.75531294       1.78500634      -0.39500859
H       -0.93958819      -0.00706958      -1.84480407
H        1.31418184       0.77444619      -2.45972489
H        1.50717893       1.58248685      -0.83028026
H        0.93359596      -1.41587438      -1.33703377
H        1.22124549       0.16329668       1.28461224
H        0.84258473      -1.56068283       1.16731479
H        3.24876861      -0.43150511       0.26297091
19
Frame=7 idx=010054 GeodesicLength=0.37315087282072906 rxn_smarts="[C:1]([C:2]([C@@:3]1([H:13])[C:4]([H:14])([H:15])[C@:5]1([C:6]([O:7][H:19])([H:17])[H:18])[H:16])([H:11])[H:12])([H:8])([H:9])[H:10]>>[C:1]([H:8])([H:9])([H:10])[H:11].[C:2]([C@@:3]1([H:13])[C:4]([H:14])([H:15])[C@:5]1([C:6]([O:7][H:19])([H:17])[H:18])[H:16])[H:12]"
C       -2.26775944      -0.16566818       1.11742033
C       -0.94394737       1.17887320       0.00558465
C       -0.33209605       0.34406721      -1.02194175
C        1.08914926       0.76988335      -1.40073453
C        0.87431206      -0.52912115      -0.71858224
C        1.37573960      -0.74419850       0.68402104
O        2.73885930      -1.13068091       0.69365564
H       -2.76587988      -0.48270171       0.20423310
H       -3.02048727       0.26634547       1.77684882
H       -1.84330442      -1.06301767       1.56830597
H       -1.27521395       0.66244016       1.27579148
H       -1.75838179       1.78360590      -0.41015376
H       -0.93330028      -0.00709519      -1.85789087
H        1.32268502       0.78536351      -2.45677175
H        1.50321040       1.58687253      -0.82253706
H        0.94097408      -1.41097148      -1.34652637
H        1.21535977       0.15743998       1.28320592
H        0.83384984      -1.56524594       1.15749598
H        3.24623112      -0.43619061       0.26857539
19
Frame=8 idx=010054 GeodesicLength=0.4262894858858772 rxn_smarts="[C:1]([C:2]([C@@:3]1([H:13])[C:4]([H:14])([H:15])[C@:5]1([C:6]([O:7][H:19])([H:17])[H:18])[H:16])([H:11])[H:12])([H:8])([H:9])[H:10]>>[C:1]([H:8])([H:9])([H:10])[H:11].[C:2]([C@@:3]1([H:13])[C:4]([H:14])([H:15])[C@:5]1([C:6]([O:7][H:19])([H:17])[H:18])[H:16])[H:12]"
C       -2.26333242      -0.16290210       1.12400991
C       -0.95677819       1.16771615      -0.00411988
C       -0.33133381       0.34403957      -1.03129293
C        1.09166822       0.77529588      -1.39902401
C        0.87687987      -0.52712551      -0.72452359
C        1.37076334      -0.74820756       0.67985867
O        2.73329409      -1.13640261       0.69422908
H       -2.76191311      -0.50802782       0.22043968
H       -3.02373572       0.27498822       1.77097127
H       -1.84316307      -1.05256925       1.59447369
H       -1.26090593       0.67576053       1.29198841
H       -1.76106256       1.78232414      -0.42520364
H       -0.92693055      -0.00710621      -1.87115581
H        1.33113661       0.79646957      -2.45365116
H        1.49895814       1.59129711      -0.81458498
H        0.94844806      -1.40603338      -1.35608136
H        1.20933623       0.15139739       1.28185859
H        0.82507495      -1.56997996       1.14755402
H        3.24359584      -0.44093416       0.27425403
19
Frame=9 idx=010054 GeodesicLength=0.47918603545540805 rxn_smarts="[C:1]([C:2]([C@@:3]1([H:13])[C:4]([H:14])([H:15])[C@:5]1([C:6]([O:7][H:19])([H:17])[H:18])[H:16])([H:11])[H:12])([H:8])([H:9])[H:10]>>[C:1]([H:8])([H:9])([H:10])[H:11].[C:2]([C@@:3]1([H:13])[C:4]([H:14])([H:15])[C@:5]1([C:6]([O:7][H:19])([H:17])[H:18])[H:16])[H:12]"
C       -2.25894170      -0.16030913       1.13048456
C       -0.96974965       1.15603724      -0.01385919
C       -0.33057087       0.34395362      -1.04066949
C        1.09410203       0.78070249      -1.39714985
C        0.87944947      -0.52512245      -0.73043737
C        1.36573370      -0.75228500       0.67561998
O        2.72766251      -1.14214023       0.69472334
H       -2.75776572      -0.53335100       0.23735143
H       -3.02681570       0.28325376       1.76496593
H       -1.84278668      -1.04154891       1.62059530
H       -1.24686297       0.68977732       1.30729992
H       -1.76328439       1.78108771      -0.44002387
H       -0.92045659      -0.00711913      -1.88445024
H        1.33954541       0.80766524      -2.45026535
H        1.49442956       1.59564557      -0.80644297
H        0.95601865      -1.40099642      -1.36559885
H        1.20317684       0.14519581       1.28047487
H        0.81625955      -1.57475144       1.13745610
H        3.24085653      -0.44569504       0.27992574
19
Frame=10 idx=010054 GeodesicLength=0.5321655303719168 rxn_smarts="[C:1]([C:2]([C@@:3]1([H:13])[C:4]([H:14])([H:15])[C@:5]1([C:6]([O:7][H:19])([H:17])[H:18])[H:16])([H:11])[H:12])([H:8])([H:9])[H:10]>>[C:1]([H:8])([H:9])([H:10])[H:11].[C:2]([C@@:3]1([H:13])[C:4]([H:14])([H:15])[C@:5]1([C:6]([O:7][H:19])([H:17])[H:18])[H:16])[H:12]"
C       -2.25446265      -0.15789764       1.13692644
C       -0.98292351       1.14390244      -0.02375598
C       -0.32982670       0.34385338      -1.05018219
C        1.09644658       0.78618423      -1.39511926
C        0.88199077      -0.52312363      -0.73639394
C        1.36055005      -0.75653744       0.67130801
O        2.72186940      -1.14801346       0.69521939
H       -2.75316106      -0.55904278       0.25509632
H       -3.02975426       0.29113584       1.75875250
H       -1.84187696      -1.02978514       1.64703735
H       -1.23305657       0.70482238       1.32173998
H       -1.76515823       1.77990357      -0.45474453
H       -0.91385806      -0.00706582      -1.89797478
H        1.34795667       0.81909529      -2.44663975
H        1.48959733       1.59999588      -0.79802479
H        0.96369588      -1.39586824      -1.37522408
H        1.19673808       0.13872668       1.27912502
H        0.80729641      -1.57974627       1.12712080
H        3.23793684      -0.45053925       0.28573350
19
Frame=11 idx=010054 GeodesicLength=0.5850377930421439 rxn_smarts="[C:1]([C:2]([C@@:3]1([H:13])[C:4]([H:14])([H:15])[C@:5]1([C:6]([O:7][H:19])([H:17])[H:18])[H:16])([H:11])[H:12])([H:8])([H:9])[H:10]>>[C:1]([H:8])([H:9])([H:10])[H:11].[C:2]([C@@:3]1([H:13])[C:4]([H:14])([H:15])[C@:5]1([C:6]([O:7][H:19])([H:17])[H:18])[H:16])[H:12]"
C       -2.25001232      -0.15568435       1.14325559
C       -0.99623973       1.13126741      -0.03371592
C       -0.32909284       0.34370374      -1.05973988
C        1.09868357       0.79167042      -1.39295136
C        0.88452745      -0.52113561      -0.74232748
C        1.35531822      -0.76087422       0.66695076
O        2.71601943      -1.15392364       0.69568093
H       -2.74835455      -0.58470960       0.27352623
H       -3.03253816       0.29857786       1.75243768
H       -1.84070586      -1.01749171       1.67337118
H       -1.21949891       0.72064673       1.33530104
H       -1.76652516       1.77884290      -0.46917606
H       -0.90717192      -0.00701055      -1.91157148
H        1.35628669       0.83061946      -2.44279531
H        1.48446496       1.60430324      -0.78943856
H        0.97145987      -1.39068643      -1.38482313
H        1.19015692       0.13210650       1.27777940
H        0.79830890      -1.58481665       1.11666944
H        3.23491342      -0.45540547       0.29156692
19
Frame=12 idx=010054 GeodesicLength=0.6379286597873591 rxn_smarts="[C:1]([C:2]([C@@:3]1([H:13])[C:4]([H:14])([H:15])[C@:5]1([C:6]([O:7][H:19])([H:17])[H:18])[H:16])([H:11])[H:12])([H:8])([H:9])[H:10]>>[C:1]([H:8])([H:9])([H:10])[H:11].[C:2]([C@@:3]1([H:13])[C:4]([H:14])([H:15])[C@:5]1([C:6]([O:7][H:19])([H:17])[H:18])[H:16])[H:12]"
C       -2.24544498      -0.15365868       1.14956447
C       -1.00976574       1.11814245      -0.04387547
C       -0.32837764       0.34353026      -1.06942823
C        1.10082506       0.79721102      -1.39060988
C        0.88703098      -0.51915005      -0.74829936
C        1.34990413      -0.76538851       0.66250361
O        2.70998489      -1.15994327       0.69614254
H       -2.74303593      -0.61067850       0.29284058
H       -3.03517639       0.30556903       1.74593998
H       -1.83897221      -1.00440910       1.69994738
H       -1.20616336       0.73753504       1.34789730
H       -1.76749638       1.77782650      -0.48342354
H       -0.90034618      -0.00688126      -1.92538551
H        1.36461880       0.84236443      -2.43867298
H        1.47901017       1.60857124      -0.78057067
H        0.97933936      -1.38539284      -1.39451390
H        1.18323246       0.12519157       1.27644633
H        0.78915357      -1.59011493       1.10593906
H        3.23167937      -0.46032440       0.29755828
19
Frame=13 idx=010054 GeodesicLength=0.6908571346948724 rxn_smarts="[C:1]([C:2]([C@@:3]1([H:13])[C:4]([H:14])([H:15])[C@:5]1([C:6]([O:7][H:19])([H:17])[H:18])[H:16])([H:11])[H:12])([H:8])([H:9])[H:10]>>[C:1]([H:8])([H:9])([H:10])[H:11].[C:2]([C@@:3]1([H:13])[C:4]([H:14])([H:15])[C@:5]1([C:6]([O:7][H:19])([H:17])[H:18])[H:16])[H:12]"
C       -2.24057447      -0.15179923       1.15595467
C       -1.02357737       1.10452912      -0.05437506
C       -0.32769047       0.34336082      -1.07933497
C        1.10287566       0.80285792      -1.38804638
C        0.88946785      -0.51715624      -0.75436934
C        1.34415883      -0.77017747       0.65792069
O        2.70361576      -1.16615533       0.69664302
H       -2.73680455      -0.63724955       0.31326201
H       -3.03764439       0.31207233       1.73918246
H       -1.83635243      -0.99023240       1.72708865
H       -1.19305617       0.75576715       1.35941055
H       -1.76821066       1.77675078      -0.49760999
H       -0.89332185      -0.00660266      -1.93956635
H        1.37303116       0.85446353      -2.43419655
H        1.47319613       1.61279948      -0.77129038
H        0.98736276      -1.37992246      -1.40441350
H        1.17574621       0.11783033       1.27513449
H        0.77967154      -1.59579331       1.09475772
H        3.22810645      -0.46534280       0.30384828
19
Frame=14 idx=010054 GeodesicLength=0.7437852743509905 rxn_smarts="[C:1]([C:2]([C@@:3]1([H:13])[C:4]([H:14])([H:15])[C@:5]1([C:6]([O:7][H:19])([H:17])[H:18])[H:16])([H:11])[H:12])([H:8])([H:9])[H:10]>>[C:1]([H:8])([H:9])([H:10])[H:11].[C:2]([C@@:3]1([H:13])[C:4]([H:14])([H:15])[C@:5]1([C:6]([O:7][H:19])([H:17])[H:18])[H:16])[H:12]"
C       -2.23552506      -0.15013848       1.16233162
C       -1.03761783       1.09039587      -0.06511592
C       -0.32702653       0.34316894      -1.08937606
C        1.10481213       0.80854628      -1.38529095
C        0.89185775      -0.51516573      -0.76047213
C        1.33819119      -0.77515124       0.65324223
O        2.69702096      -1.17246963       0.69715924
H       -2.72995848      -0.66404197       0.33463831
H       -3.03992354       0.31801689       1.73228349
H       -1.83309903      -0.97522284       1.75435124
H       -1.18016996       0.77514404       1.36983257
H       -1.76848850       1.77571779      -0.51153480
H       -0.88614286      -0.00623745      -1.95396772
H        1.38143769       0.86677100      -2.42940574
H        1.46702155       1.61696003      -0.76171354
H        0.99550327      -1.37433179      -1.41438959
H        1.16784064       0.11015279       1.27382705
H        0.76999223      -1.60170962       1.08326872
H        3.22427437      -0.47040489       0.31033197
19
Frame=15 idx=010054 GeodesicLength=0.7968236627745667 rxn_smarts="[C:1]([C:2]([C@@:3]1([H:13])[C:4]([H:14])([H:15])[C@:5]1([C:6]([O:7][H:19])([H:17])[H:18])[H:16])([H:11])[H:12])([H:8])([H:9])[H:10]>>[C:1]([H:8])([H:9])([H:10])[H:11].[C:2]([C@@:3]1([H:13])[C:4]([H:14])([H:15])[C@:5]1([C:6]([O:7][H:19])([H:17])[H:18])[H:16])[H:12]"
C       -2.23004699      -0.14864913       1.16882703
C       -1.05199343       1.07575341      -0.07628937
C       -0.32640325       0.34299787      -1.09968044
C        1.10664184       0.81435093      -1.38228273
C        0.89415271      -0.51317089      -0.76668915
C        1.33180327      -0.78045293       0.64841329
O        2.69000919      -1.17900458       0.69775442
H       -2.72198322      -0.69145711       0.35727539
H       -3.04196544       0.32334281       1.72516011
H       -1.82876312      -0.95898242       1.78216445
H       -1.16750634       0.79605913       1.37899390
H       -1.76852580       1.77460746      -0.52538691
H       -0.87874082      -0.00567457      -1.96880960
H        1.38994610       0.87946972      -2.42420583
H        1.46043729       1.62106393      -0.75166297
H        1.00379332      -1.36854740      -1.42460215
H        1.15922103       0.10194585       1.27254785
H        0.75990778      -1.60809249       1.07124438
H        3.22001589      -0.47555960       0.31722832
19
Frame=16 idx=010054 GeodesicLength=0.8500394291884751 rxn_smarts="[C:1]([C:2]([C@@:3]1([H:13])[C:4]([H:14])([H:15])[C@:5]1([C:6]([O:7][H:19])([H:17])[H:18])[H:16])([H:11])[H:12])([H:8])([H:9])[H:10]>>[C:1]([H:8])([H:9])([H:10])[H:11].[C:2]([C@@:3]1([H:13])[C:4]([H:14])([H:15])[C@:5]1([C:6]([O:7][H:19])([H:17])[H:18])[H:16])[H:12]"
C       -2.22384387      -0.14729161       1.17557847
C       -1.06681023       1.06058575      -0.08809222
C       -0.32582379       0.34289213      -1.11035858
C        1.10837972       0.82033444      -1.37892246
C        0.89630056      -0.51114778      -0.77309502
C        1.32475408      -0.78622154       0.64334801
O        2.68233233      -1.18587290       0.69846359
H       -2.71224156      -0.71986994       0.38155613
H       -3.04369339       0.32792581       1.71771941
H       -1.82285876      -0.94102830       1.81092811
H       -1.15509669       0.81895866       1.38665566
H       -1.76855184       1.77320310      -0.53936971
H       -0.87101130      -0.00478939      -1.98427241
H        1.39869059       0.89273970      -2.41843370
H        1.45338827       1.62508067      -0.74093067
H        1.01227574      -1.36244950      -1.43519471
H        1.14953823       0.09297158       1.27128227
H        0.74915732      -1.61514519       1.05840292
H        3.21511459      -0.48087567       0.32473492
