15
Frame=0 idx=006552 GeodesicLength=0.0 rxn_smarts="[C:1]([N:2]([C@@:3]([C:4]([O:5][H:15])([H:13])[H:14])([C:6]#[N:7])[H:12])[H:11])([H:8])([H:9])[H:10]>>[C:1]1([H:8])([H:9])[N:2]([H:11])[C@:3]([C:4]([O:5][H:15])([H:13])[H:14])([H:12])[C:6][N:7]1[H:10]"
C       -1.70514607       0.29457989       0.80087488
N       -0.37272235       0.03347946       0.79194058
C        0.34866784       0.22939434      -0.39497843
C        1.79250452      -0.20031017      -0.31258104
O        2.60057298       0.69814190       0.41762709
C       -0.49207036      -0.54494689      -1.58048812
N       -1.67317654      -0.67286581      -1.36134896
H       -2.27329325      -0.14404479       1.61125768
H       -2.00950367       1.27649373       0.45814359
H       -2.60141542      -0.79214655      -1.01501832
H       -0.12829843      -0.82901726       1.26035915
H        0.27067870       1.26498516      -0.73491623
H        2.19957667      -0.24329630      -1.32130424
H        1.84950082      -1.21666430       0.10657044
H        2.19412451       0.84621759       1.27386187
15
Frame=1 idx=006552 GeodesicLength=0.12796785175924827 rxn_smarts="[C:1]([N:2]([C@@:3]([C:4]([O:5][H:15])([H:13])[H:14])([C:6]#[N:7])[H:12])[H:11])([H:8])([H:9])[H:10]>>[C:1]1([H:8])([H:9])[N:2]([H:11])[C@:3]([C:4]([O:5][H:15])([H:13])[H:14])([H:12])[C:6][N:7]1[H:10]"
C       -1.71028049       0.28147580       0.78157747
N       -0.36773054       0.04414771       0.79336977
C        0.35089857       0.22346927      -0.40231213
C        1.79623039      -0.20265747      -0.31445459
O        2.59591588       0.70017551       0.41880220
C       -0.48222087      -0.56271912      -1.57155470
N       -1.66415782      -0.69372447      -1.35616862
H       -2.28132548      -0.18324953       1.57611479
H       -2.01560441       1.27724467       0.48114082
H       -2.61440512      -0.71785548      -0.97848438
H       -0.12110177      -0.81481087       1.26753099
H        0.27407599       1.25700459      -0.74966755
H        2.20850596      -0.24652134      -1.32111490
H        1.85422656      -1.21783644       0.10735686
H        2.17697313       0.85585715       1.26786394
15
Frame=2 idx=006552 GeodesicLength=0.25605270673082714 rxn_smarts="[C:1]([N:2]([C@@:3]([C:4]([O:5][H:15])([H:13])[H:14])([C:6]#[N:7])[H:12])[H:11])([H:8])([H:9])[H:10]>>[C:1]1([H:8])([H:9])[N:2]([H:11])[C@:3]([C:4]([O:5][H:15])([H:13])[H:14])([H:12])[C:6][N:7]1[H:10]"
C       -1.71500344       0.26937941       0.76351439
N       -0.36312346       0.05521852       0.79494528
C        0.35261992       0.21744037      -0.40938932
C        1.79938727      -0.20522840      -0.31631321
O        2.59099316       0.70217682       0.41929018
C       -0.47334156      -0.58054532      -1.56193131
N       -1.65596703      -0.71532662      -1.34922390
H       -2.28761342      -0.22178434       1.54177143
H       -2.02267622       1.27695550       0.50663327
H       -2.62281305      -0.64316729      -0.94846288
H       -0.11437747      -0.80005910       1.27502891
H        0.27697403       1.24874025      -0.76449952
H        2.21654310      -0.25042277      -1.32098932
H        1.85836014      -1.21905043       0.10856197
H        2.16003804       0.86567340       1.26106400
15
Frame=3 idx=006552 GeodesicLength=0.38438174444848283 rxn_smarts="[C:1]([N:2]([C@@:3]([C:4]([O:5][H:15])([H:13])[H:14])([C:6]#[N:7])[H:12])[H:11])([H:8])([H:9])[H:10]>>[C:1]1([H:8])([H:9])[N:2]([H:11])[C@:3]([C:4]([O:5][H:15])([H:13])[H:14])([H:12])[C:6][N:7]1[H:10]"
C       -1.71945029       0.25834362       0.74643920
N       -0.35892251       0.06668177       0.79652645
C        0.35391321       0.21134189      -0.41628915
C        1.80208300      -0.20803209      -0.31813172
O        2.58585424       0.70409939       0.41920524
C       -0.46525860      -0.59842934      -1.55170715
N       -1.64868979      -0.73644060      -1.34123534
H       -2.29239339      -0.25962504       1.50782051
H       -2.03068106       1.27571020       0.53466327
H       -2.62691884      -0.56931153      -0.92336440
H       -0.10821409      -0.78484406       1.28265502
H        0.27949257       1.24023919      -0.77947136
H        2.22389042      -0.25497421      -1.32088303
H        1.86200343      -1.22032902       0.11019884
H        2.14329170       0.87556983       1.25357361
15
Frame=4 idx=006552 GeodesicLength=0.5127394867603615 rxn_smarts="[C:1]([N:2]([C@@:3]([C:4]([O:5][H:15])([H:13])[H:14])([C:6]#[N:7])[H:12])[H:11])([H:8])([H:9])[H:10]>>[C:1]1([H:8])([H:9])[N:2]([H:11])[C@:3]([C:4]([O:5][H:15])([H:13])[H:14])([H:12])[C:6][N:7]1[H:10]"
C       -1.72361948       0.24848670       0.73008702
N       -0.35510849       0.07856687       0.79794167
C        0.35489571       0.20531811      -0.42306366
C        1.80432723      -0.21104980      -0.31988386
O        2.58055841       0.70579318       0.41881345
C       -0.45784875      -0.61601871      -1.54110339
N       -1.64226866      -0.75622284      -1.33291248
H       -2.29575190      -0.29643536       1.47403888
H       -2.03945222       1.27346126       0.56479333
H       -2.62724847      -0.49795204      -0.90136093
H       -0.10277270      -0.76923911       1.29008696
H        0.28194609       1.23170448      -0.79444568
H        2.23064676      -0.26004213      -1.32071906
H        1.86497433      -1.22172329       0.11210974
H        2.12672216       0.88535267       1.24561802
15
Frame=5 idx=006552 GeodesicLength=0.6411742110340777 rxn_smarts="[C:1]([N:2]([C@@:3]([C:4]([O:5][H:15])([H:13])[H:14])([C:6]#[N:7])[H:12])[H:11])([H:8])([H:9])[H:10]>>[C:1]1([H:8])([H:9])[N:2]([H:11])[C@:3]([C:4]([O:5][H:15])([H:13])[H:14])([H:12])[C:6][N:7]1[H:10]"
C       -1.72751070       0.23972135       0.71429902
N       -0.35162836       0.09082873       0.79912434
C        0.35562358       0.19936188      -0.42972893
C        1.80616520      -0.21424881      -0.32154823
O        2.57506125       0.70729874       0.41818131
C       -0.45096010      -0.63329778      -1.53016747
N       -1.63645854      -0.77487858      -1.32437447
H       -2.29772301      -0.33218806       1.44023802
H       -2.04893102       1.26998908       0.59681491
H       -2.62451419      -0.42867382      -0.88175466
H       -0.09798196      -0.75329197       1.29724168
H        0.28435055       1.22312730      -0.80940679
H        2.23688786      -0.26555919      -1.32044454
H        1.86735514      -1.22320708       0.11427399
H        2.11026428       0.89501820       1.23725184
15
Frame=6 idx=006552 GeodesicLength=0.769714847738757 rxn_smarts="[C:1]([N:2]([C@@:3]([C:4]([O:5][H:15])([H:13])[H:14])([C:6]#[N:7])[H:12])[H:11])([H:8])([H:9])[H:10]>>[C:1]1([H:8])([H:9])[N:2]([H:11])[C@:3]([C:4]([O:5][H:15])([H:13])[H:14])([H:12])[C:6][N:7]1[H:10]"
C       -1.73123631       0.23199842       0.69896700
N       -0.34846284       0.10344078       0.80006317
C        0.35617127       0.19351710      -0.43631673
C        1.80774348      -0.21759231      -0.32312510
O        2.56952159       0.70860284       0.41739473
C       -0.44451295      -0.65009696      -1.51905359
N       -1.63117498      -0.79264679      -1.31571766
H       -2.29850423      -0.36674420       1.40638027
H       -2.05916643       1.26509723       0.63042721
H       -2.61948080      -0.36138650      -0.86395457
H       -0.09380904      -0.73704700       1.30412261
H        0.28677522       1.21456795      -0.82436664
H        2.24280897      -0.27142431      -1.32008409
H        1.86928750      -1.22476909       0.11666458
H        2.09403955       0.90448283       1.22859883
15
Frame=7 idx=006552 GeodesicLength=0.898317333236359 rxn_smarts="[C:1]([N:2]([C@@:3]([C:4]([O:5][H:15])([H:13])[H:14])([C:6]#[N:7])[H:12])[H:11])([H:8])([H:9])[H:10]>>[C:1]1([H:8])([H:9])[N:2]([H:11])[C@:3]([C:4]([O:5][H:15])([H:13])[H:14])([H:12])[C:6][N:7]1[H:10]"
C       -1.73480352       0.22526697       0.68398994
N       -0.34557882       0.11638611       0.80072571
C        0.35658046       0.18781739      -0.44283286
C        1.80908330      -0.22105921      -0.32461112
O        2.56394231       0.70969106       0.41651519
C       -0.43842749      -0.66628653      -1.50785016
N       -1.62623958      -0.80981785      -1.30693201
H       -2.29816803      -0.40001241       1.37239982
H       -2.07008246       1.25860428       0.66535592
H       -2.61260654      -0.29587167      -0.84747577
H       -0.09022180      -0.72053505       1.31067645
H        0.28927004       1.20608075      -0.83927586
H        2.24845384      -0.27757711      -1.31961717
H        1.87077235      -1.22641522       0.11922588
H        2.07802593       0.91372849       1.21970605
15
Frame=8 idx=006552 GeodesicLength=1.0269706862641959 rxn_smarts="[C:1]([N:2]([C@@:3]([C:4]([O:5][H:15])([H:13])[H:14])([C:6]#[N:7])[H:12])[H:11])([H:8])([H:9])[H:10]>>[C:1]1([H:8])([H:9])[N:2]([H:11])[C@:3]([C:4]([O:5][H:15])([H:13])[H:14])([H:12])[C:6][N:7]1[H:10]"
C       -1.73823988       0.21947506       0.66928868
N       -0.34295225       0.12964329       0.80109624
C        0.35688535       0.18229081      -0.44928687
C        1.81022110      -0.22462732      -0.32600818
O        2.55835158       0.71055580       0.41559356
C       -0.43264807      -0.68175717      -1.49665001
N       -1.62151685      -0.82668827      -1.29797576
H       -2.29682038      -0.43189980       1.33828212
H       -2.08161356       1.25034513       0.70133523
H       -2.60429175      -0.23188954      -0.83194260
H       -0.08719098      -0.70378964       1.31687771
H        0.29187012       1.19771120      -0.85410534
H        2.25388078      -0.28395797      -1.31904045
H        1.87183390      -1.22814682       0.12191234
H        2.06223090       0.92273525       1.21062332
15
Frame=9 idx=006552 GeodesicLength=1.1556573448494796 rxn_smarts="[C:1]([N:2]([C@@:3]([C:4]([O:5][H:15])([H:13])[H:14])([C:6]#[N:7])[H:12])[H:11])([H:8])([H:9])[H:10]>>[C:1]1([H:8])([H:9])[N:2]([H:11])[C@:3]([C:4]([O:5][H:15])([H:13])[H:14])([H:12])[C:6][N:7]1[H:10]"
C       -1.74154165       0.21457506       0.65478290
N       -0.34055390       0.14317938       0.80116137
C        0.35710956       0.17696101      -0.45567976
C        1.81117029      -0.22826551      -0.32731700
O        2.55275256       0.71119946       0.41468326
C       -0.42713561      -0.69641156      -1.48553467
N       -1.61688169      -0.84355733      -1.28877445
H       -2.29454846      -0.46227354       1.30402762
H       -2.09362592       1.24017734       0.73807977
H       -2.59489937      -0.16924578      -0.81704023
H       -0.08469143      -0.68685202       1.32268281
H        0.29460017       1.18949210      -0.86880836
H        2.25911005      -0.29049061      -1.31834196
H        1.87247624      -1.22994935       0.12466541
H        2.04665915       0.93146136       1.20141330
15
Frame=10 idx=006552 GeodesicLength=1.2843560243323957 rxn_smarts="[C:1]([N:2]([C@@:3]([C:4]([O:5][H:15])([H:13])[H:14])([C:6]#[N:7])[H:12])[H:11])([H:8])([H:9])[H:10]>>[C:1]1([H:8])([H:9])[N:2]([H:11])[C@:3]([C:4]([O:5][H:15])([H:13])[H:14])([H:12])[C:6][N:7]1[H:10]"
C       -1.74474217       0.21051379       0.64041944
N       -0.33836798       0.15696708       0.80091617
C        0.35726946       0.17184673      -0.46202242
C        1.81195599      -0.23195585      -0.32854362
O        2.54716392       0.71161723       0.41381859
C       -0.42185971      -0.71017743      -1.47458763
N       -1.61221773      -0.86069200      -1.27925181
H       -2.29147714      -0.49106699       1.26968365
H       -2.10604156       1.22797635       0.77532576
H       -2.58467181      -0.10767413      -0.80250244
H       -0.08269610      -0.66976094       1.32808238
H        0.29746816       1.18145625      -0.88336827
H        2.26418407      -0.29713006      -1.31752668
H        1.87272147      -1.23182271       0.12744913
H        2.03131114       0.93990269       1.19210774
15
Frame=11 idx=006552 GeodesicLength=1.4130530563631958 rxn_smarts="[C:1]([N:2]([C@@:3]([C:4]([O:5][H:15])([H:13])[H:14])([C:6]#[N:7])[H:12])[H:11])([H:8])([H:9])[H:10]>>[C:1]1([H:8])([H:9])[N:2]([H:11])[C@:3]([C:4]([O:5][H:15])([H:13])[H:14])([H:12])[C:6][N:7]1[H:10]"
C       -1.74785342       0.20723994       0.62614217
N       -0.33637698       0.17096471       0.80036014
C        0.35737690       0.16696177      -0.46832042
C        1.81259144      -0.23567225      -0.32969533
O        2.54158411       0.71182010       0.41303320
C       -0.41679176      -0.72300043      -1.46388347
N       -1.60741149      -0.87837104      -1.26930352
H       -2.28772708      -0.51818841       1.23530423
H       -2.11872790       1.21364914       0.81280305
H       -2.57384701      -0.04692850      -0.78810706
H       -0.08118400      -0.65257079       1.33305452
H        0.30047581       1.17362956      -0.89775907
H        2.26912444      -0.30381438      -1.31659769
H        1.87258500      -1.23375744       0.13021749
H        2.01618194       0.94803801       1.18275174
15
Frame=12 idx=006552 GeodesicLength=1.5417380300912638 rxn_smarts="[C:1]([N:2]([C@@:3]([C:4]([O:5][H:15])([H:13])[H:14])([C:6]#[N:7])[H:12])[H:11])([H:8])([H:9])[H:10]>>[C:1]1([H:8])([H:9])[N:2]([H:11])[C@:3]([C:4]([O:5][H:15])([H:13])[H:14])([H:12])[C:6][N:7]1[H:10]"
C       -1.75089017       0.20469827       0.61189769
N       -0.33456914       0.18511758       0.79949769
C        0.35743753       0.16231628      -0.47457922
C        1.81308872      -0.23938759      -0.33078256
O        2.53600789       0.71182030       0.41235993
C       -0.41191049      -0.73483655      -1.45349773
N       -1.60234295      -0.89687667      -1.25880439
H       -2.28344057      -0.54355583       1.20096623
H       -2.13153108       1.19713654       0.85022037
H       -2.56261906       0.01325065      -0.77364758
H       -0.08013954      -0.63535196       1.33758022
H        0.30361220       1.16603729      -0.91195310
H        2.27395033      -0.31047540      -1.31556417
H        1.87208806      -1.23574586       0.13291940
H        2.00125827       0.95585297       1.17338723
15
Frame=13 idx=006552 GeodesicLength=1.6704079018374154 rxn_smarts="[C:1]([N:2]([C@@:3]([C:4]([O:5][H:15])([H:13])[H:14])([C:6]#[N:7])[H:12])[H:11])([H:8])([H:9])[H:10]>>[C:1]1([H:8])([H:9])[N:2]([H:11])[C@:3]([C:4]([O:5][H:15])([H:13])[H:14])([H:12])[C:6][N:7]1[H:10]"
C       -1.75387142       0.20282785       0.59763109
N       -0.33293713       0.19936685       0.79833702
C        0.35745223       0.15791869      -0.48080461
C        1.81345597      -0.24307363      -0.33182007
O        2.53042415       0.71163041       0.41182774
C       -0.40720031      -0.74564982      -1.44350330
N       -1.59687800      -0.91650399      -1.24760398
H       -2.27877185      -0.56710963       1.16676079
H       -2.14429651       1.17841347       0.88727012
H       -2.55113610       0.07314746      -0.75893054
H       -0.07954810      -0.61817904       1.34164581
H        0.30685886       1.15870363      -0.92592290
H        2.27867510      -0.31704013      -1.31444151
H        1.87125023      -1.23777995       0.13549770
H        1.98652287       0.96332785       1.16405664
15
Frame=14 idx=006552 GeodesicLength=1.7990601311729146 rxn_smarts="[C:1]([N:2]([C@@:3]([C:4]([O:5][H:15])([H:13])[H:14])([C:6]#[N:7])[H:12])[H:11])([H:8])([H:9])[H:10]>>[C:1]1([H:8])([H:9])[N:2]([H:11])[C@:3]([C:4]([O:5][H:15])([H:13])[H:14])([H:12])[C:6][N:7]1[H:10]"
C       -1.75681743       0.20156189       0.58328098
N       -0.33147931       0.21364623       0.79688834
C        0.35741756       0.15377647      -0.48700328
C        1.81369785      -0.24670085      -0.33282615
O        2.52481597       0.71126331       0.41146558
C       -0.40265238      -0.75540866      -1.43397459
N       -1.59085910      -0.93756659      -1.23552667
H       -2.27388751      -0.58880553       1.13278483
H       -2.15685824       1.15749399       0.92363275
H       -2.53951719       0.13306125      -0.74376361
H       -0.07939945      -0.60113362       1.34523870
H        0.31019055       1.15165447      -0.93963916
H        2.28330680      -0.32342953      -1.31325014
H        1.87008975      -1.23985280       0.13788803
H        1.97195212       0.97043995       1.15480438
15
Frame=15 idx=006552 GeodesicLength=1.9276918542709445 rxn_smarts="[C:1]([N:2]([C@@:3]([C:4]([O:5][H:15])([H:13])[H:14])([C:6]#[N:7])[H:12])[H:11])([H:8])([H:9])[H:10]>>[C:1]1([H:8])([H:9])[N:2]([H:11])[C@:3]([C:4]([O:5][H:15])([H:13])[H:14])([H:12])[C:6][N:7]1[H:10]"
C       -1.75975294       0.20082522       0.56877473
N       -0.33020126       0.22788914       0.79516159
C        0.35732591       0.14989667      -0.49318440
C        1.81381455      -0.25024037      -0.33382279
O        2.51916093       0.71073000       0.41129959
C       -0.39826619      -0.76408606      -1.42498529
N       -1.58409734      -0.96039773      -1.22236983
H       -2.26896051      -0.60862927       1.09913020
H       -2.16905635       1.13442506       0.95898565
H       -2.52784184       0.19332389      -0.72794625
H       -0.07968645      -0.58429315       1.34835139
H        0.31357735       1.14491651      -0.95307507
H        2.28784734      -0.32956387      -1.31201551
H        1.86861961      -1.24195894       0.14002160
H        1.95751719       0.97716291       1.14567439
15
Frame=16 idx=006552 GeodesicLength=2.0563008540793914 rxn_smarts="[C:1]([N:2]([C@@:3]([C:4]([O:5][H:15])([H:13])[H:14])([C:6]#[N:7])[H:12])[H:11])([H:8])([H:9])[H:10]>>[C:1]1([H:8])([H:9])[N:2]([H:11])[C@:3]([C:4]([O:5][H:15])([H:13])[H:14])([H:12])[C:6][N:7]1[H:10]"
C       -1.76270854       0.20053457       0.55402145
N       -0.32911861       0.24203108       0.79316237
C        0.35716557       0.14628560      -0.49936171
C        1.81380166      -0.25366542      -0.33483486
O        2.51343055       0.71004017       0.41135261
C       -0.39405213      -0.77166066      -1.41660862
N       -1.57635887      -0.98535289      -1.20790206
H       -2.26416822      -0.62659819       1.06586809
H       -2.18073792       1.10927929       0.99301897
H       -2.51615235       0.25430829      -0.71125594
H       -0.08040845      -0.56772587       1.35097985
H        0.31698598       1.13851662      -0.96620962
H        2.29229311      -0.33536751      -1.31076652
H        1.86684595      -1.24409516       0.14182801
H        1.94318227       0.98347007       1.13670798
