11
Frame=0 idx=003136 GeodesicLength=0.0 rxn_smarts="[c:1]1([H:7])[c:2]([H:8])[c:3]([H:9])[n:4][c:5]([H:10])[c:6]1[H:11]>>[C:1]12([H:7])[C:2]([H:8])=[C:3]([H:9])[N:4]1[C:5]([H:10])=[C:6]2[H:11]"
C       -0.15583716       1.04303540       0.28393919
C       -1.33768978       0.27146520      -0.12206932
C       -1.04124546      -1.03953621       0.05844603
N        0.09450740      -0.94320968       0.84076503
C        1.27449935      -0.71257881       0.16888968
C        1.22275714       0.63720152       0.01187501
H       -0.32179481       2.08831650       0.55680175
H       -2.19565319       0.71541821      -0.61521845
H       -1.41197599      -1.92006608      -0.46024722
H        1.90055976      -1.44872524      -0.32993093
H        1.97187275       1.30867917      -0.39325072
11
Frame=1 idx=003136 GeodesicLength=0.02310096952491764 rxn_smarts="[c:1]1([H:7])[c:2]([H:8])[c:3]([H:9])[n:4][c:5]([H:10])[c:6]1[H:11]>>[C:1]12([H:7])[C:2]([H:8])=[C:3]([H:9])[N:4]1[C:5]([H:10])=[C:6]2[H:11]"
C       -0.15524099       1.03766858       0.28167162
C       -1.33399283       0.27406576      -0.14209906
C       -1.04170289      -1.03600452       0.05023503
N        0.09496884      -0.94510139       0.83193717
C        1.27506900      -0.70899967       0.16145572
C        1.22029704       0.63865866      -0.00857197
H       -0.32129419       2.07545842       0.58027295
H       -2.20253489       0.72039171      -0.61303349
H       -1.43148037      -1.92305299      -0.44168752
H        1.91980475      -1.44755955      -0.30799591
H        1.97610652       1.31447501      -0.39218454
11
Frame=2 idx=003136 GeodesicLength=0.0461195242973384 rxn_smarts="[c:1]1([H:7])[c:2]([H:8])[c:3]([H:9])[n:4][c:5]([H:10])[c:6]1[H:11]>>[C:1]12([H:7])[C:2]([H:8])=[C:3]([H:9])[N:4]1[C:5]([H:10])=[C:6]2[H:11]"
C       -0.15458220       1.03205600       0.27872945
C       -1.33024450       0.27657915      -0.16236893
C       -1.04211374      -1.03255916       0.04138701
N        0.09547567      -0.94726565       0.82247319
C        1.27565824      -0.70550830       0.15341776
C        1.21780527       0.63998791      -0.02930314
H       -0.32060543       2.06202931       0.60192753
H       -2.20990905       0.72515732      -0.60885858
H       -1.45146856      -1.92517181      -0.42273571
H        1.93933575      -1.44541735      -0.28530837
H        1.98064856       1.32011258      -0.38936020
11
Frame=3 idx=003136 GeodesicLength=0.06886502433073216 rxn_smarts="[c:1]1([H:7])[c:2]([H:8])[c:3]([H:9])[n:4][c:5]([H:10])[c:6]1[H:11]>>[C:1]12([H:7])[C:2]([H:8])=[C:3]([H:9])[N:4]1[C:5]([H:10])=[C:6]2[H:11]"
C       -0.15387597       1.02620876       0.27546895
C       -1.32653073       0.27901974      -0.18246079
C       -1.04250840      -1.02924128       0.03220484
N        0.09608890      -0.94976377       0.81257745
C        1.27626045      -0.70213821       0.14484002
C        1.21530826       0.64124362      -0.04997483
H       -0.31976896       2.04823138       0.62184577
H       -2.21710191       0.72954220      -0.60364060
H       -1.47172852      -1.92638648      -0.40331403
H        1.95865245      -1.44223878      -0.26254136
H        1.98520446       1.32552282      -0.38500542
11
Frame=4 idx=003136 GeodesicLength=0.09144955284162863 rxn_smarts="[c:1]1([H:7])[c:2]([H:8])[c:3]([H:9])[n:4][c:5]([H:10])[c:6]1[H:11]>>[C:1]12([H:7])[C:2]([H:8])=[C:3]([H:9])[N:4]1[C:5]([H:10])=[C:6]2[H:11]"
C       -0.15313365       1.02005081       0.27226697
C       -1.32292909       0.28141627      -0.20199958
C       -1.04287765      -1.02602039       0.02265448
N        0.09679259      -0.95268569       0.80224669
C        1.27685763      -0.69887285       0.13580749
C        1.21280703       0.64243743      -0.07022771
H       -0.31877820       2.03392798       0.64073274
H       -2.22364839       0.73366643      -0.59811661
H       -1.49219061      -1.92651348      -0.38362143
H        1.97787556      -1.43790842      -0.23932034
H        1.98922479       1.33050189      -0.38042270
11
Frame=5 idx=003136 GeodesicLength=0.11384183217331607 rxn_smarts="[c:1]1([H:7])[c:2]([H:8])[c:3]([H:9])[n:4][c:5]([H:10])[c:6]1[H:11]>>[C:1]12([H:7])[C:2]([H:8])=[C:3]([H:9])[N:4]1[C:5]([H:10])=[C:6]2[H:11]"
C       -0.15236095       1.01359458       0.26947830
C       -1.31946407       0.28384148      -0.22069312
C       -1.04321056      -1.02293859       0.01276377
N        0.09761039      -0.95618467       0.79150023
C        1.27744990      -0.69575695       0.12629836
C        1.21031867       0.64365491      -0.08975174
H       -0.31766222       2.01914526       0.65916310
H       -2.22913402       0.73754400      -0.59319880
H       -1.51296642      -1.92554642      -0.36350483
H        1.99702526      -1.43236621      -0.21569201
H        1.99239402       1.33501260      -0.37636327
11
Frame=6 idx=003136 GeodesicLength=0.13609504931757202 rxn_smarts="[c:1]1([H:7])[c:2]([H:8])[c:3]([H:9])[n:4][c:5]([H:10])[c:6]1[H:11]>>[C:1]12([H:7])[C:2]([H:8])=[C:3]([H:9])[N:4]1[C:5]([H:10])=[C:6]2[H:11]"
C       -0.15156788       1.00679959       0.26726637
C       -1.31614751       0.28629968      -0.23843356
C       -1.04350171      -1.02001509       0.00250291
N        0.09854803      -0.96031868       0.78030500
C        1.27804321      -0.69280692       0.11632454
C        1.20783630       0.64491060      -0.10836744
H       -0.31643706       2.00379798       0.67750022
H       -2.23343151       0.74123318      -0.58930965
H       -1.53408207      -1.92343618      -0.34288125
H        2.01608651      -1.42554328      -0.19157953
H        1.99465370       1.33907912      -0.37332761
11
Frame=7 idx=003136 GeodesicLength=0.15823595203707022 rxn_smarts="[c:1]1([H:7])[c:2]([H:8])[c:3]([H:9])[n:4][c:5]([H:10])[c:6]1[H:11]>>[C:1]12([H:7])[C:2]([H:8])=[C:3]([H:9])[N:4]1[C:5]([H:10])=[C:6]2[H:11]"
C       -0.15074529       0.99964064       0.26563526
C       -1.31296417       0.28878751      -0.25523571
C       -1.04375290      -1.01727754      -0.00816428
N        0.09961251      -0.96511661       0.76860210
C        1.27865472      -0.69005671       0.10584324
C        1.20536424       0.64619460      -0.12609525
H       -0.31509867       1.98782108       0.69591628
H       -2.23666748       0.74481165      -0.58653416
H       -1.55551223      -1.92014823      -0.32168763
H        2.03505522      -1.41742112      -0.16683787
H        1.99605405       1.34276473      -0.37144198
11
Frame=8 idx=003136 GeodesicLength=0.18026045849510225 rxn_smarts="[c:1]1([H:7])[c:2]([H:8])[c:3]([H:9])[n:4][c:5]([H:10])[c:6]1[H:11]>>[C:1]12([H:7])[C:2]([H:8])=[C:3]([H:9])[N:4]1[C:5]([H:10])=[C:6]2[H:11]"
C       -0.14988637       0.99211170       0.26447762
C       -1.30990030       0.29129824      -0.27121385
C       -1.04397952      -1.01475653      -0.01929641
N        0.10078390      -0.97057730       0.75632194
C        1.27929250      -0.68754846       0.09480328
C        1.20289573       0.64748074      -0.14307676
H       -0.31362855       1.97117296       0.71446389
H       -2.23905421       0.74834575      -0.58464498
H       -1.57716869      -1.91567526      -0.29993648
H        2.05390857      -1.40799453      -0.14123636
H        1.99673696       1.34614269      -0.37066187
11
Frame=9 idx=003136 GeodesicLength=0.20230586086985775 rxn_smarts="[c:1]1([H:7])[c:2]([H:8])[c:3]([H:9])[n:4][c:5]([H:10])[c:6]1[H:11]>>[C:1]12([H:7])[C:2]([H:8])=[C:3]([H:9])[N:4]1[C:5]([H:10])=[C:6]2[H:11]"
C       -0.14897702       0.98415702       0.26371918
C       -1.30689358       0.29378904      -0.28652452
C       -1.04415475      -1.01245682      -0.03093537
N        0.10211309      -0.97666487       0.74338253
C        1.27999267      -0.68526581       0.08317411
C        1.20043632       0.64876048      -0.15933508
H       -0.31204472       1.95372425       0.73314327
H       -2.24064550       0.75176526      -0.58373220
H       -1.59911439      -1.90990428      -0.27725448
H        2.07246291      -1.39715952      -0.11498362
H        1.99682497       1.34925526      -0.37065382
11
Frame=10 idx=003136 GeodesicLength=0.22425126852917981 rxn_smarts="[c:1]1([H:7])[c:2]([H:8])[c:3]([H:9])[n:4][c:5]([H:10])[c:6]1[H:11]>>[C:1]12([H:7])[C:2]([H:8])=[C:3]([H:9])[N:4]1[C:5]([H:10])=[C:6]2[H:11]"
C       -0.14801695       0.97582134       0.26325340
C       -1.30394506       0.29625252      -0.30123912
C       -1.04433251      -1.01041827      -0.04298949
N        0.10355007      -0.98334559       0.72985630
C        1.28077264      -0.68325284       0.07103572
C        1.19798817       0.65000922      -0.17502083
H       -0.31033563       1.93554531       0.75190820
H       -2.24163695       0.75514292      -0.58350973
H       -1.62101576      -1.90289546      -0.25390633
H        2.09052440      -1.38502395      -0.08799943
H        1.99644758       1.35216481      -0.37138870
11
Frame=11 idx=003136 GeodesicLength=0.24607575118806585 rxn_smarts="[c:1]1([H:7])[c:2]([H:8])[c:3]([H:9])[n:4][c:5]([H:10])[c:6]1[H:11]>>[C:1]12([H:7])[C:2]([H:8])=[C:3]([H:9])[N:4]1[C:5]([H:10])=[C:6]2[H:11]"
C       -0.14701032       0.96718163       0.26306515
C       -1.30105542       0.29867147      -0.31523292
C       -1.04458377      -1.00857722      -0.05491942
N        0.10504528      -0.99039534       0.71621725
C        1.28160957      -0.68146966       0.05889902
C        1.19550721       0.65116729      -0.19008565
H       -0.30847400       1.91689162       0.77037863
H       -2.24211924       0.75841605      -0.58378254
H       -1.64198576      -1.89476828      -0.23077157
H        2.10742423      -1.37187853      -0.06088227
H        1.99564222       1.35476098      -0.37288567
11
Frame=12 idx=003136 GeodesicLength=0.26781087093430933 rxn_smarts="[c:1]1([H:7])[c:2]([H:8])[c:3]([H:9])[n:4][c:5]([H:10])[c:6]1[H:11]>>[C:1]12([H:7])[C:2]([H:8])=[C:3]([H:9])[N:4]1[C:5]([H:10])=[C:6]2[H:11]"
C       -0.14597162       0.95828052       0.26308282
C       -1.29816084       0.30100837      -0.32865592
C       -1.04488920      -1.00692126      -0.06662995
N        0.10658872      -0.99770806       0.70258490
C        1.28256270      -0.67985225       0.04697673
C        1.19303860       0.65226040      -0.20448556
H       -0.30655797       1.89781069       0.78850005
H       -2.24210860       0.76153326      -0.58467190
H       -1.66197980      -1.88562359      -0.20766250
H        2.12293814      -1.35791430      -0.03420932
H        1.99453988       1.35712622      -0.37482934
11
Frame=13 idx=003136 GeodesicLength=0.28950134391257376 rxn_smarts="[c:1]1([H:7])[c:2]([H:8])[c:3]([H:9])[n:4][c:5]([H:10])[c:6]1[H:11]>>[C:1]12([H:7])[C:2]([H:8])=[C:3]([H:9])[N:4]1[C:5]([H:10])=[C:6]2[H:11]"
C       -0.14488470       0.94916484       0.26325169
C       -1.29529772       0.30329850      -0.34148017
C       -1.04529938      -1.00541032      -0.07801086
N        0.10815312      -1.00523089       0.68903559
C        1.28360126      -0.67839971       0.03532950
C        1.19054402       0.65325575      -0.21837778
H       -0.30449659       1.87836767       0.80626210
H       -2.24175987       0.76455460      -0.58585709
H       -1.68079752      -1.87560665      -0.18506817
H        2.13710013      -1.34322446      -0.00769475
H        1.99313725       1.35923068      -0.37739006
11
Frame=14 idx=003136 GeodesicLength=0.3111944594089589 rxn_smarts="[c:1]1([H:7])[c:2]([H:8])[c:3]([H:9])[n:4][c:5]([H:10])[c:6]1[H:11]>>[C:1]12([H:7])[C:2]([H:8])=[C:3]([H:9])[N:4]1[C:5]([H:10])=[C:6]2[H:11]"
C       -0.14376880       0.93987353       0.26353345
C       -1.29239591       0.30550518      -0.35384200
C       -1.04577459      -1.00403886      -0.08901132
N        0.10974048      -1.01288702       0.67565131
C        1.28474503      -0.67703973       0.02411533
C        1.18804434       0.65419943      -0.23168424
H       -0.30238817       1.85860854       0.82362948
H       -2.24100770       0.76742439      -0.58755013
H       -1.69849746      -1.86480549      -0.16268182
H        2.14978541      -1.32800352       0.01807632
H        1.99151738       1.36116356      -0.38023638
11
Frame=15 idx=003136 GeodesicLength=0.33293655095106744 rxn_smarts="[c:1]1([H:7])[c:2]([H:8])[c:3]([H:9])[n:4][c:5]([H:10])[c:6]1[H:11]>>[C:1]12([H:7])[C:2]([H:8])=[C:3]([H:9])[N:4]1[C:5]([H:10])=[C:6]2[H:11]"
C       -0.14262254       0.93043467       0.26388238
C       -1.28949467       0.30766281      -0.36571863
C       -1.04634361      -1.00276233      -0.09959074
N        0.11132617      -1.02064300       0.66245375
C        1.28598965      -0.67577017       0.01335293
C        1.18552839       0.65506042      -0.24452869
H       -0.30019365       1.83855267       0.84060864
H       -2.23998571       0.77020339      -0.58949401
H       -1.71501554      -1.85332438      -0.14083111
H        2.16112328      -1.31231312       0.04337826
H        1.98968824       1.36289904      -0.38351280
11
Frame=16 idx=003136 GeodesicLength=0.3547517044594165 rxn_smarts="[c:1]1([H:7])[c:2]([H:8])[c:3]([H:9])[n:4][c:5]([H:10])[c:6]1[H:11]>>[C:1]12([H:7])[C:2]([H:8])=[C:3]([H:9])[N:4]1[C:5]([H:10])=[C:6]2[H:11]"
C       -0.14144710       0.92086899       0.26425880
C       -1.28657777       0.30976775      -0.37719714
C       -1.04699454      -1.00158264      -0.10980258
N        0.11291812      -1.02849220       0.64940227
C        1.28733665      -0.67456814       0.00301990
C        1.18300070       0.65586437      -0.25694403
H       -0.29792496       1.81819000       0.85724518
H       -2.23870757       0.77290017      -0.59171579
H       -1.73047014      -1.84122659      -0.11933722
H        2.17118016      -1.29622663       0.06815808
H        1.98768644       1.36450491      -0.38708746
