12
Frame=0 idx=010067 GeodesicLength=0.0 rxn_smarts="[N:1]([C:2](=[O:3])[C:4]([O:5][C:6](=[O:7])[H:12])([H:10])[H:11])([H:8])[H:9]>>[C:6](=[O:7])([H:11])[H:12].[N:1]([C:2](=[O:3])[C:4](=[O:5])[H:10])([H:8])[H:9]"
N       -0.99015023      -1.50966469       0.64498773
C       -0.91495030      -0.19363543       0.91870389
O       -1.24203506       0.34679999       1.94976493
C       -0.32152793       0.60957737      -0.24662671
O       -0.04448957       0.01014348      -1.36259100
C        1.60147428       0.73292505      -0.84577797
O        1.98618341       1.68857754      -1.39802858
H       -0.79329353      -1.81261992      -0.29469533
H       -1.44170229      -2.12430176       1.29814513
H       -0.65833923       1.65546943      -0.24885099
H        0.90099824       0.89392766       0.29141572
H        1.91783225      -0.29719877      -0.70644686
12
Frame=1 idx=010067 GeodesicLength=0.12184953420757773 rxn_smarts="[N:1]([C:2](=[O:3])[C:4]([O:5][C:6](=[O:7])[H:12])([H:10])[H:11])([H:8])[H:9]>>[C:6](=[O:7])([H:11])[H:12].[N:1]([C:2](=[O:3])[C:4](=[O:5])[H:10])([H:8])[H:9]"
N       -1.04493750      -1.52052548       0.65067326
C       -0.91194323      -0.21096359       0.93464722
O       -1.24937016       0.33781145       1.95816048
C       -0.29658974       0.58053574      -0.22620852
O        0.01116410      -0.03539566      -1.32657999
C        1.63213818       0.76982087      -0.86481157
O        1.94165556       1.73655869      -1.44882625
H       -0.87127905      -1.82534989      -0.29301606
H       -1.51606372      -2.12175959       1.30248530
H       -0.65087848       1.62056035      -0.25049306
H        0.93767689       0.90747754       0.30258490
H        2.01842716      -0.23877042      -0.73861571
12
Frame=2 idx=010067 GeodesicLength=0.23921964123575185 rxn_smarts="[N:1]([C:2](=[O:3])[C:4]([O:5][C:6](=[O:7])[H:12])([H:10])[H:11])([H:8])[H:9]>>[C:6](=[O:7])([H:11])[H:12].[N:1]([C:2](=[O:3])[C:4](=[O:5])[H:10])([H:8])[H:9]"
N       -1.10108565      -1.52941784       0.65458715
C       -0.90861045      -0.22986131       0.95185745
O       -1.25555440       0.32731444       1.96789065
C       -0.26975633       0.55049182      -0.20295674
O        0.07114570      -0.08309806      -1.28503327
C        1.66124266       0.80646565      -0.88453342
O        1.89181929       1.77698631      -1.50235131
H       -0.94331553      -1.83447184      -0.29186803
H       -1.59534900      -2.11666596       1.30199754
H       -0.64293684       1.58322893      -0.25188683
H        0.97516576       0.92418521       0.31399778
H        2.11723478      -0.17515734      -0.77170096
12
Frame=3 idx=010067 GeodesicLength=0.3522811071584451 rxn_smarts="[N:1]([C:2](=[O:3])[C:4]([O:5][C:6](=[O:7])[H:12])([H:10])[H:11])([H:8])[H:9]>>[C:6](=[O:7])([H:11])[H:12].[N:1]([C:2](=[O:3])[C:4](=[O:5])[H:10])([H:8])[H:9]"
N       -1.15733420      -1.53558646       0.65667808
C       -0.90762310      -0.24905761       0.96928117
O       -1.26209568       0.31597646       1.97860569
C       -0.24184270       0.52043711      -0.17682249
O        0.13395028      -0.13117726      -1.23816781
C        1.68786638       0.84122328      -0.90534241
O        1.83785490       1.80918640      -1.55549703
H       -1.00487354      -1.84109297      -0.29051060
H       -1.67718820      -2.10846334       1.29682535
H       -0.63384802       1.54478044      -0.25227922
H        1.01313699       0.94231077       0.32574627
H        2.21199690      -0.10853682      -0.80851699
12
Frame=4 idx=010067 GeodesicLength=0.4619476488619465 rxn_smarts="[N:1]([C:2](=[O:3])[C:4]([O:5][C:6](=[O:7])[H:12])([H:10])[H:11])([H:8])[H:9]>>[C:6](=[O:7])([H:11])[H:12].[N:1]([C:2](=[O:3])[C:4](=[O:5])[H:10])([H:8])[H:9]"
N       -1.21336801      -1.53903076       0.65626025
C       -0.90829465      -0.26870843       0.98724575
O       -1.26866855       0.30312329       1.99091953
C       -0.21267680       0.49074212      -0.14723752
O        0.20016920      -0.17927429      -1.18497922
C        1.71214656       0.87409803      -0.92703946
O        1.77987808       1.83156395      -1.60991882
H       -1.05786113      -1.84529522      -0.29021083
H       -1.76072423      -2.09726863       1.28629077
H       -0.62385541       1.50523965      -0.25155109
H        1.05124769       0.96387355       0.33771328
H        2.30200724      -0.03906326      -0.84749266
12
Frame=5 idx=010067 GeodesicLength=0.5685003042370267 rxn_smarts="[N:1]([C:2](=[O:3])[C:4]([O:5][C:6](=[O:7])[H:12])([H:10])[H:11])([H:8])[H:9]>>[C:6](=[O:7])([H:11])[H:12].[N:1]([C:2](=[O:3])[C:4](=[O:5])[H:10])([H:8])[H:9]"
N       -1.26863915      -1.53946266       0.65247696
C       -0.90998027      -0.28893979       1.00603485
O       -1.27538283       0.28800819       2.00519433
C       -0.18214023       0.46200821      -0.11339571
O        0.26997084      -0.22655220      -1.12427548
C        1.73399653       0.90486778      -0.94944284
O        1.71785189       1.84191879      -1.66701489
H       -1.10308083      -1.84661530      -0.29199938
H       -1.84468084      -2.08312966       1.26945424
H       -0.61304270       1.46478117      -0.24924394
H        1.08901281       0.99066961       0.34973428
H        2.38611479       0.03244586      -0.88752243
12
Frame=6 idx=010067 GeodesicLength=0.6725275937437751 rxn_smarts="[N:1]([C:2](=[O:3])[C:4]([O:5][C:6](=[O:7])[H:12])([H:10])[H:11])([H:8])[H:9]>>[C:6](=[O:7])([H:11])[H:12].[N:1]([C:2](=[O:3])[C:4](=[O:5])[H:10])([H:8])[H:9]"
N       -1.32123766      -1.53690045       0.64519196
C       -0.91429494      -0.30856088       1.02493134
O       -1.28500676       0.27139911       2.02060157
C       -0.15085270       0.43537291      -0.07510199
O        0.34216343      -0.27136743      -1.05604616
C        1.75318546       0.93212579      -0.97270963
O        1.65323289       1.83956565      -1.72470216
H       -1.14169359      -1.84405210      -0.29675437
H       -1.92383308      -2.06793627       1.24756955
H       -0.60089924       1.42480722      -0.24480887
H        1.12614458       1.02203174       0.36170728
H        2.46309161       0.10351470      -0.92987852
12
Frame=7 idx=010067 GeodesicLength=0.7743743742600967 rxn_smarts="[N:1]([C:2](=[O:3])[C:4]([O:5][C:6](=[O:7])[H:12])([H:10])[H:11])([H:8])[H:9]>>[C:6](=[O:7])([H:11])[H:12].[N:1]([C:2](=[O:3])[C:4](=[O:5])[H:10])([H:8])[H:9]"
N       -1.37002680      -1.53137774       0.63422525
C       -0.92168889      -0.32675272       1.04364868
O       -1.29945342       0.25397302       2.03636974
C       -0.11920442       0.41169907      -0.03197511
O        0.41573235      -0.31233076      -0.98014902
C        1.76950781       0.95478274      -0.99696066
O        1.58672784       1.82425688      -1.78138393
H       -1.17369319      -1.83687644      -0.30494008
H       -1.99540557      -2.05322212       1.22112900
H       -0.58711438       1.38628727      -0.23762014
H        1.16258125       1.05754046       0.37342826
H        2.53203742       0.17202035      -0.97577198
12
Frame=8 idx=010067 GeodesicLength=0.8745052436237193 rxn_smarts="[N:1]([C:2](=[O:3])[C:4]([O:5][C:6](=[O:7])[H:12])([H:10])[H:11])([H:8])[H:9]>>[C:6](=[O:7])([H:11])[H:12].[N:1]([C:2](=[O:3])[C:4](=[O:5])[H:10])([H:8])[H:9]"
N       -1.41411803      -1.52305729       0.61924593
C       -0.93179135      -0.34323282       1.06224944
O       -1.31915413       0.23551129       2.05253759
C       -0.08746891       0.39192741       0.01663596
O        0.48987160      -0.34806865      -0.89626893
C        1.78288039       0.97230363      -1.02219692
O        1.51869817       1.79504961      -1.83700138
H       -1.19868459      -1.82444153      -0.31711157
H       -2.05851947      -2.04003212       1.18955465
H       -0.57172140       1.35012330      -0.22689083
H        1.19804568       1.09803436       0.38442722
H        2.59196203       0.23588280      -1.02518115
12
Frame=9 idx=010067 GeodesicLength=0.9731613060216908 rxn_smarts="[N:1]([C:2](=[O:3])[C:4]([O:5][C:6](=[O:7])[H:12])([H:10])[H:11])([H:8])[H:9]>>[C:6](=[O:7])([H:11])[H:12].[N:1]([C:2](=[O:3])[C:4](=[O:5])[H:10])([H:8])[H:9]"
N       -1.45309027      -1.51170464       0.59972087
C       -0.94459795      -0.35741702       1.08036209
O       -1.34437498       0.21589975       2.06893133
C       -0.05623809       0.37717656       0.07103109
O        0.56318798      -0.37695048      -0.80480299
C        1.79310849       0.98394159      -1.04829298
O        1.44976716       1.75151338      -1.89062276
H       -1.21581666      -1.80629063      -0.33357738
H       -2.11125117      -2.02988836       1.15290486
H       -0.55469181       1.31768390      -0.21178754
H        1.23223003       1.14362615       0.39418140
H        2.64176727       0.29240981      -1.07804801
12
Frame=10 idx=010067 GeodesicLength=1.0706650580934858 rxn_smarts="[N:1]([C:2](=[O:3])[C:4]([O:5][C:6](=[O:7])[H:12])([H:10])[H:11])([H:8])[H:9]>>[C:6](=[O:7])([H:11])[H:12].[N:1]([C:2](=[O:3])[C:4](=[O:5])[H:10])([H:8])[H:9]"
N       -1.48672831      -1.49681862       0.57512766
C       -0.96039238      -0.36841014       1.09724780
O       -1.37613159       0.19568791       2.08452961
C       -0.02627752       0.36853101       0.13116545
O        0.63403057      -0.39759460      -0.70665223
C        1.80013516       0.98874007      -1.07483180
O        1.38070023       1.69413348      -1.94032549
H       -1.22590471      -1.78093294      -0.35519724
H       -2.14909414      -2.02586155       1.11274324
H       -0.53595383       1.29058152      -0.19175492
H        1.26503167       1.19364159       0.40233982
H        2.68058485       0.33830227      -1.13439190
12
Frame=11 idx=010067 GeodesicLength=1.1680618921862154 rxn_smarts="[N:1]([C:2](=[O:3])[C:4]([O:5][C:6](=[O:7])[H:12])([H:10])[H:11])([H:8])[H:9]>>[C:6](=[O:7])([H:11])[H:12].[N:1]([C:2](=[O:3])[C:4](=[O:5])[H:10])([H:8])[H:9]"
N       -1.51148381      -1.48052528       0.54729877
C       -0.97564942      -0.37828321       1.11463843
O       -1.41152933       0.17301889       2.10044406
C        0.00345580       0.36500884       0.19808257
O        0.70466986      -0.41033813      -0.60051662
C        1.80264797       0.98715463      -1.10258544
O        1.30762323       1.62257153      -1.98570991
H       -1.22409892      -1.75066648      -0.37944153
H       -2.18449185      -2.01912511       1.06166610
H       -0.51630724       1.26661322      -0.16611963
H        1.29611516       1.24908432       0.40755719
H        2.70904854       0.37548678      -1.19531399
12
Frame=12 idx=010067 GeodesicLength=1.2657309422899503 rxn_smarts="[N:1]([C:2](=[O:3])[C:4]([O:5][C:6](=[O:7])[H:12])([H:10])[H:11])([H:8])[H:9]>>[C:6](=[O:7])([H:11])[H:12].[N:1]([C:2](=[O:3])[C:4](=[O:5])[H:10])([H:8])[H:9]"
N       -1.52831325      -1.46153301       0.51518399
C       -0.99173622      -0.38537177       1.13067339
O       -1.45215255       0.14917763       2.11451970
C        0.03121744       0.36817616       0.27044252
O        0.77181755      -0.41323455      -0.48952822
C        1.80093280       0.97769132      -1.13024310
O        1.23318289       1.53914529      -2.02316098
H       -1.21288705      -1.71334557      -0.40769448
H       -2.20703802      -2.01586183       1.00473271
H       -0.49565565       1.24882515      -0.13479377
H        1.32523773       1.30775910       0.40992058
H        2.72539432       0.39857206      -1.26005233
12
Frame=13 idx=010067 GeodesicLength=1.3650987820924423 rxn_smarts="[N:1]([C:2](=[O:3])[C:4]([O:5][C:6](=[O:7])[H:12])([H:10])[H:11])([H:8])[H:9]>>[C:6](=[O:7])([H:11])[H:12].[N:1]([C:2](=[O:3])[C:4](=[O:5])[H:10])([H:8])[H:9]"
N       -1.53573346      -1.44026928       0.47914583
C       -1.00664238      -0.39073266       1.14573300
O       -1.49529008       0.12250964       2.12728217
C        0.05714707       0.37777789       0.34822559
O        0.83637252      -0.40610931      -0.37383362
C        1.79398508       0.96036489      -1.15756188
O        1.15539785       1.44320994      -2.05211786
H       -1.19073516      -1.66908547      -0.43924128
H       -2.22090595      -2.01200337       0.93881783
H       -0.47463751       1.23667931      -0.09761172
H        1.35156980       1.37005980       0.40840734
H        2.72947221       0.40759862      -1.32724538
12
Frame=14 idx=010067 GeodesicLength=1.4679299023101888 rxn_smarts="[N:1]([C:2](=[O:3])[C:4]([O:5][C:6](=[O:7])[H:12])([H:10])[H:11])([H:8])[H:9]>>[C:6](=[O:7])([H:11])[H:12].[N:1]([C:2](=[O:3])[C:4](=[O:5])[H:10])([H:8])[H:9]"
N       -1.53304517      -1.41660985       0.43941134
C       -1.01950694      -0.39453787       1.15938777
O       -1.54023488       0.09287544       2.13756823
C        0.08075075       0.39384461       0.43057119
O        0.89780924      -0.38841087      -0.25515134
C        1.78141781       0.93461011      -1.18372004
O        1.07400221       1.33660471      -2.06995466
H       -1.15780798      -1.61706836      -0.47384177
H       -2.22473521      -2.00715988       0.86423864
H       -0.45370292       1.23050303      -0.05495613
H        1.37460978       1.43483712       0.40254257
H        2.72044331       0.40051181      -1.39609580
12
Frame=15 idx=010067 GeodesicLength=1.5765470407842122 rxn_smarts="[N:1]([C:2](=[O:3])[C:4]([O:5][C:6](=[O:7])[H:12])([H:10])[H:11])([H:8])[H:9]>>[C:6](=[O:7])([H:11])[H:12].[N:1]([C:2](=[O:3])[C:4](=[O:5])[H:10])([H:8])[H:9]"
N       -1.52031382      -1.39021504       0.39618329
C       -1.02947332      -0.39712734       1.17106836
O       -1.58444793       0.05920292       2.14540071
C        0.10137777       0.41604761       0.51592926
O        0.95549788      -0.35998424      -0.13604220
C        1.76290230       0.90056537      -1.20779818
O        0.98931963       1.22072758      -2.07551726
H       -1.11467299      -1.55718055      -0.51090426
H       -2.21832698      -2.00016750       0.78144917
H       -0.43356429       1.23047879      -0.00775871
H        1.39354148       1.50099175       0.39205360
H        2.69816027       0.37666065      -1.46406379
12
Frame=16 idx=010067 GeodesicLength=1.6921873094842856 rxn_smarts="[N:1]([C:2](=[O:3])[C:4]([O:5][C:6](=[O:7])[H:12])([H:10])[H:11])([H:8])[H:9]>>[C:6](=[O:7])([H:11])[H:12].[N:1]([C:2](=[O:3])[C:4](=[O:5])[H:10])([H:8])[H:9]"
N       -1.49869466      -1.36148571       0.35081538
C       -1.03623691      -0.39858583       1.17989198
O       -1.62570926       0.02193122       2.15002800
C        0.11785100       0.44336119       0.60110276
O        1.00747389      -0.32152731      -0.02147288
C        1.73949606       0.85895094      -1.22853789
O        0.90436535       1.10280701      -2.06722478
H       -1.06287508      -1.49218083      -0.54827530
H       -2.20149558      -1.99093191       0.69371046
H       -0.41531458       1.23616794       0.04136864
H        1.40805969       1.56617013       0.37774123
H        2.66308009       0.33532315      -1.52914761
