20
Frame=0 idx=009138 GeodesicLength=0.0 rxn_smarts="[C:1]([C@@:2]1([H:11])[N:3]([C:4]([H:12])([H:13])[H:14])[C:5]1([C:6]([H:15])([H:16])[H:17])[C:7]([H:18])([H:19])[H:20])([H:8])([H:9])[H:10]>>[C:1]([C:2]([N:3]=[C:5]([C:6]([H:15])([H:16])[H:17])[C:7]([H:18])([H:19])[H:20])([C:4]([H:12])([H:13])[H:14])[H:11])([H:8])([H:9])[H:10]"
C       -1.37696611       1.28754062       0.32252463
C       -0.54612821       0.03953408       0.42737971
N       -0.20987110      -0.87329515      -0.97241329
C       -1.59041494      -1.43029548       0.17110791
C        0.75269629      -0.10005562      -0.31483862
C        1.88195609      -0.82044687       0.41591901
C        1.23179804       1.12865734      -1.07406319
H       -2.28795470       1.19275708       0.91790773
H       -0.82450599       2.15260972       0.69506963
H       -1.66600152       1.47643942      -0.70998956
H       -0.38238817      -0.30937989       1.44714253
H       -2.09796342      -1.68910451      -0.74866910
H       -1.14557515      -2.30242844       0.63867794
H       -2.34493258      -1.00357105       0.84426997
H        2.42347686      -0.15747878       1.09634081
H        1.49158257      -1.66616073       0.98489852
H        2.59534525      -1.21315626      -0.31201971
H        0.41649857       1.60313035      -1.61602796
H        1.98314290       0.82466310      -1.80626100
H        1.69620532       1.86004106      -0.40695595
20
Frame=1 idx=009138 GeodesicLength=0.09922640987863039 rxn_smarts="[C:1]([C@@:2]1([H:11])[N:3]([C:4]([H:12])([H:13])[H:14])[C:5]1([C:6]([H:15])([H:16])[H:17])[C:7]([H:18])([H:19])[H:20])([H:8])([H:9])[H:10]>>[C:1]([C:2]([N:3]=[C:5]([C:6]([H:15])([H:16])[H:17])[C:7]([H:18])([H:19])[H:20])([C:4]([H:12])([H:13])[H:14])[H:11])([H:8])([H:9])[H:10]"
C       -1.39913454       1.29335155       0.30832339
C       -0.56061844       0.05087619       0.42671989
N       -0.22018574      -0.85295469      -0.95326725
C       -1.59011710      -1.43783552       0.18247120
C        0.76102155      -0.09564897      -0.31223784
C        1.88944478      -0.83553749       0.39850636
C        1.24909457       1.13528101      -1.05954502
H       -2.31112237       1.20144547       0.90253553
H       -0.85478291       2.16621550       0.67438857
H       -1.68617506       1.47360278      -0.72638571
H       -0.38889970      -0.27688014       1.45215752
H       -2.08977374      -1.72790819      -0.73311953
H       -1.13286569      -2.29361597       0.66920873
H       -2.36217793      -1.02351700       0.84302045
H        2.44335526      -0.18578320       1.08163277
H        1.50047347      -1.68322230       0.96490966
H        2.59371538      -1.22658382      -0.33932732
H        0.43895728       1.63679537      -1.58377774
H        1.98558954       0.83190532      -1.80708658
H        1.73420141       1.85001410      -0.38912708
20
Frame=2 idx=009138 GeodesicLength=0.1982311695645799 rxn_smarts="[C:1]([C@@:2]1([H:11])[N:3]([C:4]([H:12])([H:13])[H:14])[C:5]1([C:6]([H:15])([H:16])[H:17])[C:7]([H:18])([H:19])[H:20])([H:8])([H:9])[H:10]>>[C:1]([C:2]([N:3]=[C:5]([C:6]([H:15])([H:16])[H:17])[C:7]([H:18])([H:19])[H:20])([C:4]([H:12])([H:13])[H:14])[H:11])([H:8])([H:9])[H:10]"
C       -1.42154064       1.29928821       0.29366876
C       -0.57537720       0.06266346       0.42648282
N       -0.23003952      -0.83285403      -0.93345793
C       -1.58944443      -1.44498063       0.19412391
C        0.76929933      -0.09152648      -0.30933814
C        1.89677039      -0.85094817       0.38047390
C        1.26621223       1.14172227      -1.04438048
H       -2.33464385       1.21043782       0.88654400
H       -0.88539303       2.18001537       0.65275631
H       -1.70639455       1.47025535      -0.74332011
H       -0.39571575      -0.24351908       1.45718084
H       -2.07935278      -1.76664882      -0.71713238
H       -1.12040529      -2.28353723       0.70070547
H       -2.37936908      -1.04390926       0.84133838
H        2.46303408      -0.21490390       1.06630795
H        1.50944066      -1.70105222       0.94377858
H        2.59173923      -1.23959711      -0.36756143
H        0.46165134       1.67032342      -1.54941029
H        1.98717947       0.83981860      -1.80767492
H        1.77234939       1.83895247      -0.37108525
20
Frame=3 idx=009138 GeodesicLength=0.29702426863145714 rxn_smarts="[C:1]([C@@:2]1([H:11])[N:3]([C:4]([H:12])([H:13])[H:14])[C:5]1([C:6]([H:15])([H:16])[H:17])[C:7]([H:18])([H:19])[H:20])([H:8])([H:9])[H:10]>>[C:1]([C:2]([N:3]=[C:5]([C:6]([H:15])([H:16])[H:17])[C:7]([H:18])([H:19])[H:20])([C:4]([H:12])([H:13])[H:14])[H:11])([H:8])([H:9])[H:10]"
C       -1.44419341       1.30533106       0.27848487
C       -0.59042393       0.07490921       0.42665045
N       -0.23944649      -0.81297866      -0.91297709
C       -1.58838287      -1.45172894       0.20614050
C        0.77753394      -0.08769088      -0.30613749
C        1.90391296      -0.86670462       0.36175258
C        1.28317202       1.14800539      -1.02850060
H       -2.35855112       1.21972428       0.86981900
H       -0.91636940       2.19398904       0.63009496
H       -1.72661693       1.46635376      -0.76086582
H       -0.40283532      -0.20920765       1.46219806
H       -2.06664654      -1.80533525      -0.70053955
H       -1.10824416      -2.27213498       0.73324776
H       -2.39643477      -1.06478943       0.83926031
H        2.48249027      -0.24491335       1.05031845
H        1.51843563      -1.71970160       0.92136305
H        2.58939676      -1.25216594      -0.39679487
H        0.48464747       1.70369824      -1.51278972
H        1.98790209       0.84850529      -1.80793985
H        1.81065381       1.82683505      -0.35278499
20
Frame=4 idx=009138 GeodesicLength=0.3956133733699324 rxn_smarts="[C:1]([C@@:2]1([H:11])[N:3]([C:4]([H:12])([H:13])[H:14])[C:5]1([C:6]([H:15])([H:16])[H:17])[C:7]([H:18])([H:19])[H:20])([H:8])([H:9])[H:10]>>[C:1]([C:2]([N:3]=[C:5]([C:6]([H:15])([H:16])[H:17])[C:7]([H:18])([H:19])[H:20])([C:4]([H:12])([H:13])[H:14])[H:11])([H:8])([H:9])[H:10]"
C       -1.46710229       1.31145731       0.26268770
C       -0.60577898       0.08763017       0.42720565
N       -0.24842253      -0.79330831      -0.89181459
C       -1.58690473      -1.45808060       0.21860841
C        0.78572899      -0.08414472      -0.30263033
C        1.91084186      -0.88283587       0.34226042
C        1.29999713       1.15415492      -1.01182243
H       -2.38287823       1.22928863       0.85223263
H       -0.94774779       2.20811667       0.60630755
H       -1.74679458       1.46184619      -0.77910425
H       -0.41025785      -0.17383648       1.46718454
H       -2.05156642      -1.84398822      -0.68314735
H       -1.09644614      -2.25932154       0.76694620
H       -2.41329351      -1.08621318       0.83680530
H        2.50169770      -0.27590000       1.03360237
H        1.52739244      -1.73922698       0.89749688
H        2.58665156      -1.26425586      -0.42712285
H        0.50802148       1.73690555      -1.47374094
H        1.98773385       0.85808485      -1.80778608
H        1.84912805       1.81362746      -0.33416881
20
Frame=5 idx=009138 GeodesicLength=0.4939838128686431 rxn_smarts="[C:1]([C@@:2]1([H:11])[N:3]([C:4]([H:12])([H:13])[H:14])[C:5]1([C:6]([H:15])([H:16])[H:17])[C:7]([H:18])([H:19])[H:20])([H:8])([H:9])[H:10]>>[C:1]([C:2]([N:3]=[C:5]([C:6]([H:15])([H:16])[H:17])[C:7]([H:18])([H:19])[H:20])([C:4]([H:12])([H:13])[H:14])[H:11])([H:8])([H:9])[H:10]"
C       -1.49027320       1.31764553       0.24618153
C       -0.62146735       0.10084353       0.42812139
N       -0.25698633      -0.77381993      -0.86996373
C       -1.58498483      -1.46403393       0.23161912
C        0.79388353      -0.08089328      -0.29881958
C        1.91751680      -0.89938022       0.32190142
C        1.31670743       1.16019813      -0.99425527
H       -2.40765965       1.23911339       0.83364233
H       -0.97955877       2.22237526       0.58128977
H       -1.76687969       1.45668244      -0.79812666
H       -0.41798004      -0.13729158       1.47210049
H       -2.03394965      -1.88267221      -0.66462194
H       -1.08512187      -2.24496734       0.80187316
H       -2.42982869      -1.10823444       0.83395541
H        2.52060988      -0.30797711       1.01608789
H        1.53622642      -1.75968868       0.87198399
H        2.58346080      -1.27582482      -0.45864554
H        0.53186687       1.76993478      -1.43205599
H        1.98663761       0.86870396      -1.80710374
H        1.88778074       1.79928652      -0.31516404
20
Frame=6 idx=009138 GeodesicLength=0.5921476303152803 rxn_smarts="[C:1]([C@@:2]1([H:11])[N:3]([C:4]([H:12])([H:13])[H:14])[C:5]1([C:6]([H:15])([H:16])[H:17])[C:7]([H:18])([H:19])[H:20])([H:8])([H:9])[H:10]>>[C:1]([C:2]([N:3]=[C:5]([C:6]([H:15])([H:16])[H:17])[C:7]([H:18])([H:19])[H:20])([C:4]([H:12])([H:13])[H:14])[H:11])([H:8])([H:9])[H:10]"
C       -1.51370780       1.32386242       0.22886487
C       -0.63751730       0.11456154       0.42937977
N       -0.26514883      -0.75450121      -0.84740162
C       -1.58259452      -1.46958393       0.24526706
C        0.80199968      -0.07794471      -0.29469166
C        1.92389926      -0.91635595       0.30058217
C        1.33332157       1.16615130      -0.97569654
H       -2.43291835       1.24917873       0.81390626
H       -1.01182232       2.23673658       0.55489595
H       -1.78681720       1.45078532      -0.81802613
H       -0.42602256      -0.09946110       1.47689673
H       -2.01374847      -1.92130895      -0.64475430
H       -1.07427953      -2.22900602       0.83808659
H       -2.44594035      -1.13093254       0.83080033
H        2.53919706      -0.34122241       0.99768578
H        1.54484782      -1.78111854       0.84464967
H        2.57977498      -1.28682165      -0.49146436
H        0.55624346       1.80272600      -1.38749613
H        1.98461434       0.88049518      -1.80576608
H        1.92661905       1.78375994      -0.29571836
20
Frame=7 idx=009138 GeodesicLength=0.6901004614133656 rxn_smarts="[C:1]([C@@:2]1([H:11])[N:3]([C:4]([H:12])([H:13])[H:14])[C:5]1([C:6]([H:15])([H:16])[H:17])[C:7]([H:18])([H:19])[H:20])([H:8])([H:9])[H:10]>>[C:1]([C:2]([N:3]=[C:5]([C:6]([H:15])([H:16])[H:17])[C:7]([H:18])([H:19])[H:20])([C:4]([H:12])([H:13])[H:14])[H:11])([H:8])([H:9])[H:10]"
C       -1.53739748       1.33007625       0.21062614
C       -0.65395685       0.12879648       0.43095558
N       -0.27291991      -0.73534171      -0.82410439
C       -1.57971549      -1.47472293       0.25964468
C        0.81007817      -0.07530335      -0.29023225
C        1.92994542      -0.93378529       0.27820481
C        1.34985733       1.17203506      -0.95602781
H       -2.45866379       1.25946832       0.79287494
H       -1.04454215       2.25116774       0.52697013
H       -1.80655423       1.44406506      -0.83889841
H       -0.43439714      -0.06023714       1.48150992
H       -1.99087282      -1.95986808      -0.62324194
H       -1.06399279      -2.21132722       0.87563154
H       -2.46148893      -1.15438518       0.82738128
H        2.55741590      -0.37573406       0.97830676
H        1.55316163      -1.80355617       0.81529680
H        2.57554213      -1.29717870      -0.52568657
H        0.58122201       1.83520800      -1.33978687
H        1.98162705       0.89362959      -1.80363807
H        1.96565195       1.76699334      -0.27578626
20
Frame=8 idx=009138 GeodesicLength=0.787855876688997 rxn_smarts="[C:1]([C@@:2]1([H:11])[N:3]([C:4]([H:12])([H:13])[H:14])[C:5]1([C:6]([H:15])([H:16])[H:17])[C:7]([H:18])([H:19])[H:20])([H:8])([H:9])[H:10]>>[C:1]([C:2]([N:3]=[C:5]([C:6]([H:15])([H:16])[H:17])[C:7]([H:18])([H:19])[H:20])([C:4]([H:12])([H:13])[H:14])[H:11])([H:8])([H:9])[H:10]"
C       -1.56132163       1.33624711       0.19133450
C       -0.67081982       0.14356338       0.43281520
N       -0.28031191      -0.71632903      -0.80003975
C       -1.57632437      -1.47944556       0.27485628
C        0.81811297      -0.07298581      -0.28542659
C        1.93560016      -0.95168519       0.25464741
C        1.36632073       1.17786129      -0.93511724
H       -2.48488700       1.26996758       0.77036626
H       -1.07769450       2.26562984       0.49730101
H       -1.82601988       1.43642593      -0.86085539
H       -0.44313123      -0.01950192       1.48585454
H       -1.96525343      -1.99830346      -0.59974891
H       -1.05429219      -2.19179820       0.91452901
H       -2.47633101      -1.17869755       0.82380885
H        2.57520721      -0.41161527       0.95782773
H        1.56104900      -1.82702511       0.78370687
H        2.57070360      -1.30681413      -0.56143863
H        0.60684831       1.86729358      -1.28858289
H        1.97767558       0.90830742      -1.80054666
H        2.00486943       1.74890510      -0.25529160
20
Frame=9 idx=009138 GeodesicLength=0.88545728757317 rxn_smarts="[C:1]([C@@:2]1([H:11])[N:3]([C:4]([H:12])([H:13])[H:14])[C:5]1([C:6]([H:15])([H:16])[H:17])[C:7]([H:18])([H:19])[H:20])([H:8])([H:9])[H:10]>>[C:1]([C:2]([N:3]=[C:5]([C:6]([H:15])([H:16])[H:17])[C:7]([H:18])([H:19])[H:20])([C:4]([H:12])([H:13])[H:14])[H:11])([H:8])([H:9])[H:10]"
C       -1.58543662       1.34229185       0.17085584
C       -0.68816261       0.15880771       0.43491957
N       -0.28733546      -0.69746717      -0.77517534
C       -1.57243225      -1.48374385       0.29096516
C        0.82613613      -0.07102520      -0.28024234
C        1.94082301      -0.96996954       0.22988060
C        1.38275584       1.18357980      -0.91285558
H       -2.51161202       1.28062574       0.74617777
H       -1.11121711       2.28000005       0.46569970
H       -1.84503025       1.42780039      -0.88400531
H       -0.45235208       0.02271932       1.48984730
H       -1.93753737      -2.03610106      -0.57435270
H       -1.04455398      -2.17070211       0.95452067
H       -2.49034029      -1.20385422       0.82066665
H        2.59257509      -0.44882621       0.93614290
H        1.56844799      -1.85133946       0.74979165
H        2.56511802      -1.31558241      -0.59865880
H        0.63305271       1.89875526      -1.23370891
H        1.97282314       0.92456731      -1.79616916
H        2.04427812       1.72946379      -0.23429966
20
Frame=10 idx=009138 GeodesicLength=0.9828756190874155 rxn_smarts="[C:1]([C@@:2]1([H:11])[N:3]([C:4]([H:12])([H:13])[H:14])[C:5]1([C:6]([H:15])([H:16])[H:17])[C:7]([H:18])([H:19])[H:20])([H:8])([H:9])[H:10]>>[C:1]([C:2]([N:3]=[C:5]([C:6]([H:15])([H:16])[H:17])[C:7]([H:18])([H:19])[H:20])([C:4]([H:12])([H:13])[H:14])[H:11])([H:8])([H:9])[H:10]"
C       -1.60970577       1.34817779       0.14903561
C       -0.70601143       0.17458180       0.43724411
N       -0.29399573      -0.67874617      -0.74945797
C       -1.56798165      -1.48759950       0.30814236
C        0.83411158      -0.06942305      -0.27466029
C        1.94554916      -0.98871566       0.20366722
C        1.39913719       1.18925594      -0.88901753
H       -2.53877540       1.29145505       0.72012427
H       -1.14505784       2.29426561       0.43186368
H       -1.86358810       1.41798749      -0.90847095
H       -0.46202417       0.06666186       1.49338733
H       -1.90704040      -2.07354330      -0.54646689
H       -1.03541287      -2.14759398       0.99591720
H       -2.50335974      -1.22997896       0.81774739
H        2.60943818      -0.48758813       0.91305020
H        1.57519352      -1.87664710       0.71316816
H        2.55877086      -1.32340061      -0.63766666
H        0.65998949       1.92951260      -1.17463131
H        1.96691847       0.94276089      -1.79038882
H        2.08384468       1.70857742      -0.21258711
20
Frame=11 idx=009138 GeodesicLength=1.0801465510273738 rxn_smarts="[C:1]([C@@:2]1([H:11])[N:3]([C:4]([H:12])([H:13])[H:14])[C:5]1([C:6]([H:15])([H:16])[H:17])[C:7]([H:18])([H:19])[H:20])([H:8])([H:9])[H:10]>>[C:1]([C:2]([N:3]=[C:5]([C:6]([H:15])([H:16])[H:17])[C:7]([H:18])([H:19])[H:20])([C:4]([H:12])([H:13])[H:14])[H:11])([H:8])([H:9])[H:10]"
C       -1.63407001       1.35383926       0.12571500
C       -0.72441245       0.19087133       0.43976292
N       -0.30029459      -0.66017957      -0.72282288
C       -1.56297476      -1.49098279       0.32651829
C        0.84203636      -0.06820799      -0.26865025
C        1.94972664      -1.00789638       0.17584786
C        1.41546344       1.19489164      -0.86341465
H       -2.56632945       1.30246219       0.69201707
H       -1.17911154       2.30834276       0.39547060
H       -1.88160339       1.40679450      -0.93437585
H       -0.47220989       0.11242592       1.49637153
H       -1.87376425      -2.11045166      -0.51580408
H       -1.02690621      -2.12241897       1.03873298
H       -2.51520427      -1.25713318       0.81523508
H        2.62577082      -0.52797422       0.88834763
H        1.58117796      -1.90290057       0.67358607
H        2.55156557      -1.33011258      -0.67861337
H        0.68770621       1.95934345      -1.11092943
H        1.95989956       0.96310528      -1.78292662
H        2.12353427       1.68618157      -0.19006790
20
Frame=12 idx=009138 GeodesicLength=1.1773034649549357 rxn_smarts="[C:1]([C@@:2]1([H:11])[N:3]([C:4]([H:12])([H:13])[H:14])[C:5]1([C:6]([H:15])([H:16])[H:17])[C:7]([H:18])([H:19])[H:20])([H:8])([H:9])[H:10]>>[C:1]([C:2]([N:3]=[C:5]([C:6]([H:15])([H:16])[H:17])[C:7]([H:18])([H:19])[H:20])([C:4]([H:12])([H:13])[H:14])[H:11])([H:8])([H:9])[H:10]"
C       -1.65843532       1.35918927       0.10070416
C       -0.74341630       0.20765534       0.44244124
N       -0.30623086      -0.64178989      -0.69518825
C       -1.55741614      -1.49386945       0.34623211
C        0.84990400      -0.06740995      -0.26216547
C        1.95330076      -1.02747131       0.14623675
C        1.43172144       1.20048076      -0.83581336
H       -2.59418244       1.31366372       0.66162785
H       -1.21319535       2.32211264       0.35612505
H       -1.89896786       1.39398861      -0.96184004
H       -0.48298516       0.16010967       1.49865447
H       -1.83775947      -2.14664666      -0.48206952
H       -1.01904542      -2.09508812       1.08297726
H       -2.52573901      -1.28536141       0.81341703
H        2.64154007      -0.57004937       0.86178683
H        1.58628528      -1.93003063       0.63074257
H        2.54340569      -1.33551809      -0.72167796
H        0.71619532       1.98795857      -1.04212140
H        1.95174440       0.98586196      -1.77344018
H        2.16327636       1.66221434      -0.16662913
20
Frame=13 idx=009138 GeodesicLength=1.2743638645463795 rxn_smarts="[C:1]([C@@:2]1([H:11])[N:3]([C:4]([H:12])([H:13])[H:14])[C:5]1([C:6]([H:15])([H:16])[H:17])[C:7]([H:18])([H:19])[H:20])([H:8])([H:9])[H:10]>>[C:1]([C:2]([N:3]=[C:5]([C:6]([H:15])([H:16])[H:17])[C:7]([H:18])([H:19])[H:20])([C:4]([H:12])([H:13])[H:14])[H:11])([H:8])([H:9])[H:10]"
C       -1.68267776       1.36410643       0.07380382
C       -0.76309267       0.22485380       0.44524317
N       -0.31178390      -0.62362461      -0.66645390
C       -1.55137505      -1.49621787       0.36738092
C        0.85774501      -0.06708043      -0.25514598
C        1.95624295      -1.04730013       0.11471230
C        1.44792496       1.20596468      -0.80597779
H       -2.62223063       1.32509082       0.62874718
H       -1.24702758       2.33536969       0.31338476
H       -1.91551259       1.37930340      -0.99098214
H       -0.49453579       0.20967253       1.50011799
H       -1.79966891      -2.18158090      -0.44535855
H       -1.01141861      -2.06590178       1.12843468
H       -2.53480354      -1.31456945       0.81303440
H        2.65678550      -0.61373229       0.83309763
H        1.59047100      -1.95780629       0.58445763
H        2.53414515      -1.33933958      -0.76692057
H        0.74530175       2.01492222      -0.96793590
H        1.94254951       1.01115945      -1.76142321
H        2.20296120       1.63671030      -0.14221644
20
Frame=14 idx=009138 GeodesicLength=1.371394605280198 rxn_smarts="[C:1]([C@@:2]1([H:11])[N:3]([C:4]([H:12])([H:13])[H:14])[C:5]1([C:6]([H:15])([H:16])[H:17])[C:7]([H:18])([H:19])[H:20])([H:8])([H:9])[H:10]>>[C:1]([C:2]([N:3]=[C:5]([C:6]([H:15])([H:16])[H:17])[C:7]([H:18])([H:19])[H:20])([C:4]([H:12])([H:13])[H:14])[H:11])([H:8])([H:9])[H:10]"
C       -1.70664587       1.36850756       0.04479131
C       -0.78348990       0.24246694       0.44813963
N       -0.31695615      -0.60572247      -0.63649096
C       -1.54486640      -1.49799482       0.39017690
C        0.86552169      -0.06724096      -0.24752927
C        1.95848858      -1.06734950       0.08093653
C        1.46401159       1.21137829      -0.77356463
H       -2.65028334       1.33684168       0.59312209
H       -1.28028876       2.34798024       0.26668996
H       -1.93116390       1.36237355      -1.02193458
H       -0.50689326       0.26129071       1.50058901
H       -1.75907579      -2.21542755      -0.40501148
H       -1.00453903      -2.03445566       1.17537512
H       -2.54228304      -1.34482650       0.81403706
H        2.67145407      -0.65917482       0.80189165
H        1.59358988      -1.98621222       0.53422160
H        2.52370114      -1.34129728      -0.81471603
H        0.77509982       2.03984242      -0.88764577
H        1.93213044       1.03944693      -1.74650624
H        2.24248820       1.60957345      -0.11657191
20
Frame=15 idx=009138 GeodesicLength=1.468466976555672 rxn_smarts="[C:1]([C@@:2]1([H:11])[N:3]([C:4]([H:12])([H:13])[H:14])[C:5]1([C:6]([H:15])([H:16])[H:17])[C:7]([H:18])([H:19])[H:20])([H:8])([H:9])[H:10]>>[C:1]([C:2]([N:3]=[C:5]([C:6]([H:15])([H:16])[H:17])[C:7]([H:18])([H:19])[H:20])([C:4]([H:12])([H:13])[H:14])[H:11])([H:8])([H:9])[H:10]"
C       -1.73015003       1.37226519       0.01344712
C       -0.80466904       0.26041712       0.45111108
N       -0.32172350      -0.58815732      -0.60514242
C       -1.53796626      -1.49916221       0.41479426
C        0.87323982      -0.06794175      -0.23924512
C        1.96000224      -1.08746021       0.04465617
C        1.47994297       1.21668198      -0.73826289
H       -2.67814703       1.34903982       0.55452279
H       -1.31254932       2.35969669       0.21548288
H       -1.94577979       1.34281517      -1.05479920
H       -0.52019540       0.31498479       1.49992132
H       -1.71628081      -2.24792807      -0.36087448
H       -0.99840492      -2.00080012       1.22383743
H       -2.54808663      -1.37605092       0.81685656
H        2.68557609      -0.70630583       0.76775157
H        1.59558648      -2.01502914       0.47970089
H        2.51192539      -1.34102417      -0.86527595
H        0.80550865       2.06216138      -0.80078586
H        1.92045660       1.07097782      -1.72813761
H        2.28171449       1.58081977      -0.08955854
20
Frame=16 idx=009138 GeodesicLength=1.5656664345645046 rxn_smarts="[C:1]([C@@:2]1([H:11])[N:3]([C:4]([H:12])([H:13])[H:14])[C:5]1([C:6]([H:15])([H:16])[H:17])[C:7]([H:18])([H:19])[H:20])([H:8])([H:9])[H:10]>>[C:1]([C:2]([N:3]=[C:5]([C:6]([H:15])([H:16])[H:17])[C:7]([H:18])([H:19])[H:20])([C:4]([H:12])([H:13])[H:14])[H:11])([H:8])([H:9])[H:10]"
C       -1.75295524       1.37523017      -0.02048667
C       -0.82670565       0.27862156       0.45412019
N       -0.32606768      -0.57100612      -0.57223179
C       -1.53075750      -1.49969045       0.44142838
C        0.88089780      -0.06923865      -0.23020790
C        1.96072750      -1.10742880       0.00554642
C        1.49567139       1.22181403      -0.69968953
H       -2.70556342       1.36183379       0.51266399
H       -1.34324127       2.37018945       0.15913250
H       -1.95917927       1.32018643      -1.08967488
H       -0.53461460       0.37075406       1.49794555
H       -1.67155090      -2.27888970      -0.31266328
H       -0.99302484      -1.96492333       1.27394615
H       -2.55219361      -1.40810656       0.82195171
H        2.69919379      -0.75504983       0.73012060
H        1.59638756      -2.04398120       0.42044900
H        2.49860104      -1.33805914      -0.91888793
H        0.83635739       2.08125600      -0.70690216
H        1.90759447       1.10599887      -1.70564014
H        2.32042302       1.55048940      -0.06092020
