15
Frame=0 idx=009285 GeodesicLength=0.0 rxn_smarts="[C:1]([C:2]([C:3]([H:12])([H:13])[H:14])([C:4](=[O:5])[C:6]#[C:7][H:15])[H:11])([H:8])([H:9])[H:10]>>[C:1]([C:2]([C:3]([C:7](=[C:6]=[C:4]=[O:5])[H:15])([H:12])[H:14])([H:11])[H:13])([H:8])([H:9])[H:10]"
C       -1.42656293       0.45385584      -0.78532884
C       -0.06447195      -0.21684738      -0.61699789
C        0.18739289      -1.02178576       0.66619825
C        1.05772406       1.19318040      -0.45838577
O        1.13530382       1.87974106      -1.41473975
C        1.58871778       1.12153037       0.86511019
C        1.26683837       0.09160499       1.55236683
H       -1.72048926       0.94854769       0.14274304
H       -2.21999474      -0.23544376      -1.07629515
H       -1.34500601       1.21656167      -1.55841255
H        0.34985105      -0.63685561      -1.53396806
H       -0.63471782      -1.12807750       1.37289207
H       -0.51677676      -1.47970094      -0.30602428
H        0.84013682      -1.89248647       0.61889319
H        1.50205468      -0.29382465       2.53194877
15
Frame=1 idx=009285 GeodesicLength=0.08691663285566892 rxn_smarts="[C:1]([C:2]([C:3]([H:12])([H:13])[H:14])([C:4](=[O:5])[C:6]#[C:7][H:15])[H:11])([H:8])([H:9])[H:10]>>[C:1]([C:2]([C:3]([C:7](=[C:6]=[C:4]=[O:5])[H:15])([H:12])[H:14])([H:11])[H:13])([H:8])([H:9])[H:10]"
C       -1.43375150       0.44783562      -0.79372332
C       -0.07387677      -0.22193230      -0.61426601
C        0.17442116      -1.02140459       0.67064703
C        1.05944678       1.20306462      -0.45713375
O        1.13552682       1.90870754      -1.40001172
C        1.61742314       1.10213332       0.84926136
C        1.28903195       0.09134792       1.55881508
H       -1.74813710       0.92843327       0.13495836
H       -2.21826725      -0.24028688      -1.11063398
H       -1.34700226       1.22369817      -1.55292773
H        0.35783141      -0.63604964      -1.52573141
H       -0.64741422      -1.11383349       1.37980064
H       -0.52939448      -1.49121866      -0.30834110
H        0.82617571      -1.89334977       0.63172854
H        1.53798660      -0.28714514       2.53755800
15
Frame=2 idx=009285 GeodesicLength=0.1734908125936046 rxn_smarts="[C:1]([C:2]([C:3]([H:12])([H:13])[H:14])([C:4](=[O:5])[C:6]#[C:7][H:15])[H:11])([H:8])([H:9])[H:10]>>[C:1]([C:2]([C:3]([C:7](=[C:6]=[C:4]=[O:5])[H:15])([H:12])[H:14])([H:11])[H:13])([H:8])([H:9])[H:10]"
C       -1.44081879       0.44178401      -0.80232839
C       -0.08343332      -0.22736267      -0.61162363
C        0.16112665      -1.02092621       0.67528447
C        1.06148120       1.21274851      -0.45581009
O        1.13567349       1.93821479      -1.38407702
C        1.64435618       1.08253385       0.83306603
C        1.31186566       0.09092332       1.56490367
H       -1.77592132       0.90790969       0.12639167
H       -2.21581990      -0.24464483      -1.14535977
H       -1.34886982       1.23079697      -1.54713149
H        0.36565829      -0.63552125      -1.51719905
H       -0.66028036      -1.09901671       1.38683120
H       -0.54228558      -1.50295705      -0.31042505
H        0.81192933      -1.89400576       0.64506447
H        1.57533829      -0.28047666       2.54241301
15
Frame=3 idx=009285 GeodesicLength=0.259798616214286 rxn_smarts="[C:1]([C:2]([C:3]([H:12])([H:13])[H:14])([C:4](=[O:5])[C:6]#[C:7][H:15])[H:11])([H:8])([H:9])[H:10]>>[C:1]([C:2]([C:3]([C:7](=[C:6]=[C:4]=[O:5])[H:15])([H:12])[H:14])([H:11])[H:13])([H:8])([H:9])[H:10]"
C       -1.44774732       0.43570575      -0.81113330
C       -0.09314216      -0.23318180      -0.60909803
C        0.14750372      -1.02036469       0.68009593
C        1.06392421       1.22214672      -0.45452193
O        1.13577448       1.96823511      -1.36689745
C        1.66927218       1.06300756       0.81672540
C        1.33540597       0.09027688       1.57058289
H       -1.80377563       0.88700776       0.11703526
H       -2.21265824      -0.24847775      -1.18041483
H       -1.35058654       1.23784206      -1.54100975
H        0.37329705      -0.63534406      -1.50840508
H       -0.67331215      -1.08363127       1.39396954
H       -0.55549129      -1.51494856      -0.31226616
H        0.79741113      -1.89444775       0.65887585
H        1.61412457      -0.27382595       2.54646166
15
Frame=4 idx=009285 GeodesicLength=0.3458642543880315 rxn_smarts="[C:1]([C:2]([C:3]([H:12])([H:13])[H:14])([C:4](=[O:5])[C:6]#[C:7][H:15])[H:11])([H:8])([H:9])[H:10]>>[C:1]([C:2]([C:3]([C:7](=[C:6]=[C:4]=[O:5])[H:15])([H:12])[H:14])([H:11])[H:13])([H:8])([H:9])[H:10]"
C       -1.45452344       0.42960168      -0.82013969
C       -0.10300662      -0.23941832      -0.60670181
C        0.13354018      -1.01971858       0.68508026
C        1.06683351       1.23120010      -0.45337433
O        1.13583044       1.99875071      -1.34842402
C        1.69203013       1.04377522       0.80041522
C        1.35968136       0.08935936       1.57581574
H       -1.83166151       0.86574709       0.10685960
H       -2.20876441      -0.25176506      -1.21576440
H       -1.35213917       1.24481449      -1.53456098
H        0.38072267      -0.63557538      -1.49935781
H       -0.68651101      -1.06766331       1.40120003
H       -0.56904113      -1.52721213      -0.31384025
H        0.78262465      -1.89465614       0.67316500
H        1.65438436      -0.26723974       2.54962745
15
Frame=5 idx=009285 GeodesicLength=0.4318026469867263 rxn_smarts="[C:1]([C:2]([C:3]([H:12])([H:13])[H:14])([C:4](=[O:5])[C:6]#[C:7][H:15])[H:11])([H:8])([H:9])[H:10]>>[C:1]([C:2]([C:3]([C:7](=[C:6]=[C:4]=[O:5])[H:15])([H:12])[H:14])([H:11])[H:13])([H:8])([H:9])[H:10]"
C       -1.46114514       0.42347318      -0.82935037
C       -0.11302752      -0.24609725      -0.60445267
C        0.11922020      -1.01899931       0.69024794
C        1.07025285       1.23990320      -0.45248477
O        1.13582959       2.02980239      -1.32861925
C        1.71263615       1.02499011       0.78424891
C        1.38470487       0.08813495       1.58058410
H       -1.85957607       0.84414302       0.09585570
H       -2.20411975      -0.25450770      -1.25138853
H       -1.35352888       1.25172305      -1.52778787
H        0.38792840      -0.63627240      -1.49009159
H       -0.69989334      -1.05110989       1.40853486
H       -0.58295732      -1.53979504      -0.31512426
H        0.76757036      -1.89464463       0.68794684
H        1.69610559      -0.26074368       2.55188095
15
Frame=6 idx=009285 GeodesicLength=0.5173381798112386 rxn_smarts="[C:1]([C:2]([C:3]([H:12])([H:13])[H:14])([C:4](=[O:5])[C:6]#[C:7][H:15])[H:11])([H:8])([H:9])[H:10]>>[C:1]([C:2]([C:3]([C:7](=[C:6]=[C:4]=[O:5])[H:15])([H:12])[H:14])([H:11])[H:13])([H:8])([H:9])[H:10]"
C       -1.46762484       0.41726552      -0.83880813
C       -0.12321399      -0.25319681      -0.60232925
C        0.10454014      -1.01812363       0.69555941
C        1.07410595       1.24817667      -0.45176959
O        1.13558760       2.06133235      -1.30712809
C        1.73148922       1.00641295       0.76809380
C        1.41047797       0.08656044       1.58485370
H       -1.88751732       0.82215571       0.08385424
H       -2.19872612      -0.25671487      -1.28724064
H       -1.35480227       1.25842003      -1.52069361
H        0.39490191      -0.63737764      -1.48049706
H       -0.71344149      -1.03383518       1.41583255
H       -0.59721545      -1.55258901      -0.31613323
H        0.75222897      -1.89427336       0.70325430
H        1.73920973      -0.25421317       2.55315161
15
Frame=7 idx=009285 GeodesicLength=0.602631513500724 rxn_smarts="[C:1]([C:2]([C:3]([H:12])([H:13])[H:14])([C:4](=[O:5])[C:6]#[C:7][H:15])[H:11])([H:8])([H:9])[H:10]>>[C:1]([C:2]([C:3]([C:7](=[C:6]=[C:4]=[O:5])[H:15])([H:12])[H:14])([H:11])[H:13])([H:8])([H:9])[H:10]"
C       -1.47395487       0.41097844      -0.84853079
C       -0.13358477      -0.26073770      -0.60031442
C        0.08944798      -1.01704059       0.70107800
C        1.07847300       1.25605544      -0.45140635
O        1.13521226       2.09323003      -1.28402415
C        1.74813504       0.98850341       0.75240401
C        1.43708064       0.08460381       1.58857153
H       -1.91553353       0.79971170       0.07083605
H       -2.19247042      -0.25838703      -1.32350239
H       -1.35593237       1.26493131      -1.51326518
H        0.40161360      -0.63898718      -1.47056371
H       -0.72719457      -1.01578019       1.42315576
H       -0.61191867      -1.56561122      -0.31675955
H        0.73654478      -1.89348932       0.71913760
H        1.78408190      -0.24798091       2.55318362
15
Frame=8 idx=009285 GeodesicLength=0.6878696697261721 rxn_smarts="[C:1]([C:2]([C:3]([H:12])([H:13])[H:14])([C:4](=[O:5])[C:6]#[C:7][H:15])[H:11])([H:8])([H:9])[H:10]>>[C:1]([C:2]([C:3]([C:7](=[C:6]=[C:4]=[O:5])[H:15])([H:12])[H:14])([H:11])[H:13])([H:8])([H:9])[H:10]"
C       -1.48015700       0.40459072      -0.85855425
C       -0.14413278      -0.26872654      -0.59842792
C        0.07391153      -1.01576624       0.70682962
C        1.08331273       1.26363668      -0.45140952
O        1.13457550       2.12567982      -1.25910659
C        1.76302801       0.97108805       0.73697136
C        1.46450585       0.08224293       1.59174703
H       -1.94369188       0.77683219       0.05674243
H       -2.18534045      -0.25958677      -1.36013675
H       -1.35695514       1.27125857      -1.50555163
H        0.40811843      -0.64111246      -1.46033004
H       -0.74120419      -0.99689133       1.43053689
H       -0.62705014      -1.57893193      -0.31699381
H        0.72047622      -1.89235289       0.73567085
H        1.83060332      -0.24196080       2.55201233
15
Frame=9 idx=009285 GeodesicLength=0.7729662236789774 rxn_smarts="[C:1]([C:2]([C:3]([H:12])([H:13])[H:14])([C:4](=[O:5])[C:6]#[C:7][H:15])[H:11])([H:8])([H:9])[H:10]>>[C:1]([C:2]([C:3]([C:7](=[C:6]=[C:4]=[O:5])[H:15])([H:12])[H:14])([H:11])[H:13])([H:8])([H:9])[H:10]"
C       -1.48622845       0.39807045      -0.86889975
C       -0.15486792      -0.27716190      -0.59665917
C        0.05790759      -1.01423522       0.71281338
C        1.08860379       1.27092116      -0.45179432
O        1.13361413       2.15858102      -1.23217430
C        1.77626337       0.95413785       0.72182906
C        1.49275073       0.07946665       1.59434248
H       -1.97199546       0.75345758       0.04148459
H       -2.17727965      -0.26031999      -1.39716174
H       -1.35788992       1.27734419      -1.49752797
H        0.41440308      -0.64375189      -1.44974927
H       -0.75547483      -0.97707427       1.43791563
H       -0.64262360      -1.59251236      -0.31680814
H        0.70400025      -1.89075560       0.75289204
H        1.87881688      -0.23616768       2.54949747
15
Frame=10 idx=009285 GeodesicLength=0.8579394097693596 rxn_smarts="[C:1]([C:2]([C:3]([H:12])([H:13])[H:14])([C:4](=[O:5])[C:6]#[C:7][H:15])[H:11])([H:8])([H:9])[H:10]>>[C:1]([C:2]([C:3]([C:7](=[C:6]=[C:4]=[O:5])[H:15])([H:12])[H:14])([H:11])[H:13])([H:8])([H:9])[H:10]"
C       -1.49217319       0.39139738      -0.87959528
C       -0.16579573      -0.28604244      -0.59500127
C        0.04141016      -1.01239969       0.71904265
C        1.09433528       1.27795560      -0.45258325
O        1.13227999       2.19182795      -1.20308113
C        1.78786898       0.93769508       0.70704773
C        1.52186919       0.07623307       1.59630592
H       -2.00046298       0.72954338       0.02497562
H       -2.16822986      -0.26059950      -1.43460131
H       -1.35876757       1.28316154      -1.48918555
H        0.42047541      -0.64690815      -1.43878775
H       -0.77002103      -0.95623796       1.44526077
H       -0.65865839      -1.60634107      -0.31616503
H        0.68708942      -1.88863240       0.77085406
H        1.92878031      -0.23065279       2.54551383
15
Frame=11 idx=009285 GeodesicLength=0.9427885124846921 rxn_smarts="[C:1]([C:2]([C:3]([H:12])([H:13])[H:14])([C:4](=[O:5])[C:6]#[C:7][H:15])[H:11])([H:8])([H:9])[H:10]>>[C:1]([C:2]([C:3]([C:7](=[C:6]=[C:4]=[O:5])[H:15])([H:12])[H:14])([H:11])[H:13])([H:8])([H:9])[H:10]"
C       -1.49799132       0.38454702      -0.89066842
C       -0.17692075      -0.29536285      -0.59344157
C        0.02438384      -1.01020175       0.72553672
C        1.10047068       1.28481417      -0.45376871
O        1.13053933       2.22528125      -1.17169732
C        1.79787186       0.92179289       0.69269490
C        1.55187186       0.07252514       1.59760117
H       -2.02911591       0.70503957       0.00712306
H       -2.15811675      -0.26044321      -1.47247633
H       -1.35961713       1.28867693      -1.48051520
H        0.42635534      -0.65057094      -1.42740386
H       -0.78487211      -0.93428904       1.45253838
H       -0.67516262      -1.62040505      -0.31502550
H        0.66971311      -1.88589792       0.78961849
H        1.98059055      -0.22550620       2.53988419
15
Frame=12 idx=009285 GeodesicLength=1.027519156380392 rxn_smarts="[C:1]([C:2]([C:3]([H:12])([H:13])[H:14])([C:4](=[O:5])[C:6]#[C:7][H:15])[H:11])([H:8])([H:9])[H:10]>>[C:1]([C:2]([C:3]([C:7](=[C:6]=[C:4]=[O:5])[H:15])([H:12])[H:14])([H:11])[H:13])([H:8])([H:9])[H:10]"
C       -1.50368404       0.37749712      -0.90213779
C       -0.18824715      -0.30511470      -0.59196640
C        0.00679765      -1.00758860       0.73230860
C        1.10696147       1.29159172      -0.45531380
O        1.12838141       2.25875542      -1.13793817
C        1.80629217       0.90646281       0.67884152
C        1.58278616       0.06830996       1.59817875
H       -2.05796801       0.67988909      -0.01215816
H       -2.14686446      -0.25986169      -1.51079579
H       -1.36047820       1.29386294      -1.47149064
H        0.43206371      -0.65471059      -1.41555611
H       -0.80005068      -0.91114625       1.45970504
H       -0.69213875      -1.63469202      -0.31335880
H        0.65184902      -1.88246656       0.80923599
H        2.03429970      -0.22078866       2.53244576
15
Frame=13 idx=009285 GeodesicLength=1.1121393916437898 rxn_smarts="[C:1]([C:2]([C:3]([H:12])([H:13])[H:14])([C:4](=[O:5])[C:6]#[C:7][H:15])[H:11])([H:8])([H:9])[H:10]>>[C:1]([C:2]([C:3]([C:7](=[C:6]=[C:4]=[O:5])[H:15])([H:12])[H:14])([H:11])[H:13])([H:8])([H:9])[H:10]"
C       -1.50925217       0.37022312      -0.91402459
C       -0.19977905      -0.31528446      -0.59055349
C       -0.01138811      -1.00450078       0.73937885
C        1.11373507       1.29841270      -0.45713721
O        1.12582124       2.29202378      -1.10178307
C        1.81311389       0.89176079       0.66559266
C        1.61462669       0.06356338       1.59799830
H       -2.08703732       0.65402266      -0.03296607
H       -2.13438118      -0.25886652      -1.54957442
H       -1.36139799       1.29869098      -1.46208115
H        0.43763404      -0.65927694      -1.40318634
H       -0.81559329      -0.88672655       1.46671399
H       -0.70958142      -1.64918792      -0.31113182
H        0.63347260      -1.87823752       0.82976983
H        2.09000699      -0.21661670       2.52298454
15
Frame=14 idx=009285 GeodesicLength=1.1966573345375195 rxn_smarts="[C:1]([C:2]([C:3]([H:12])([H:13])[H:14])([C:4](=[O:5])[C:6]#[C:7][H:15])[H:11])([H:8])([H:9])[H:10]>>[C:1]([C:2]([C:3]([C:7](=[C:6]=[C:4]=[O:5])[H:15])([H:12])[H:14])([H:11])[H:13])([H:8])([H:9])[H:10]"
C       -1.51469510       0.36270222      -0.92633867
C       -0.21151941      -0.32585540      -0.58917479
C       -0.03021256      -1.00088335       0.74676496
C        1.12070139       1.30542494      -0.45911405
O        1.12291228       2.32481289      -1.06331602
C        1.81828694       0.87776630       0.65309565
C        1.64742601       0.05824127       1.59700097
H       -2.11633669       0.62734686      -0.05539143
H       -2.12055908      -0.25745563      -1.58882359
H       -1.36243852       1.30314207      -1.45222381
H        0.44310484      -0.66419431      -1.39022941
H       -0.83153353      -0.86095574       1.47351181
H       -0.72747791      -1.66387889      -0.30831788
H        0.61456476      -1.87310646       0.85127492
H        2.14777658      -0.21310677       2.51128135
15
Frame=15 idx=009285 GeodesicLength=1.2810816446181086 rxn_smarts="[C:1]([C:2]([C:3]([H:12])([H:13])[H:14])([C:4](=[O:5])[C:6]#[C:7][H:15])[H:11])([H:8])([H:9])[H:10]>>[C:1]([C:2]([C:3]([C:7](=[C:6]=[C:4]=[O:5])[H:15])([H:12])[H:14])([H:11])[H:13])([H:8])([H:9])[H:10]"
C       -1.52000906       0.35492165      -0.93906391
C       -0.22347024      -0.33681806      -0.58780621
C       -0.04970632      -0.99670938       0.75446676
C        1.12777734       1.31276108      -0.46109930
O        1.11975024       2.35684426      -1.02270583
C        1.82175612       0.86455230       0.64150320
C        1.68120210       0.05229291       1.59512189
H       -2.14584103       0.59979029      -0.07949391
H       -2.10530983      -0.25560125      -1.62850126
H       -1.36366385       1.30719955      -1.44183266
H        0.44850416      -0.66937428      -1.37663346
H       -0.84790284      -0.83382604       1.48002353
H       -0.74580585      -1.67876430      -0.30491412
H        0.59513862      -1.86697793       0.87377197
H        2.20758045      -0.21029078       2.49716332
15
Frame=16 idx=009285 GeodesicLength=1.3654202301793468 rxn_smarts="[C:1]([C:2]([C:3]([H:12])([H:13])[H:14])([C:4](=[O:5])[C:6]#[C:7][H:15])[H:11])([H:8])([H:9])[H:10]>>[C:1]([C:2]([C:3]([C:7](=[C:6]=[C:4]=[O:5])[H:15])([H:12])[H:14])([H:11])[H:13])([H:8])([H:9])[H:10]"
C       -1.52518634       0.34687645      -0.95216304
C       -0.23563261      -0.34817037      -0.58642630
C       -0.06989318      -0.99197631       0.76246883
C        1.13489269       1.32053711      -0.46293218
O        1.11645357       2.38784813      -0.98019748
C        1.82346222       0.85218034       0.63098487
C        1.71600290       0.04562825       1.59225170
H       -2.17549636       0.57128245      -0.10530608
H       -2.08855047      -0.25324804      -1.66853672
H       -1.36514458       1.31085341      -1.43078780
H        0.45384882      -0.67471825      -1.36235889
H       -0.86472108      -0.80536494       1.48616379
H       -0.76454299      -1.69385204      -0.30093490
H        0.57522068      -1.85977289       0.89725252
H        2.26928672      -0.20810331       2.48052168
