6
Frame=0 idx=004934 GeodesicLength=0.0 rxn_smarts="[C:1](#[C:2][C:3]#[N:4])[C:5]#[N:6]>>[C:1]([C:2]#[C+:3])#[C:5][N:6]=[N-:4]"
C       -0.53026834      -0.23177304       0.89781855
C        0.72942137      -0.38670236       1.24726998
C        1.35268226      -0.10031393       0.14438988
N        0.52801850       0.34696598      -1.30224449
C       -1.46198227       0.05802722       0.02100798
N       -0.61787150       0.31379614      -1.00824190
6
Frame=1 idx=004934 GeodesicLength=0.1795230029407826 rxn_smarts="[C:1](#[C:2][C:3]#[N:4])[C:5]#[N:6]>>[C:1]([C:2]#[C+:3])#[C:5][N:6]=[N-:4]"
C       -0.53498660      -0.24754069       0.90442191
C        0.72474590      -0.38780697       1.24895780
C        1.37088513      -0.09134559       0.15874731
N        0.54101216       0.33722374      -1.32617495
C       -1.46000353       0.06442844       0.02582261
N       -0.64165305       0.32504107      -1.01177470
6
Frame=2 idx=004934 GeodesicLength=0.3588045497237815 rxn_smarts="[C:1](#[C:2][C:3]#[N:4])[C:5]#[N:6]>>[C:1]([C:2]#[C+:3])#[C:5][N:6]=[N-:4]"
C       -0.53945991      -0.25675769       0.91293843
C        0.72013469      -0.38807277       1.25064289
C        1.38928809      -0.08926170       0.17183536
N        0.55534106       0.33450304      -1.34868683
C       -1.45844062       0.06647765       0.02981336
N       -0.66686332       0.33311148      -1.01654322
6
Frame=3 idx=004934 GeodesicLength=0.538278972248621 rxn_smarts="[C:1](#[C:2][C:3]#[N:4])[C:5]#[N:6]>>[C:1]([C:2]#[C+:3])#[C:5][N:6]=[N-:4]"
C       -0.54370470      -0.25790288       0.92394874
C        0.71544306      -0.38659398       1.25283197
C        1.40793327      -0.10051241       0.18188530
N        0.57174968       0.35275798      -1.36630093
C       -1.45644803       0.07099972       0.03437352
N       -0.69497327       0.32125158      -1.02673860
6
Frame=4 idx=004934 GeodesicLength=0.7175324543531455 rxn_smarts="[C:1](#[C:2][C:3]#[N:4])[C:5]#[N:6]>>[C:1]([C:2]#[C+:3])#[C:5][N:6]=[N-:4]"
C       -0.54818931      -0.26654136       0.93266052
C        0.71075588      -0.39254310       1.25242583
C        1.42777154      -0.08969356       0.19884482
N        0.58789671       0.34040855      -1.39265555
C       -1.45539626       0.07049636       0.03811362
N       -0.72283856       0.33787311      -1.02938924
6
Frame=5 idx=004934 GeodesicLength=0.8970024503559416 rxn_smarts="[C:1](#[C:2][C:3]#[N:4])[C:5]#[N:6]>>[C:1]([C:2]#[C+:3])#[C:5][N:6]=[N-:4]"
C       -0.55244797      -0.26500160       0.94482565
C        0.70616561      -0.38793270       1.25458842
C        1.44749332      -0.10597531       0.20924947
N        0.60679298       0.35908951      -1.41158865
C       -1.45371523       0.06948020       0.04147404
N       -0.75428872       0.33033990      -1.03854893
6
Frame=6 idx=004934 GeodesicLength=1.0764771163905387 rxn_smarts="[C:1](#[C:2][C:3]#[N:4])[C:5]#[N:6]>>[C:1]([C:2]#[C+:3])#[C:5][N:6]=[N-:4]"
C       -0.55655137      -0.26189107       0.95724498
C        0.70160777      -0.38487262       1.25616279
C        1.46794174      -0.12179017       0.22047707
N        0.62706711       0.37817754      -1.43095562
C       -1.45247315       0.06834044       0.04499569
N       -0.78759211       0.32203589      -1.04792491
6
Frame=7 idx=004934 GeodesicLength=1.2560809839793408 rxn_smarts="[C:1](#[C:2][C:3]#[N:4])[C:5]#[N:6]>>[C:1]([C:2]#[C+:3])#[C:5][N:6]=[N-:4]"
C       -0.56096829      -0.26893317       0.96657824
C        0.69662254      -0.39406495       1.25383828
C        1.49029703      -0.10644291       0.24132096
N        0.64729262       0.35964237      -1.46134343
C       -1.45182167       0.06221523       0.04761719
N       -0.82142222       0.34758344      -1.04801123
6
Frame=8 idx=004934 GeodesicLength=1.4354026220347895 rxn_smarts="[C:1](#[C:2][C:3]#[N:4])[C:5]#[N:6]>>[C:1]([C:2]#[C+:3])#[C:5][N:6]=[N-:4]"
C       -0.56501649      -0.26298387       0.97992878
C        0.69217759      -0.38753479       1.25562765
C        1.51219619      -0.12751219       0.25308469
N        0.67118407       0.37923055      -1.48242940
C       -1.45101330       0.05526534       0.05009167
N       -0.85952806       0.34353495      -1.05630338
6
Frame=9 idx=004934 GeodesicLength=1.6145472065896431 rxn_smarts="[C:1](#[C:2][C:3]#[N:4])[C:5]#[N:6]>>[C:1]([C:2]#[C+:3])#[C:5][N:6]=[N-:4]"
C       -0.56879345      -0.25491821       0.99369197
C        0.68781740      -0.38773367       1.25418819
C        1.53455353      -0.14712972       0.26687682
N        0.69724773       0.40724140      -1.50145882
C       -1.44959328       0.06024930       0.05589822
N       -0.90123192       0.32229091      -1.06919639
6
Frame=10 idx=004934 GeodesicLength=1.7942345394396682 rxn_smarts="[C:1](#[C:2][C:3]#[N:4])[C:5]#[N:6]>>[C:1]([C:2]#[C+:3])#[C:5][N:6]=[N-:4]"
C       -0.57346949      -0.26633745       1.00183599
C        0.68299679      -0.39279028       1.25148986
C        1.55978611      -0.13008342       0.29157179
N        0.72361803       0.38153031      -1.53679016
C       -1.44949380       0.04584251       0.05683826
N       -0.94343765       0.36183833      -1.06494574
6
Frame=11 idx=004934 GeodesicLength=1.973210169279128 rxn_smarts="[C:1](#[C:2][C:3]#[N:4])[C:5]#[N:6]>>[C:1]([C:2]#[C+:3])#[C:5][N:6]=[N-:4]"
C       -0.57693215      -0.25760622       1.01525298
C        0.67887111      -0.38999961       1.24977282
C        1.58388148      -0.15878375       0.30543654
N        0.75538908       0.42038444      -1.55473219
C       -1.44809553       0.05983012       0.06556752
N       -0.99311399       0.32617503      -1.08129767
6
Frame=12 idx=004934 GeodesicLength=2.1524552412824454 rxn_smarts="[C:1](#[C:2][C:3]#[N:4])[C:5]#[N:6]>>[C:1]([C:2]#[C+:3])#[C:5][N:6]=[N-:4]"
C       -0.58142301      -0.27284987       1.02172879
C        0.67491809      -0.38649597       1.24736055
C        1.61055075      -0.14989353       0.33126551
N        0.78806625       0.40145574      -1.58998702
C       -1.44803394       0.04608396       0.06694458
N       -1.04407814       0.36169966      -1.07731241
6
Frame=13 idx=004934 GeodesicLength=2.3321392808898533 rxn_smarts="[C:1](#[C:2][C:3]#[N:4])[C:5]#[N:6]>>[C:1]([C:2]#[C+:3])#[C:5][N:6]=[N-:4]"
C       -0.58423421      -0.25255853       1.03793110
C        0.67066788      -0.38723372       1.24272197
C        1.63693791      -0.18058112       0.34760056
N        0.82672564       0.43818732      -1.61080023
C       -1.44724467       0.04905677       0.07259480
N       -1.10285255       0.33312930      -1.09004820
6
Frame=14 idx=004934 GeodesicLength=2.5106702538824823 rxn_smarts="[C:1](#[C:2][C:3]#[N:4])[C:5]#[N:6]>>[C:1]([C:2]#[C+:3])#[C:5][N:6]=[N-:4]"
C       -0.58907442      -0.28413224       1.03903515
C        0.66757593      -0.37226609       1.24172953
C        1.66583313      -0.18229661       0.37392808
N        0.86839100       0.43452763      -1.64449749
C       -1.44675401       0.06053404       0.08136742
N       -1.16597163       0.34363327      -1.09156270
6
Frame=15 idx=004934 GeodesicLength=2.6907010090829018 rxn_smarts="[C:1](#[C:2][C:3]#[N:4])[C:5]#[N:6]>>[C:1]([C:2]#[C+:3])#[C:5][N:6]=[N-:4]"
C       -0.59294278      -0.30967637       1.04021430
C        0.66348201      -0.39229063       1.22738315
C        1.69708812      -0.13800808       0.41581333
N        0.91338349       0.39423294      -1.68779176
C       -1.44601281       0.05764603       0.08460463
N       -1.23499803       0.38809611      -1.08022366
6
Frame=16 idx=004934 GeodesicLength=2.8695315060532316 rxn_smarts="[C:1](#[C:2][C:3]#[N:4])[C:5]#[N:6]>>[C:1]([C:2]#[C+:3])#[C:5][N:6]=[N-:4]"
C       -0.59516713      -0.28926493       1.05436496
C        0.66049088      -0.37661933       1.22261495
C        1.72789612      -0.17939640       0.43570510
N        0.96817617       0.42376957      -1.71425516
C       -1.44559807       0.04381499       0.08384785
N       -1.31579797       0.37769610      -1.08227770
