16
Frame=0 idx=005168 GeodesicLength=0.0 rxn_smarts="[C:1]([C:2]1([C:3]([H:10])([H:11])[H:12])[C:4]([H:13])([H:14])[C:5]([H:15])([H:16])[O:6]1)([H:7])([H:8])[H:9]>>[C:1]([C:2]([C:3]([H:10])([H:11])[H:12])([C:4]([H:13])([H:14])[H:16])[O+:6]=[C-:5][H:15])([H:7])([H:8])[H:9]"
C       -0.96052509      -1.13957660      -0.28936253
C       -0.14206860       0.13688731      -0.17155904
C       -1.03021130       1.34744802       0.02855373
C        0.97998957       0.02505845       0.89374368
C        1.87543464      -0.21988633      -0.92859022
O        0.66796473       0.34580970      -1.33210341
H       -1.67655911      -1.04401076      -1.10625474
H       -1.51117675      -1.32641608       0.63514621
H       -0.32291558      -2.00215445      -0.48904162
H       -1.75473591       1.42857513      -0.78312256
H       -0.43128186       2.25839120       0.04530170
H       -1.57392331       1.26389733       0.97270495
H        0.99265299      -0.88104473       1.49259304
H        1.08540248       0.91269383       1.52138566
H        1.72932505      -1.30967950      -0.78646376
H        2.07262802       0.20400753       0.29706896
16
Frame=1 idx=005168 GeodesicLength=0.059171114257384666 rxn_smarts="[C:1]([C:2]1([C:3]([H:10])([H:11])[H:12])[C:4]([H:13])([H:14])[C:5]([H:15])([H:16])[O:6]1)([H:7])([H:8])[H:9]>>[C:1]([C:2]([C:3]([H:10])([H:11])[H:12])([C:4]([H:13])([H:14])[H:16])[O+:6]=[C-:5][H:15])([H:7])([H:8])[H:9]"
C       -0.96608019      -1.13992349      -0.28429412
C       -0.14422788       0.13395671      -0.16837778
C       -1.02732085       1.34913912       0.02519350
C        0.98057831       0.02241080       0.89170812
C        1.87381106      -0.21849256      -0.93050945
O        0.66473806       0.33661518      -1.33431780
H       -1.68129989      -1.04502631      -1.10207147
H       -1.51820439      -1.32185772       0.64029537
H       -0.33080201      -2.00480047      -0.48146060
H       -1.74913847       1.43095846      -0.78883718
H       -0.42450137       2.25756500       0.04113758
H       -1.57461997       1.27063270       0.96765209
H        1.00836539      -0.89387529       1.47489881
H        1.06447310       0.89436154       1.54350514
H        1.74320136      -1.31052636      -0.79243561
H        2.08102775       0.23886270       0.29791341
16
Frame=2 idx=005168 GeodesicLength=0.11833060624441069 rxn_smarts="[C:1]([C:2]1([C:3]([H:10])([H:11])[H:12])[C:4]([H:13])([H:14])[C:5]([H:15])([H:16])[O:6]1)([H:7])([H:8])[H:9]>>[C:1]([C:2]([C:3]([H:10])([H:11])[H:12])([C:4]([H:13])([H:14])[H:16])[O+:6]=[C-:5][H:15])([H:7])([H:8])[H:9]"
C       -0.97164534      -1.14027138      -0.27913837
C       -0.14638459       0.13100008      -0.16519369
C       -1.02431686       1.35081396       0.02182807
C        0.98115883       0.01979119       0.88973837
C        1.87231363      -0.21701766      -0.93216813
O        0.66163521       0.32727317      -1.33643593
H       -1.68602731      -1.04606866      -1.09782093
H       -1.52522294      -1.31721196       0.64553208
H       -0.33869341      -2.00744999      -0.47367638
H       -1.74338782       1.43331780      -0.79457590
H       -0.41755905       2.25666487       0.03702690
H       -1.57517769       1.27740456       0.96256949
H        1.02391316      -0.90615730       1.45712290
H        1.04368090       0.87498807       1.56514297
H        1.75733383      -1.31115589      -0.79874985
H        2.08837944       0.27407914       0.29879838
16
Frame=3 idx=005168 GeodesicLength=0.17748324591930054 rxn_smarts="[C:1]([C:2]1([C:3]([H:10])([H:11])[H:12])[C:4]([H:13])([H:14])[C:5]([H:15])([H:16])[O:6]1)([H:7])([H:8])[H:9]>>[C:1]([C:2]([C:3]([H:10])([H:11])[H:12])([C:4]([H:13])([H:14])[H:16])[O+:6]=[C-:5][H:15])([H:7])([H:8])[H:9]"
C       -0.97721861      -1.14061794      -0.27390350
C       -0.14853748       0.12802027      -0.16200518
C       -1.02120511       1.35246937       0.01846586
C        0.98172711       0.01720202       0.88783832
C        1.87093330      -0.21547103      -0.93359260
O        0.65865884       0.31780042      -1.33845217
H       -1.69072988      -1.04713602      -1.09351964
H       -1.53224171      -1.31247875       0.65084066
H       -0.34658756      -2.01010210      -0.46568879
H       -1.73749663       1.43564520      -0.80032440
H       -0.41047256       2.25569567       0.03296742
H       -1.57558942       1.28420788       0.95747333
H        1.03926157      -0.91788874       1.43930084
H        1.02306869       0.85462372       1.58623718
H        1.77172285      -1.31156058      -0.80538806
H        2.09470660       0.30959060       0.29975071
16
Frame=4 idx=005168 GeodesicLength=0.2366561135084831 rxn_smarts="[C:1]([C:2]1([C:3]([H:10])([H:11])[H:12])[C:4]([H:13])([H:14])[C:5]([H:15])([H:16])[O:6]1)([H:7])([H:8])[H:9]>>[C:1]([C:2]([C:3]([H:10])([H:11])[H:12])([C:4]([H:13])([H:14])[H:16])[O+:6]=[C-:5][H:15])([H:7])([H:8])[H:9]"
C       -0.98279876      -1.14096799      -0.26859653
C       -0.15068512       0.12502073      -0.15881124
C       -1.01799322       1.35411132       0.01511601
C        0.98227853       0.01464429       0.88601331
C        1.86966658      -0.21386582      -0.93481669
O        0.65581625       0.30821403      -1.34037004
H       -1.69539545      -1.04823321      -1.08918522
H       -1.53927423      -1.30766552       0.65621266
H       -0.35448171      -2.01276891      -0.45749877
H       -1.73147767       1.43794272      -0.80607042
H       -0.40326014       2.25467683       0.02895564
H       -1.57585443       1.29104692       0.95238624
H        1.05437788      -0.92907992       1.42146900
H        1.00266891       0.83332388       1.60674219
H        1.78637444      -1.31174304      -0.81233801
H        2.10003815       0.34534368       0.30079186
16
Frame=5 idx=005168 GeodesicLength=0.2958610625707026 rxn_smarts="[C:1]([C:2]1([C:3]([H:10])([H:11])[H:12])[C:4]([H:13])([H:14])[C:5]([H:15])([H:16])[O:6]1)([H:7])([H:8])[H:9]>>[C:1]([C:2]([C:3]([H:10])([H:11])[H:12])([C:4]([H:13])([H:14])[H:16])[O+:6]=[C-:5][H:15])([H:7])([H:8])[H:9]"
C       -0.98839614      -1.14132029      -0.26323122
C       -0.15282592       0.12200187      -0.15560976
C       -1.01467739       1.35572391       0.01178772
C        0.98281396       0.01212969       0.88426817
C        1.86850180      -0.21220982      -0.93586057
O        0.65310976       0.29852521      -1.34218114
H       -1.70002777      -1.04936784      -1.08483935
H       -1.54633982      -1.30277284       0.66162466
H       -0.36239427      -2.01544284      -0.44911527
H       -1.72533663       1.44018152      -0.81179954
H       -0.39592146       2.25359952       0.02499375
H       -1.57595512       1.29790428       0.94732311
H        1.06922946      -0.93971718       1.40365695
H        0.98253015       0.81115337       1.62661006
H        1.80127523      -1.31168603      -0.81957805
H        2.10441416       0.38129746       0.30195046
16
Frame=6 idx=005168 GeodesicLength=0.35485570364364266 rxn_smarts="[C:1]([C:2]1([C:3]([H:10])([H:11])[H:12])[C:4]([H:13])([H:14])[C:5]([H:15])([H:16])[O:6]1)([H:7])([H:8])[H:9]>>[C:1]([C:2]([C:3]([H:10])([H:11])[H:12])([C:4]([H:13])([H:14])[H:16])[O+:6]=[C-:5][H:15])([H:7])([H:8])[H:9]"
C       -0.99396865      -1.14160278      -0.25781409
C       -0.15496278       0.11896996      -0.15239651
C       -1.01128451       1.35726591       0.00847383
C        0.98333678       0.00963060       0.88257530
C        1.86737443      -0.21054248      -0.93669323
O        0.65049260       0.28875510      -1.34382217
H       -1.70458168      -1.05044586      -1.08047361
H       -1.55336912      -1.29773811       0.66702219
H       -0.37027678      -2.01802559      -0.44052004
H       -1.71912377       1.44233776      -0.81748136
H       -0.38852997       2.25238632       0.02105846
H       -1.57587113       1.30472939       0.94224368
H        1.08381238      -0.94979975       1.38587428
H        0.96272408       0.78813117       1.64570807
H        1.81638841      -1.31136466      -0.82701765
H        2.10783972       0.41731302       0.30326286
16
Frame=7 idx=005168 GeodesicLength=0.41410301806576477 rxn_smarts="[C:1]([C:2]1([C:3]([H:10])([H:11])[H:12])[C:4]([H:13])([H:14])[C:5]([H:15])([H:16])[O:6]1)([H:7])([H:8])[H:9]>>[C:1]([C:2]([C:3]([H:10])([H:11])[H:12])([C:4]([H:13])([H:14])[H:16])[O+:6]=[C-:5][H:15])([H:7])([H:8])[H:9]"
C       -0.99957429      -1.14195479      -0.25235185
C       -0.15708780       0.11592829      -0.14917696
C       -1.00780227       1.35884196       0.00521078
C        0.98382847       0.00718519       0.88098871
C        1.86638492      -0.20885637      -0.93746196
O        0.64806507       0.27892100      -1.34542088
H       -1.70908348      -1.05163913      -1.07615140
H       -1.56050593      -1.29269962       0.67248254
H       -0.37818791      -2.02073092      -0.43174682
H       -1.71280302       1.44448301      -0.82313073
H       -0.38102766       2.25124487       0.01716720
H       -1.57565117       1.31163520       0.93728366
H        1.09805674      -0.95939733       1.36819896
H        0.94320100       0.76439691       1.66417250
H        1.83178735      -1.31085830      -0.83477814
H        2.11039998       0.45350005       0.30471440
16
Frame=8 idx=005168 GeodesicLength=0.4730906163701454 rxn_smarts="[C:1]([C:2]1([C:3]([H:10])([H:11])[H:12])[C:4]([H:13])([H:14])[C:5]([H:15])([H:16])[O:6]1)([H:7])([H:8])[H:9]>>[C:1]([C:2]([C:3]([H:10])([H:11])[H:12])([C:4]([H:13])([H:14])[H:16])[O+:6]=[C-:5][H:15])([H:7])([H:8])[H:9]"
C       -1.00516083      -1.14219249      -0.24682953
C       -0.15920858       0.11286707      -0.14594079
C       -1.00423156       1.36030586       0.00194204
C        0.98431883       0.00473541       0.87944165
C        1.86539207      -0.20716002      -0.93801608
O        0.64568608       0.26898917      -1.34681687
H       -1.71352442      -1.05273910      -1.07178707
H       -1.56760241      -1.28744632       0.67790310
H       -0.38608937      -2.02327757      -0.42272577
H       -1.70641132       1.44649664      -0.82874041
H       -0.37346814       2.24989695       0.01325942
H       -1.57519746       1.31848812       0.93227060
H        1.11207445      -0.96848161       1.35050521
H        0.92399707       0.73977485       1.68186411
H        1.84739496      -1.31002358      -0.84268388
H        2.11203063       0.48976660       0.30635427
16
Frame=9 idx=005168 GeodesicLength=0.5321987635599569 rxn_smarts="[C:1]([C:2]1([C:3]([H:10])([H:11])[H:12])[C:4]([H:13])([H:14])[C:5]([H:15])([H:16])[O:6]1)([H:7])([H:8])[H:9]>>[C:1]([C:2]([C:3]([H:10])([H:11])[H:12])([C:4]([H:13])([H:14])[H:16])[O+:6]=[C-:5][H:15])([H:7])([H:8])[H:9]"
C       -1.01077025      -1.14244864      -0.24126539
C       -0.16131769       0.10979464      -0.14269336
C       -1.00057756       1.36176271      -0.00128559
C        0.98478593       0.00231745       0.87798212
C        1.86448720      -0.20547343      -0.93850024
O        0.64345860       0.25899471      -1.34812770
H       -1.71790940      -1.05389664      -1.06745338
H       -1.57478091      -1.28213112       0.68334539
H       -0.39401776      -2.02587293      -0.41351145
H       -1.69993060       1.44846291      -0.83430737
H       -0.36582830       2.24855426       0.00937100
H       -1.57457761       1.32538296       0.92734498
H        1.12576626      -0.97710774       1.33290945
H        0.90512116       0.71446539       1.69884722
H        1.86327013      -1.30896079      -0.85083120
H        2.11282078       0.52615624       0.30817553
16
Frame=10 idx=005168 GeodesicLength=0.5913297854652959 rxn_smarts="[C:1]([C:2]1([C:3]([H:10])([H:11])[H:12])[C:4]([H:13])([H:14])[C:5]([H:15])([H:16])[O:6]1)([H:7])([H:8])[H:9]>>[C:1]([C:2]([C:3]([H:10])([H:11])[H:12])([C:4]([H:13])([H:14])[H:16])[O+:6]=[C-:5][H:15])([H:7])([H:8])[H:9]"
C       -1.01639075      -1.14268590      -0.23566120
C       -0.16341559       0.10671105      -0.13943148
C       -0.99684485       1.36318445      -0.00448028
C        0.98523586      -0.00008257       0.87659804
C        1.86363488      -0.20381560      -0.93889928
O        0.64135435       0.24893869      -1.34932286
H       -1.72222862      -1.05507000      -1.06314404
H       -1.58201560      -1.27671279       0.68878156
H       -0.40196560      -2.02846257      -0.40409083
H       -1.69337792       1.45035685      -0.83982386
H       -0.35812990       2.24716799       0.00548349
H       -1.57376884       1.33229279       0.92248257
H        1.13914501      -0.98528643       1.31540216
H        0.88659820       0.68847160       1.71507948
H        1.87939083      -1.30764549      -0.85917456
H        2.11277854       0.56263791       0.31020109
16
Frame=11 idx=005168 GeodesicLength=0.6504728298593432 rxn_smarts="[C:1]([C:2]1([C:3]([H:10])([H:11])[H:12])[C:4]([H:13])([H:14])[C:5]([H:15])([H:16])[O:6]1)([H:7])([H:8])[H:9]>>[C:1]([C:2]([C:3]([H:10])([H:11])[H:12])([C:4]([H:13])([H:14])[H:16])[O+:6]=[C-:5][H:15])([H:7])([H:8])[H:9]"
C       -1.02202287      -1.14289693      -0.23002147
C       -0.16550126       0.10361732      -0.13615372
C       -0.99303639       1.36456462      -0.00764115
C        0.98567077      -0.00246857       0.87528700
C        1.86282494      -0.20220467      -0.93922290
O        0.63936948       0.23882565      -1.35039720
H       -1.72647860      -1.05625376      -1.05886546
H       -1.58930991      -1.27118286       0.69419912
H       -0.40993691      -2.03103687      -0.39446219
H       -1.68676270       1.45216910      -0.84528336
H       -0.35038244       2.24573285       0.00158790
H       -1.57276341       1.33921149       0.91768674
H        1.15220619      -0.99303464       1.29799034
H        0.86844935       0.66182746       1.73054446
H        1.89574856      -1.30607442      -0.86769595
H        2.11192520       0.59920425       0.31244785
16
Frame=12 idx=005168 GeodesicLength=0.7096279143168246 rxn_smarts="[C:1]([C:2]1([C:3]([H:10])([H:11])[H:12])[C:4]([H:13])([H:14])[C:5]([H:15])([H:16])[O:6]1)([H:7])([H:8])[H:9]>>[C:1]([C:2]([C:3]([H:10])([H:11])[H:12])([C:4]([H:13])([H:14])[H:16])[O+:6]=[C-:5][H:15])([H:7])([H:8])[H:9]"
C       -1.02766732      -1.14307830      -0.22435005
C       -0.16757341       0.10051465      -0.13285893
C       -0.98915512       1.36590095      -0.01076723
C        0.98609209      -0.00484474       0.87404810
C        1.86205025      -0.20065905      -0.93948325
O        0.63750247       0.22866038      -1.35134989
H       -1.73065589      -1.05744646      -1.05462429
H       -1.59666827      -1.26553737       0.69958953
H       -0.41793554      -2.03359245      -0.38462472
H       -1.68009273       1.45389479      -0.85068152
H       -0.34259437       2.24425030      -0.00232437
H       -1.57155632       1.34613667       0.91296329
H        1.16494553      -1.00037316       1.28068192
H        0.85069254       0.63456882       1.74523260
H        1.91233544      -1.30424867      -0.87638334
H        2.11028065       0.63585363       0.31493215
16
Frame=13 idx=005168 GeodesicLength=0.7687960509441895 rxn_smarts="[C:1]([C:2]1([C:3]([H:10])([H:11])[H:12])[C:4]([H:13])([H:14])[C:5]([H:15])([H:16])[O:6]1)([H:7])([H:8])[H:9]>>[C:1]([C:2]([C:3]([H:10])([H:11])[H:12])([C:4]([H:13])([H:14])[H:16])[O+:6]=[C-:5][H:15])([H:7])([H:8])[H:9]"
C       -1.03332495      -1.14322730      -0.21865087
C       -0.16963067       0.09740419      -0.12954594
C       -0.98520394       1.36719165      -0.01385753
C        0.98650132      -0.00721543       0.87288057
C        1.86130474      -0.19919775      -0.93969183
O        0.63575222       0.21844734      -1.35218082
H       -1.73475729      -1.05864736      -1.05042709
H       -1.60409516      -1.25977331       0.70494471
H       -0.42596563      -2.03612677      -0.37457853
H       -1.67337541       1.45552976      -0.85601434
H       -0.33477362       2.24272262      -0.00626154
H       -1.57014334       1.35306639       0.90831812
H        1.17735958      -1.00732304       1.26348470
H        0.83334623       0.60673233       1.75913597
H        1.92914292      -1.30217068      -0.88522623
H        2.10786299       0.67258737       0.31767064
16
Frame=14 idx=005168 GeodesicLength=0.8279787547033193 rxn_smarts="[C:1]([C:2]1([C:3]([H:10])([H:11])[H:12])[C:4]([H:13])([H:14])[C:5]([H:15])([H:16])[O:6]1)([H:7])([H:8])[H:9]>>[C:1]([C:2]([C:3]([H:10])([H:11])[H:12])([C:4]([H:13])([H:14])[H:16])[O+:6]=[C-:5][H:15])([H:7])([H:8])[H:9]"
C       -1.03899653      -1.14334145      -0.21292769
C       -0.17167156       0.09428706      -0.12621355
C       -0.98118562       1.36843517      -0.01691132
C        0.98690015      -0.00958534       0.87178363
C        1.86058307      -0.19784032      -0.93985907
O        0.63411784       0.20819068      -1.35289018
H       -1.73877970      -1.05985608      -1.04627999
H       -1.61159464      -1.25388805       0.71025699
H       -0.43403127      -2.03863739      -0.36432401
H       -1.66661757       1.45707034      -0.86127855
H       -0.32692767       2.24115223      -0.01023128
H       -1.56852119       1.35999853       0.90375639
H        1.18944581      -1.01390570       1.24640564
H        0.81642934       0.57835511       1.77224866
H        1.94616105      -1.29984429      -0.89421624
H        2.10468848       0.70940953       0.32068057
16
Frame=15 idx=005168 GeodesicLength=0.8871806541149693 rxn_smarts="[C:1]([C:2]1([C:3]([H:10])([H:11])[H:12])[C:4]([H:13])([H:14])[C:5]([H:15])([H:16])[O:6]1)([H:7])([H:8])[H:9]>>[C:1]([C:2]([C:3]([H:10])([H:11])[H:12])([C:4]([H:13])([H:14])[H:16])[O+:6]=[C-:5][H:15])([H:7])([H:8])[H:9]"
C       -1.04468262      -1.14341967      -0.20718405
C       -0.17369450       0.09116439      -0.12286055
C       -0.97710311       1.36963153      -0.01992789
C        0.98729007      -0.01195970       0.87075696
C        1.85988129      -0.19660701      -0.93999571
O        0.63259920       0.19789451      -1.35347971
H       -1.74271944      -1.06107379      -1.04218947
H       -1.61917117      -1.24788041       0.71551983
H       -0.44213622      -2.04112409      -0.35386171
H       -1.65982536       1.45851490      -0.86647195
H       -0.31906389       2.23954402      -0.01424066
H       -1.56668824       1.36693241       0.89928377
H        1.20120195      -1.02014392       1.22945189
H        0.79996134       0.54947532       1.78456799
H        1.96337958      -1.29727596      -0.90334827
H        2.10077113       0.74632745       0.32397952
16
Frame=16 idx=005168 GeodesicLength=0.9463843604376989 rxn_smarts="[C:1]([C:2]1([C:3]([H:10])([H:11])[H:12])[C:4]([H:13])([H:14])[C:5]([H:15])([H:16])[O:6]1)([H:7])([H:8])[H:9]>>[C:1]([C:2]([C:3]([H:10])([H:11])[H:12])([C:4]([H:13])([H:14])[H:16])[O+:6]=[C-:5][H:15])([H:7])([H:8])[H:9]"
C       -1.05038317      -1.14345427      -0.20142467
C       -0.17569797       0.08803676      -0.11948551
C       -0.97295843       1.37077270      -0.02290758
C        0.98767449      -0.01434471       0.86979716
C        1.85919096      -0.19551766      -0.94010545
O        0.63119126       0.18756221      -1.35394424
H       -1.74657457      -1.06229456      -1.03815966
H       -1.62682435      -1.24174295       0.72072080
H       -0.45028487      -2.04357481      -0.34319357
H       -1.65300600       1.45985376      -0.87159026
H       -0.31118930       2.23788971      -0.01829595
H       -1.56463890       1.37385861       0.89489947
H        1.21262825      -1.02605530       1.21262742
H        0.78396775       0.52013368       1.79608223
H        1.98078167      -1.29446516      -0.91260891
H        2.09612319       0.78334199       0.32758872
