10
Frame=0 idx=000959 GeodesicLength=0.0 rxn_smarts="[O:1]=[C:2]1[C:3]([H:6])([H:7])[N:4]([H:8])[C:5]1([H:9])[H:10]>>[O:1]1[C-:2]2[C:3]([H:6])([H:7])[N+:4]1([H:8])[C:5]2([H:9])[H:10]"
O        0.96904718       0.28473963      -1.19834171
C        1.21251109      -0.29141782       0.10021293
C        0.28829918       0.83136841       0.66108663
N       -0.51452804       0.31337896      -0.51170279
C       -0.10896519      -1.08916033      -0.11649140
H       -0.23645644       0.70251529       1.61161348
H        0.63754124       1.84996817       0.50729507
H       -1.45212478       0.63542786      -0.82973879
H       -0.68263279      -1.46157789       0.73656511
H       -0.11269146      -1.77524228      -0.96049855
10
Frame=1 idx=000959 GeodesicLength=0.052208595320384556 rxn_smarts="[O:1]=[C:2]1[C:3]([H:6])([H:7])[N:4]([H:8])[C:5]1([H:9])[H:10]>>[O:1]1[C-:2]2[C:3]([H:6])([H:7])[N+:4]1([H:8])[C:5]2([H:9])[H:10]"
O        0.99240821       0.28042939      -1.19967139
C        1.20896790      -0.29188471       0.10322060
C        0.28492972       0.83377780       0.65820049
N       -0.51514697       0.31431820      -0.51369154
C       -0.11251263      -1.08764498      -0.11973659
H       -0.23309426       0.70624587       1.61244943
H        0.63186193       1.85338907       0.50527339
H       -1.45768590       0.63137961      -0.81678519
H       -0.68085208      -1.46580760       0.73419661
H       -0.11887592      -1.77420265      -0.96345581
10
Frame=2 idx=000959 GeodesicLength=0.10441189731580705 rxn_smarts="[O:1]=[C:2]1[C:3]([H:6])([H:7])[N:4]([H:8])[C:5]1([H:9])[H:10]>>[O:1]1[C-:2]2[C:3]([H:6])([H:7])[N+:4]1([H:8])[C:5]2([H:9])[H:10]"
O        1.01618441       0.27587919      -1.20062115
C        1.20532496      -0.29232166       0.10620562
C        0.28151975       0.83623218       0.65524297
N       -0.51600812       0.31527741      -0.51560548
C       -0.11610323      -1.08609719      -0.12305813
H       -0.22962598       0.71010485       1.61324501
H        0.62613156       1.85683137       0.50303009
H       -1.46332788       0.62723533      -0.80355434
H       -0.67901070      -1.47013091       0.73169693
H       -0.12508476      -1.77301057      -0.96658151
10
Frame=3 idx=000959 GeodesicLength=0.15660261536652614 rxn_smarts="[O:1]=[C:2]1[C:3]([H:6])([H:7])[N:4]([H:8])[C:5]1([H:9])[H:10]>>[O:1]1[C-:2]2[C:3]([H:6])([H:7])[N+:4]1([H:8])[C:5]2([H:9])[H:10]"
O        1.04037024       0.27108382      -1.20117541
C        1.20157992      -0.29272257       0.10915409
C        0.27806937       0.83873117       0.65221556
N       -0.51713003       0.31625461      -0.51743053
C       -0.11973699      -1.08451780      -0.12645473
H       -0.22604365       0.71409236       1.61400240
H        0.62035296       1.86029385       0.50056334
H       -1.46904568       0.62300157      -0.79006463
H       -0.67710156      -1.47455204       0.72906641
H       -0.13131457      -1.77166498      -0.96987649
10
Frame=4 idx=000959 GeodesicLength=0.208769478058222 rxn_smarts="[O:1]=[C:2]1[C:3]([H:6])([H:7])[N:4]([H:8])[C:5]1([H:9])[H:10]>>[O:1]1[C-:2]2[C:3]([H:6])([H:7])[N+:4]1([H:8])[C:5]2([H:9])[H:10]"
O        1.06495979       0.26603779      -1.20131716
C        1.19773169      -0.29308047       0.11204920
C        0.27457879       0.84127413       0.64912008
N       -0.51853144       0.31724889      -0.51915451
C       -0.12341377      -1.08290764      -0.12992462
H       -0.22233903       0.71820678       1.61472457
H        0.61452945       1.86377520       0.49787300
H       -1.47483660       0.61868617      -0.77633726
H       -0.67511712      -1.47907463       0.72630717
H       -0.13756175      -1.77016623      -0.97334048
10
Frame=5 idx=000959 GeodesicLength=0.26089456606662037 rxn_smarts="[O:1]=[C:2]1[C:3]([H:6])([H:7])[N:4]([H:8])[C:5]1([H:9])[H:10]>>[O:1]1[C-:2]2[C:3]([H:6])([H:7])[N+:4]1([H:8])[C:5]2([H:9])[H:10]"
O        1.08994671       0.26073381      -1.20102601
C        1.19378167      -0.29338717       0.11487040
C        0.27104843       0.84386009       0.64595858
N       -0.52023264       0.31826156      -0.52077036
C       -0.12713310      -1.08126754      -0.13346574
H       -0.21850388       0.72244372       1.61541688
H        0.60866634       1.86727454       0.49496064
H       -1.48070328       0.61429950      -0.76239674
H       -0.67304897      -1.48370217       0.72342472
H       -0.14382128      -1.76851634      -0.97697239
10
Frame=6 idx=000959 GeodesicLength=0.3130755754543134 rxn_smarts="[O:1]=[C:2]1[C:3]([H:6])([H:7])[N:4]([H:8])[C:5]1([H:9])[H:10]>>[O:1]1[C-:2]2[C:3]([H:6])([H:7])[N+:4]1([H:8])[C:5]2([H:9])[H:10]"
O        1.11536171       0.25516872      -1.20030941
C        1.18971036      -0.29365074       0.11764736
C        0.26747827       0.84649480       0.64272565
N       -0.52224656       0.31926866      -0.52221217
C       -0.13089622      -1.07959774      -0.13708565
H       -0.21452864       0.72683184       1.61605832
H        0.60275735       1.87078950       0.49179993
H       -1.48664656       0.60983156      -0.74821798
H       -0.67089538      -1.48844236       0.72038299
H       -0.15009434      -1.76669423      -0.98078905
10
Frame=7 idx=000959 GeodesicLength=0.36523938965544217 rxn_smarts="[O:1]=[C:2]1[C:3]([H:6])([H:7])[N:4]([H:8])[C:5]1([H:9])[H:10]>>[O:1]1[C-:2]2[C:3]([H:6])([H:7])[N+:4]1([H:8])[C:5]2([H:9])[H:10]"
O        1.14119219       0.24932767      -1.19913041
C        1.18553398      -0.29385998       0.12034540
C        0.26386963       0.84917586       0.63942429
N       -0.52459445       0.32028526      -0.52350559
C       -0.13470123      -1.07789849      -0.14078120
H       -0.21040848       0.73135737       1.61666522
H        0.59681253       1.87432160       0.48839607
H       -1.49268277       0.60529569      -0.73382621
H       -0.66864946      -1.49329829       0.71720153
H       -0.15637193      -1.76470668      -0.98478909
10
Frame=8 idx=000959 GeodesicLength=0.4173114230799583 rxn_smarts="[O:1]=[C:2]1[C:3]([H:6])([H:7])[N:4]([H:8])[C:5]1([H:9])[H:10]>>[O:1]1[C-:2]2[C:3]([H:6])([H:7])[N+:4]1([H:8])[C:5]2([H:9])[H:10]"
O        1.16741810       0.24320186      -1.19743985
C        1.18124870      -0.29402377       0.12298610
C        0.26022838       0.85190829       0.63604510
N       -0.52729532       0.32130719      -0.52463121
C       -0.13854347      -1.07617031      -0.14456268
H       -0.20613307       0.73604471       1.61722308
H        0.59084923       1.87786443       0.48471811
H       -1.49882974       0.60068733      -0.71920025
H       -0.66630845      -1.49828134       0.71385478
H       -0.16263436      -1.76253838      -0.98899318
10
Frame=9 idx=000959 GeodesicLength=0.46937515966088783 rxn_smarts="[O:1]=[C:2]1[C:3]([H:6])([H:7])[N:4]([H:8])[C:5]1([H:9])[H:10]>>[O:1]1[C-:2]2[C:3]([H:6])([H:7])[N+:4]1([H:8])[C:5]2([H:9])[H:10]"
O        1.19409040       0.23678153      -1.19523519
C        1.17685162      -0.29410814       0.12548032
C        0.25654411       0.85468554       0.63259699
N       -0.53034847       0.32234204      -0.52561563
C       -0.14243303      -1.07441276      -0.14841742
H       -0.20169767       0.74085926       1.61774072
H        0.58483539       1.88143096       0.48081262
H       -1.50506623       0.59601318      -0.70436438
H       -0.66385322      -1.50337625       0.71037379
H       -0.16892290      -1.76021536      -0.99337183
10
Frame=10 idx=000959 GeodesicLength=0.521405881697625 rxn_smarts="[O:1]=[C:2]1[C:3]([H:6])([H:7])[N:4]([H:8])[C:5]1([H:9])[H:10]>>[O:1]1[C-:2]2[C:3]([H:6])([H:7])[N+:4]1([H:8])[C:5]2([H:9])[H:10]"
O        1.22119948       0.23003449      -1.19249184
C        1.17233761      -0.29414704       0.12793442
C        0.25282698       0.85752283       0.62906452
N       -0.53378303       0.32337159      -0.52638030
C       -0.14636076      -1.07262217      -0.15237016
H       -0.19709472       0.74586777       1.61819664
H        0.57880183       1.88501146       0.47659242
H       -1.51144462       0.59125444      -0.68924677
H       -0.66129969      -1.50861484       0.70668842
H       -0.17518309      -1.75767852      -0.99798736
10
Frame=11 idx=000959 GeodesicLength=0.5734219739644841 rxn_smarts="[O:1]=[C:2]1[C:3]([H:6])([H:7])[N:4]([H:8])[C:5]1([H:9])[H:10]>>[O:1]1[C-:2]2[C:3]([H:6])([H:7])[N+:4]1([H:8])[C:5]2([H:9])[H:10]"
O        1.24878063       0.22295869      -1.18917252
C        1.16770694      -0.29411162       0.13025974
C        0.24906938       0.86041396       0.62545133
N       -0.53760515       0.32440328      -0.52696318
C       -0.15033386      -1.07079999      -0.15641244
H       -0.19231590       0.75104021       1.61859791
H        0.57272986       1.88861459       0.47209472
H       -1.51795507       0.58641795      -0.67386947
H       -0.65862560      -1.51398247       0.70282889
H       -0.18145123      -1.75495462      -1.00281498
10
Frame=12 idx=000959 GeodesicLength=0.6254200915583848 rxn_smarts="[O:1]=[C:2]1[C:3]([H:6])([H:7])[N:4]([H:8])[C:5]1([H:9])[H:10]>>[O:1]1[C-:2]2[C:3]([H:6])([H:7])[N+:4]1([H:8])[C:5]2([H:9])[H:10]"
O        1.27685331       0.21553820      -1.18523148
C        1.16295711      -0.29400552       0.13246707
C        0.24527362       0.86336472       0.62174597
N       -0.54183125       0.32543903      -0.52734572
C       -0.15435118      -1.06894489      -0.16055503
H       -0.18735173       0.75639812       1.61892618
H        0.56661930       1.89223705       0.46728520
H       -1.52461694       0.58149252      -0.65818525
H       -0.65583120      -1.51949122       0.69877097
H       -0.18772105      -1.75202801      -1.00787790
10
Frame=13 idx=000959 GeodesicLength=0.677405358623339 rxn_smarts="[O:1]=[C:2]1[C:3]([H:6])([H:7])[N:4]([H:8])[C:5]1([H:9])[H:10]>>[O:1]1[C-:2]2[C:3]([H:6])([H:7])[N+:4]1([H:8])[C:5]2([H:9])[H:10]"
O        1.30544014       0.20773791      -1.18063329
C        1.15808444      -0.29382341       0.13455342
C        0.24143919       0.86638137       0.61794366
N       -0.54647468       0.32647848      -0.52752035
C       -0.15841283      -1.06705248      -0.16480779
H       -0.18219225       0.76195570       1.61917867
H        0.56046668       1.89588747       0.46214414
H       -1.53144624       0.57645841      -0.64215544
H       -0.65291321      -1.52514410       0.69449228
H       -0.19399124      -1.74887935      -1.01319531
10
Frame=14 idx=000959 GeodesicLength=0.729386977438879 rxn_smarts="[O:1]=[C:2]1[C:3]([H:6])([H:7])[N:4]([H:8])[C:5]1([H:9])[H:10]>>[O:1]1[C-:2]2[C:3]([H:6])([H:7])[N+:4]1([H:8])[C:5]2([H:9])[H:10]"
O        1.33457116       0.19953907      -1.17532574
C        1.15308515      -0.29356467       0.13651599
C        0.23756603       0.86946959       0.61403364
N       -0.55155404       0.32751795      -0.52747498
C       -0.16252012      -1.06512133      -0.16918167
H       -0.17682642       0.76773346       1.61934207
H        0.55427059       1.89956708       0.45664235
H       -1.53846268       0.57130225      -0.62573348
H       -0.64986543      -1.53095067       0.68997089
H       -0.20026423      -1.74549272      -1.01878908
10
Frame=15 idx=000959 GeodesicLength=0.7813492812440217 rxn_smarts="[O:1]=[C:2]1[C:3]([H:6])([H:7])[N:4]([H:8])[C:5]1([H:9])[H:10]>>[O:1]1[C-:2]2[C:3]([H:6])([H:7])[N+:4]1([H:8])[C:5]2([H:9])[H:10]"
O        1.36425426       0.19092027      -1.16926174
C        1.14795772      -0.29322362       0.13834047
C        0.23365394       0.87263314       0.61000848
N       -0.55709202       0.32855683      -0.52719313
C       -0.16667350      -1.06314850      -0.17368442
H       -0.17124330       0.77374201       1.61940580
H        0.54803602       1.90327516       0.45076063
H       -1.54568005       0.56601619      -0.60889327
H       -0.64668349      -1.53691449       0.68518901
H       -0.20652957      -1.74185698      -1.02467184
10
Frame=16 idx=000959 GeodesicLength=0.8333056033856112 rxn_smarts="[O:1]=[C:2]1[C:3]([H:6])([H:7])[N:4]([H:8])[C:5]1([H:9])[H:10]>>[O:1]1[C-:2]2[C:3]([H:6])([H:7])[N+:4]1([H:8])[C:5]2([H:9])[H:10]"
O        1.39452103       0.18185091      -1.16238472
C        1.14269591      -0.29279516       0.14001663
C        0.22970142       0.87587846       0.60585710
N       -0.56310687       0.32959413      -0.52665986
C       -0.17087562      -1.06113023      -0.17832749
H       -0.16542851       0.77999905       1.61935609
H        0.54175393       1.90701565       0.44446909
H       -1.55311179       0.56058378      -0.59158289
H       -0.64336032      -1.54304386       0.68012240
H       -0.21278918      -1.73795273      -1.03086634
