10
Frame=0 idx=000437 GeodesicLength=0.0 rxn_smarts="[O:1]([c:2]1[c:3]([H:8])[n:4]([H:9])[n:5][c:6]1[H:10])[H:7]>>[O:1]=[C:2]1[C:3]([H:7])([H:8])[N:4]([H:9])[N:5]=[C:6]1[H:10]"
O        2.21978163      -0.01727469       0.18630964
C        0.88870656       0.06578755       0.08284655
C       -0.10693517      -0.88785587       0.47081595
N       -1.29164285      -0.32570661       0.24101394
N       -1.21508580       0.93460422      -0.24040053
C        0.05711917       1.20385976      -0.31370364
H        1.22834045      -0.47671380      -0.88665976
H        0.01038510      -1.89676457       0.83252508
H       -2.19653263      -0.75706841       0.30759789
H        0.40586353       2.15713242      -0.68034513
10
Frame=1 idx=000437 GeodesicLength=0.10065289021570688 rxn_smarts="[O:1]([c:2]1[c:3]([H:8])[n:4]([H:9])[n:5][c:6]1[H:10])[H:7]>>[O:1]=[C:2]1[C:3]([H:7])([H:8])[N:4]([H:9])[N:5]=[C:6]1[H:10]"
O        2.21502743      -0.01971335       0.17459787
C        0.88774733       0.08017872       0.09146344
C       -0.10187802      -0.89293402       0.44825063
N       -1.29166671      -0.32304923       0.24262589
N       -1.21719113       0.94252154      -0.22226049
C        0.05423327       1.21100634      -0.31304717
H        1.22883823      -0.51580014      -0.88012755
H        0.01881003      -1.88708538       0.84745863
H       -2.19440377      -0.76142715       0.28756865
H        0.40048335       2.16630269      -0.67652990
10
Frame=2 idx=000437 GeodesicLength=0.20131101622820288 rxn_smarts="[O:1]([c:2]1[c:3]([H:8])[n:4]([H:9])[n:5][c:6]1[H:10])[H:7]>>[O:1]=[C:2]1[C:3]([H:7])([H:8])[N:4]([H:9])[N:5]=[C:6]1[H:10]"
O        2.20983284      -0.02215280       0.16134520
C        0.88665493       0.09389859       0.09925981
C       -0.09665147      -0.89721302       0.42713626
N       -1.29148159      -0.32131568       0.24246106
N       -1.21911338       0.94978540      -0.20451558
C        0.05127834       1.21813367      -0.31175274
H        1.22948292      -0.55608823      -0.87348077
H        0.02711538      -1.87549066       0.86305485
H       -2.19204049      -0.76550758       0.26729456
H        0.39492251       2.17595028      -0.67080265
10
Frame=3 idx=000437 GeodesicLength=0.30197100637810503 rxn_smarts="[O:1]([c:2]1[c:3]([H:8])[n:4]([H:9])[n:5][c:6]1[H:10])[H:7]>>[O:1]=[C:2]1[C:3]([H:7])([H:8])[N:4]([H:9])[N:5]=[C:6]1[H:10]"
O        2.20426783      -0.02446224       0.14635649
C        0.88552303       0.10726230       0.10654574
C       -0.09116728      -0.90038965       0.40832124
N       -1.29109569      -0.32020938       0.24092256
N       -1.22089555       0.95633812      -0.18760633
C        0.04824783       1.22537065      -0.30982702
H        1.23010041      -0.59793408      -0.86617852
H        0.03525868      -1.86267712       0.87813844
H       -2.18939164      -0.76937783       0.24681224
H        0.38915237       2.18607923      -0.66348485
10
Frame=4 idx=000437 GeodesicLength=0.4026305455461097 rxn_smarts="[O:1]([c:2]1[c:3]([H:8])[n:4]([H:9])[n:5][c:6]1[H:10])[H:7]>>[O:1]=[C:2]1[C:3]([H:7])([H:8])[N:4]([H:9])[N:5]=[C:6]1[H:10]"
O        2.19833422      -0.02663818       0.12933822
C        0.88442623       0.12045586       0.11344066
C       -0.08538645      -0.90245702       0.39190528
N       -1.29052958      -0.31953021       0.23825096
N       -1.22258897       0.96215638      -0.17190883
C        0.04515217       1.23284846      -0.30715901
H        1.23060810      -0.64148370      -0.85797965
H        0.04322890      -1.84900685       0.89262093
H       -2.18641814      -0.77311926       0.22604244
H        0.38317352       2.19677453      -0.65455099
10
Frame=5 idx=000437 GeodesicLength=0.503289967710506 rxn_smarts="[O:1]([c:2]1[c:3]([H:8])[n:4]([H:9])[n:5][c:6]1[H:10])[H:7]>>[O:1]=[C:2]1[C:3]([H:7])([H:8])[N:4]([H:9])[N:5]=[C:6]1[H:10]"
O        2.19197341      -0.02872029       0.10999791
C        0.88341701       0.13358107       0.12000738
C       -0.07929660      -0.90354936       0.37761820
N       -1.28979569      -0.31916252       0.23456394
N       -1.22424837       0.96725232      -0.15765044
C        0.04200736       1.24067382      -0.30359297
H        1.23101123      -0.68679887      -0.84875803
H        0.05102393      -1.83458026       0.90681140
H       -2.18308629      -0.77680043       0.20489327
H        0.37699400       2.20810452      -0.64389067
10
Frame=6 idx=000437 GeodesicLength=0.6039407278358243 rxn_smarts="[O:1]([c:2]1[c:3]([H:8])[n:4]([H:9])[n:5][c:6]1[H:10])[H:7]>>[O:1]=[C:2]1[C:3]([H:7])([H:8])[N:4]([H:9])[N:5]=[C:6]1[H:10]"
O        2.18508592      -0.03073262       0.08809522
C        0.88253233       0.14671110       0.12633167
C       -0.07289237      -0.90382327       0.36509888
N       -1.28889332      -0.31904589       0.22989532
N       -1.22592089       0.97167240      -0.14490893
C        0.03882801       1.24892841      -0.29897456
H        1.23138962      -0.73393168      -0.83835938
H        0.05863179      -1.81940208       0.92096056
H       -2.17938065      -0.78046702       0.18334176
H        0.37061955       2.22009066      -0.63148054
10
Frame=7 idx=000437 GeodesicLength=0.7045800985559575 rxn_smarts="[O:1]([c:2]1[c:3]([H:8])[n:4]([H:9])[n:5][c:6]1[H:10])[H:7]>>[O:1]=[C:2]1[C:3]([H:7])([H:8])[N:4]([H:9])[N:5]=[C:6]1[H:10]"
O        2.17752193      -0.03269451       0.06333846
C        0.88181351       0.15991451       0.13252957
C       -0.06616146      -0.90340027       0.35404005
N       -1.28780554      -0.31914197       0.22424662
N       -1.22764143       0.97549147      -0.13362558
C        0.03562766       1.25768759      -0.29312807
H        1.23182787      -0.78296800      -0.82657944
H        0.06603377      -1.80343533       0.93526513
H       -2.17525861      -0.78416993       0.16127859
H        0.36404229       2.23271643      -0.61736533
10
Frame=8 idx=000437 GeodesicLength=0.8051963554076434 rxn_smarts="[O:1]([c:2]1[c:3]([H:8])[n:4]([H:9])[n:5][c:6]1[H:10])[H:7]>>[O:1]=[C:2]1[C:3]([H:7])([H:8])[N:4]([H:9])[N:5]=[C:6]1[H:10]"
O        2.16908514      -0.03460937       0.03540870
C        0.88130841       0.17326178       0.13875465
C       -0.05908290      -0.90237321       0.34417150
N       -1.28650485      -0.31942842       0.21758749
N       -1.22943244       0.97880753      -0.12361557
C        0.03241330       1.26702422      -0.28583703
H        1.23244863      -0.83402032      -0.81313481
H        0.07319943      -1.78664314       0.94980739
H       -2.17067602      -0.78794651       0.13856374
H        0.35724132       2.24592743      -0.60170605
10
Frame=9 idx=000437 GeodesicLength=0.905782680038483 rxn_smarts="[O:1]([c:2]1[c:3]([H:8])[n:4]([H:9])[n:5][c:6]1[H:10])[H:7]>>[O:1]=[C:2]1[C:3]([H:7])([H:8])[N:4]([H:9])[N:5]=[C:6]1[H:10]"
O        2.15944375      -0.03645838       0.00391172
C        0.88103533       0.18683013       0.14517589
C       -0.05162057      -0.90080796       0.33525369
N       -1.28493630      -0.31989378       0.20985435
N       -1.23126292       0.98170489      -0.11467575
C        0.02920072       1.27702342      -0.27680502
H        1.23338448      -0.88723593      -0.79763570
H        0.08012178      -1.76899324       0.96458854
H       -2.16557888      -0.79182252       0.11504449
H        0.35021261       2.25965336      -0.58471221
10
Frame=10 idx=000437 GeodesicLength=1.006327929263967 rxn_smarts="[O:1]([c:2]1[c:3]([H:8])[n:4]([H:9])[n:5][c:6]1[H:10])[H:7]>>[O:1]=[C:2]1[C:3]([H:7])([H:8])[N:4]([H:9])[N:5]=[C:6]1[H:10]"
O        2.14823355      -0.03825559      -0.03175128
C        0.88108459       0.20068801       0.15194826
C       -0.04371993      -0.89873246       0.32710816
N       -1.28303804      -0.32052755       0.20094016
N       -1.23314323       0.98428214      -0.10655845
C        0.02598462       1.28776944      -0.26569931
H        1.23483622      -0.94286681      -0.77958541
H        0.08673496      -1.75038902       0.97965731
H       -2.15987372      -0.79583316       0.09044860
H        0.34290099       2.27386499      -0.56650803
10
Frame=11 idx=000437 GeodesicLength=1.106804901017658 rxn_smarts="[O:1]([c:2]1[c:3]([H:8])[n:4]([H:9])[n:5][c:6]1[H:10])[H:7]>>[O:1]=[C:2]1[C:3]([H:7])([H:8])[N:4]([H:9])[N:5]=[C:6]1[H:10]"
O        2.13488830      -0.04001152      -0.07240344
C        0.88156508       0.21490642       0.15919626
C       -0.03531047      -0.89616300       0.31957256
N       -1.28071526      -0.32132700       0.19068079
N       -1.23505417       0.98662222      -0.09898142
C        0.02276225       1.29938616      -0.25201445
H        1.23705016      -1.00122513      -0.75829292
H        0.09296863      -1.73071429       0.99507783
H       -2.15341160      -0.79999818       0.06439648
H        0.33525707       2.28852433      -0.54723169
10
Frame=12 idx=000437 GeodesicLength=1.2071847660909385 rxn_smarts="[O:1]([c:2]1[c:3]([H:8])[n:4]([H:9])[n:5][c:6]1[H:10])[H:7]>>[O:1]=[C:2]1[C:3]([H:7])([H:8])[N:4]([H:9])[N:5]=[C:6]1[H:10]"
O        2.11856844      -0.04177136      -0.11922092
C        0.88261841       0.22953958       0.16695032
C       -0.02628915      -0.89309821       0.31249442
N       -1.27783205      -0.32229426       0.17881983
N       -1.23695005       0.98882809      -0.09148660
C        0.01951909       1.31203229      -0.23500322
H        1.24040227      -1.06273473      -0.73275333
H        0.09874311      -1.70975109       1.01097182
H       -2.14598341      -0.80432543       0.03626513
H        0.32720333       2.30357512      -0.52703744
10
Frame=13 idx=000437 GeodesicLength=1.3074935197394784 rxn_smarts="[O:1]([c:2]1[c:3]([H:8])[n:4]([H:9])[n:5][c:6]1[H:10])[H:7]>>[O:1]=[C:2]1[C:3]([H:7])([H:8])[N:4]([H:9])[N:5]=[C:6]1[H:10]"
O        2.09807656      -0.04364246      -0.17391167
C        0.88447196       0.24463727       0.17502803
C       -0.01654115      -0.88956094       0.30567085
N       -1.27424962      -0.32345249       0.16496317
N       -1.23880295       0.99102575      -0.08358644
C        0.01623998       1.32595716      -0.21370869
H        1.24558831      -1.12800599      -0.70144567
H        0.10392167      -1.68714702       1.02754060
H       -2.13738872      -0.80886714       0.00531203
H        0.31868396       2.31905588      -0.50586220
10
Frame=14 idx=000437 GeodesicLength=1.407604897734608 rxn_smarts="[O:1]([c:2]1[c:3]([H:8])[n:4]([H:9])[n:5][c:6]1[H:10])[H:7]>>[O:1]=[C:2]1[C:3]([H:7])([H:8])[N:4]([H:9])[N:5]=[C:6]1[H:10]"
O        2.07147280      -0.04597676      -0.23888049
C        0.88741246       0.26019268       0.18283440
C       -0.00588720      -0.88556842       0.29878241
N       -1.26968071      -0.32478643       0.14848113
N       -1.24051303       0.99328725      -0.07458939
C        0.01287694       1.34126155      -0.18713699
H        1.25376789      -1.19760457      -0.66193232
H        0.10827935      -1.66232634       1.04503379
H       -2.12724477      -0.81346225      -0.02939798
H        0.30951625       2.33498328      -0.48319457
10
Frame=15 idx=000437 GeodesicLength=1.5072889226280544 rxn_smarts="[O:1]([c:2]1[c:3]([H:8])[n:4]([H:9])[n:5][c:6]1[H:10])[H:7]>>[O:1]=[C:2]1[C:3]([H:7])([H:8])[N:4]([H:9])[N:5]=[C:6]1[H:10]"
O        2.03566236      -0.04975990      -0.31694662
C        0.89175455       0.27610047       0.18911973
C        0.00590139      -0.88118337       0.29114924
N       -1.26368954      -0.32615922       0.12863196
N       -1.24189967       0.99557811      -0.06391675
C        0.00936052       1.35769862      -0.15491336
H        1.26685300      -1.27149260      -0.61050309
H        0.11163821      -1.63449224       1.06339324
H       -2.11506286      -0.81764328      -0.06849018
H        0.29948202       2.35135340      -0.45752415
10
Frame=16 idx=000437 GeodesicLength=1.6064266352893561 rxn_smarts="[O:1]([c:2]1[c:3]([H:8])[n:4]([H:9])[n:5][c:6]1[H:10])[H:7]>>[O:1]=[C:2]1[C:3]([H:7])([H:8])[N:4]([H:9])[N:5]=[C:6]1[H:10]"
O        1.98689594      -0.05713461      -0.40945462
C        0.89785964       0.29220796       0.19222419
C        0.01895825      -0.87680517       0.28163103
N       -1.25606047      -0.32734341       0.10544016
N       -1.24278269       0.99798900      -0.05020640
C        0.00577597       1.37464967      -0.11786179
H        1.28756863      -1.34732671      -0.54327688
H        0.11382573      -1.60345822       1.08162400
H       -2.10071184      -0.82088351      -0.11224468
H        0.28867083       2.36810500      -0.42787501
