12
Frame=0 idx=009618 GeodesicLength=0.0 rxn_smarts="[C:1]([O:2][c:3]1[n:4][o:5][c:6]([H:11])[c:7]1[H:12])([H:8])([H:9])[H:10]>>[C:1]([O:2][C:3]#[N+:4][O-:5])([H:8])([H:9])[H:10].[C:6](#[C:7][H:12])[H:11]"
C       -0.62507879      -2.00379459      -0.56073000
O        0.64153774      -1.33032653      -0.43396567
C        0.62588860      -0.27980699       0.32843633
N        0.82687223       0.13909738       1.43511484
O        0.83076016       1.17063349       2.08470180
C        0.18004233       2.52029302       0.24868235
C        0.09591046       1.71442233      -0.65257630
H       -0.92003905      -2.41376913       0.40593447
H       -1.38302973      -1.30718306      -0.92035295
H       -0.46610682      -2.80032806      -1.28223395
H        0.23151500       3.30109027       0.96916023
H       -0.03827210       1.28967182      -1.62217118
12
Frame=1 idx=009618 GeodesicLength=0.12108166158269533 rxn_smarts="[C:1]([O:2][c:3]1[n:4][o:5][c:6]([H:11])[c:7]1[H:12])([H:8])([H:9])[H:10]>>[C:1]([O:2][C:3]#[N+:4][O-:5])([H:8])([H:9])[H:10].[C:6](#[C:7][H:12])[H:11]"
C       -0.62231635      -2.06420298      -0.53976307
O        0.58057166      -1.27451851      -0.50203566
C        0.54841114      -0.24987305       0.29528234
N        0.71555442       0.13742709       1.42048458
O        0.73672844       1.16993441       2.07697555
C        0.24238541       2.55291993       0.26133576
C        0.14618117       1.77696153      -0.66915218
H       -0.78042271      -2.53197269       0.43289357
H       -1.47482909      -1.43352289      -0.79445360
H       -0.45926637      -2.81701491      -1.30589019
H        0.32657334       3.32384207       0.98997674
H        0.04042895       1.41002000      -1.66565384
12
Frame=2 idx=009618 GeodesicLength=0.22236020448850402 rxn_smarts="[C:1]([O:2][c:3]1[n:4][o:5][c:6]([H:11])[c:7]1[H:12])([H:8])([H:9])[H:10]>>[C:1]([O:2][C:3]#[N+:4][O-:5])([H:8])([H:9])[H:10].[C:6](#[C:7][H:12])[H:11]"
C       -0.61714245      -2.11650174      -0.52002471
O        0.51005395      -1.22344791      -0.56371512
C        0.47205377      -0.22094376       0.26196060
N        0.60923096       0.13856745       1.40185582
O        0.64324093       1.17174850       2.06537045
C        0.31490539       2.57733373       0.27239793
C        0.19027566       1.83016498      -0.68273666
H       -0.64095616      -2.62015613       0.44736943
H       -1.54177203      -1.55872440      -0.67312291
H       -0.46082513      -2.83198311      -1.32238037
H        0.41038408       3.33554736       1.01354833
H        0.11055103       1.51839503      -1.70052279
12
Frame=3 idx=009618 GeodesicLength=0.3128221796949353 rxn_smarts="[C:1]([O:2][c:3]1[n:4][o:5][c:6]([H:11])[c:7]1[H:12])([H:8])([H:9])[H:10]>>[C:1]([O:2][C:3]#[N+:4][O-:5])([H:8])([H:9])[H:10].[C:6](#[C:7][H:12])[H:11]"
C       -0.60906467      -2.16511995      -0.50212500
O        0.42575397      -1.17349994      -0.61947540
C        0.38492970      -0.19105613       0.23075824
N        0.49022556       0.14393647       1.38296310
O        0.56583469       1.17869946       2.04927638
C        0.39121404       2.59423132       0.28410624
C        0.23259245       1.87795338      -0.69391059
H       -0.49821612      -2.68798623       0.44899909
H       -1.58968814      -1.69042178      -0.55378865
H       -0.46421592      -2.84649219      -1.33566664
H        0.49200258       3.34045338       1.03730845
H        0.17863188       1.61930221      -1.72844522
12
Frame=4 idx=009618 GeodesicLength=0.39331985734199765 rxn_smarts="[C:1]([O:2][c:3]1[n:4][o:5][c:6]([H:11])[c:7]1[H:12])([H:8])([H:9])[H:10]>>[C:1]([O:2][C:3]#[N+:4][O-:5])([H:8])([H:9])[H:10].[C:6](#[C:7][H:12])[H:11]"
C       -0.59956170      -2.20642886      -0.48456419
O        0.32982317      -1.12620360      -0.67215373
C        0.29649190      -0.16135592       0.19924517
N        0.37220244       0.15233118       1.36122920
O        0.49355873       1.18630335       2.03079770
C        0.46855775       2.60048823       0.29647139
C        0.27956514       1.91769672      -0.70425264
H       -0.35351797      -2.73221001       0.43931048
H       -1.61809770      -1.81957358      -0.43159729
H       -0.47597775      -2.85850944      -1.34458014
H        0.55906787       3.33688306       1.06143046
H        0.24788812       1.71057887      -1.75133641
12
Frame=5 idx=009618 GeodesicLength=0.46661343418137924 rxn_smarts="[C:1]([O:2][c:3]1[n:4][o:5][c:6]([H:11])[c:7]1[H:12])([H:8])([H:9])[H:10]>>[C:1]([O:2][C:3]#[N+:4][O-:5])([H:8])([H:9])[H:10].[C:6](#[C:7][H:12])[H:11]"
C       -0.58674543      -2.24149419      -0.46787889
O        0.21872189      -1.07944258      -0.72129526
C        0.19889584      -0.12998202       0.16802496
N        0.24636846       0.16543546       1.33774202
O        0.42796590       1.19400182       2.01094423
C        0.54805900       2.59598468       0.30993021
C        0.32357155       1.95026531      -0.71242235
H       -0.20675956      -2.75144271       0.41879980
H       -1.62615041      -1.95034182      -0.31103223
H       -0.48781310      -2.87028505      -1.34807501
H        0.62698295       3.32467127       1.08412767
H        0.31690291       1.79262983      -1.76886514
12
Frame=6 idx=009618 GeodesicLength=0.5329262771384552 rxn_smarts="[C:1]([O:2][c:3]1[n:4][o:5][c:6]([H:11])[c:7]1[H:12])([H:8])([H:9])[H:10]>>[C:1]([O:2][C:3]#[N+:4][O-:5])([H:8])([H:9])[H:10].[C:6](#[C:7][H:12])[H:11]"
C       -0.57201034      -2.26676142      -0.45237321
O        0.09880889      -1.03672769      -0.76597029
C        0.10815503      -0.10037810       0.13819830
N        0.12531161       0.18064171       1.31378804
O        0.35903331       1.20189835       1.99112042
C        0.61973445       2.57941563       0.32401938
C        0.36661949       1.97171627      -0.71944515
H       -0.06337652      -2.74613624       0.38561633
H       -1.61215470      -2.06936634      -0.18976116
H       -0.50587857      -2.87876945      -1.34734983
H        0.69071827       3.30339125       1.10415085
H        0.38503908       1.86107602      -1.78199367
12
Frame=7 idx=009618 GeodesicLength=0.5943411963009436 rxn_smarts="[C:1]([O:2][c:3]1[n:4][o:5][c:6]([H:11])[c:7]1[H:12])([H:8])([H:9])[H:10]>>[C:1]([O:2][C:3]#[N+:4][O-:5])([H:8])([H:9])[H:10].[C:6](#[C:7][H:12])[H:11]"
C       -0.55555544      -2.28260033      -0.43881783
O       -0.02761167      -0.99866595      -0.80248647
C        0.02291746      -0.07269738       0.11194983
N        0.00573455       0.19916340       1.29118108
O        0.29625048       1.20973233       1.97178172
C        0.68414906       2.55216343       0.33796984
C        0.40913780       1.98154325      -0.72519550
H        0.07050331      -2.71886439       0.34126967
H       -1.57820030      -2.17589465      -0.07461204
H       -0.52488227      -2.88416638      -1.34272484
H        0.74818487       3.27478705       1.12081145
H        0.44937215       1.91549962      -1.79112691
12
Frame=8 idx=009618 GeodesicLength=0.6532222812293155 rxn_smarts="[C:1]([O:2][c:3]1[n:4][o:5][c:6]([H:11])[c:7]1[H:12])([H:8])([H:9])[H:10]>>[C:1]([O:2][C:3]#[N+:4][O-:5])([H:8])([H:9])[H:10].[C:6](#[C:7][H:12])[H:11]"
C       -0.53933048      -2.28955715      -0.42770991
O       -0.15771021      -0.96610955      -0.82918303
C       -0.05138734      -0.04861013       0.09029184
N       -0.10358077       0.21873889       1.27112292
O        0.23812394       1.21829532       1.95374300
C        0.73785088       2.51748177       0.35148325
C        0.45112492       1.97976374      -0.73014242
H        0.19271478      -2.67534372       0.28373595
H       -1.52635736      -2.26672809       0.03616594
H       -0.54930221      -2.88504617      -1.33613033
H        0.79160337       3.24277982       1.13355664
H        0.51625049       1.95433526      -1.79693388
12
Frame=9 idx=009618 GeodesicLength=0.7117977177602446 rxn_smarts="[C:1]([O:2][c:3]1[n:4][o:5][c:6]([H:11])[c:7]1[H:12])([H:8])([H:9])[H:10]>>[C:1]([O:2][C:3]#[N+:4][O-:5])([H:8])([H:9])[H:10].[C:6](#[C:7][H:12])[H:11]"
C       -0.52319939      -2.28887802      -0.41948367
O       -0.29107609      -0.93838434      -0.84409175
C       -0.12254802      -0.02638025       0.07324525
N       -0.20258299       0.23867244       1.25466864
O        0.18540487       1.22772748       1.93737679
C        0.78258656       2.47736534       0.36450392
C        0.49481588       1.96633338      -0.73418232
H        0.30330553      -2.61749343       0.21292107
H       -1.45744283      -2.34420000       0.14092648
H       -0.57726045      -2.88156224      -1.32815707
H        0.82168097       3.20957095       1.14186482
H        0.58631598       1.97722869      -1.79959215
12
Frame=10 idx=009618 GeodesicLength=0.7712056845046453 rxn_smarts="[C:1]([O:2][c:3]1[n:4][o:5][c:6]([H:11])[c:7]1[H:12])([H:8])([H:9])[H:10]>>[C:1]([O:2][C:3]#[N+:4][O-:5])([H:8])([H:9])[H:10].[C:6](#[C:7][H:12])[H:11]"
C       -0.50789885      -2.28157969      -0.41464310
O       -0.41814287      -0.91633972      -0.84609190
C       -0.19000867      -0.00613668       0.06208063
N       -0.28640081       0.25638935       1.24453131
O        0.13813805       1.23956592       1.92361134
C        0.81728107       2.43444351       0.37630325
C        0.53613839       1.94254884      -0.73727022
H        0.39679350      -2.55175853       0.13269691
H       -1.37643817      -2.40622358       0.23347449
H       -0.60685912      -2.87388046      -1.31974699
H        0.83988422       3.17812729       1.14430488
H        0.65751325       1.98484374      -1.79925060
12
Frame=11 idx=009618 GeodesicLength=0.833060845409307 rxn_smarts="[C:1]([O:2][c:3]1[n:4][o:5][c:6]([H:11])[c:7]1[H:12])([H:8])([H:9])[H:10]>>[C:1]([O:2][C:3]#[N+:4][O-:5])([H:8])([H:9])[H:10].[C:6](#[C:7][H:12])[H:11]"
C       -0.49149618      -2.26784709      -0.41246064
O       -0.54213924      -0.89852381      -0.83776716
C       -0.26494409       0.01577103       0.05481851
N       -0.36497415       0.27393172       1.23961735
O        0.09772669       1.25114899       1.91223146
C        0.84641296       2.38722068       0.38699101
C        0.57548767       1.90869667      -0.73942651
H        0.47687556      -2.47390056       0.04685447
H       -1.28361719      -2.45699260       0.31330532
H       -0.63190527      -2.86357424      -1.30982549
H        0.85422335       3.14547486       1.14187318
H        0.72834988       1.97859435      -1.79621149
12
Frame=12 idx=009618 GeodesicLength=0.8983695506880419 rxn_smarts="[C:1]([O:2][c:3]1[n:4][o:5][c:6]([H:11])[c:7]1[H:12])([H:8])([H:9])[H:10]>>[C:1]([O:2][C:3]#[N+:4][O-:5])([H:8])([H:9])[H:10].[C:6](#[C:7][H:12])[H:11]"
C       -0.47459836      -2.24779622      -0.41308017
O       -0.66227665      -0.88458109      -0.81996258
C       -0.34279746       0.03841995       0.05172332
N       -0.43610709       0.28961561       1.24027433
O        0.05996541       1.26394357       1.90317241
C        0.86919388       2.33697370       0.39683001
C        0.61299484       1.86472052      -0.74019758
H        0.54442981      -2.38594908      -0.04736277
H       -1.17864535      -2.49495799       0.38264750
H       -0.65622687      -2.85019482      -1.29850441
H        0.86228251       3.11310322       1.13432791
H        0.80178533       1.95670264      -1.78986797
12
Frame=13 idx=009618 GeodesicLength=0.9684174610385792 rxn_smarts="[C:1]([O:2][c:3]1[n:4][o:5][c:6]([H:11])[c:7]1[H:12])([H:8])([H:9])[H:10]>>[C:1]([O:2][C:3]#[N+:4][O-:5])([H:8])([H:9])[H:10].[C:6](#[C:7][H:12])[H:11]"
C       -0.45732388      -2.22167141      -0.41640110
O       -0.77707700      -0.87437561      -0.79348026
C       -0.42111560       0.06139257       0.05278168
N       -0.50124810       0.30360851       1.24591522
O        0.02508551       1.27745908       1.89633923
C        0.88629849       2.28442026       0.40606563
C        0.64967149       1.81040579      -0.73901548
H        0.59868823      -2.28920953      -0.14899950
H       -1.06299059      -2.51905854       0.44068918
H       -0.67962565      -2.83422062      -1.28544194
H        0.86293325       3.08165650       1.12138749
H        0.87670385       1.91959301      -1.77984016
12
Frame=14 idx=009618 GeodesicLength=1.0473847359857686 rxn_smarts="[C:1]([O:2][c:3]1[n:4][o:5][c:6]([H:11])[c:7]1[H:12])([H:8])([H:9])[H:10]>>[C:1]([O:2][C:3]#[N+:4][O-:5])([H:8])([H:9])[H:10].[C:6](#[C:7][H:12])[H:11]"
C       -0.43652709      -2.18684610      -0.42089707
O       -0.88981659      -0.86796815      -0.76055242
C       -0.51008895       0.08825592       0.05498828
N       -0.57379990       0.32113591       1.25277181
O       -0.00467869       1.28604091       1.89088952
C        0.90258396       2.22330067       0.41445713
C        0.68272396       1.74430928      -0.73649634
H        0.64143543      -2.17463961      -0.25016193
H       -0.93633552      -2.52866897       0.48637558
H       -0.69056156      -2.81580398      -1.26931642
H        0.86889805       3.04225447       1.10543303
H        0.94616690       1.86862966      -1.76749116
12
Frame=15 idx=009618 GeodesicLength=1.1316910038269774 rxn_smarts="[C:1]([O:2][c:3]1[n:4][o:5][c:6]([H:11])[c:7]1[H:12])([H:8])([H:9])[H:10]>>[C:1]([O:2][C:3]#[N+:4][O-:5])([H:8])([H:9])[H:10].[C:6](#[C:7][H:12])[H:11]"
C       -0.41814189      -2.14919811      -0.42938525
O       -0.99142099      -0.86517008      -0.71831940
C       -0.58604770       0.11123869       0.06360877
N       -0.62894190       0.33207755       1.26655129
O       -0.03995856       1.30382967       1.88673193
C        0.91151517       2.16560104       0.42313985
C        0.71676641       1.66941468      -0.72972743
H        0.66762991      -2.06265082      -0.36030310
H       -0.80443442      -2.52506037       0.51885201
H       -0.70689514      -2.79507383      -1.25361911
H        0.86164294       3.01073175       1.08192164
H        1.01828619       1.80425982      -1.74945121
12
Frame=16 idx=009618 GeodesicLength=1.226301962935983 rxn_smarts="[C:1]([O:2][c:3]1[n:4][o:5][c:6]([H:11])[c:7]1[H:12])([H:8])([H:9])[H:10]>>[C:1]([O:2][C:3]#[N+:4][O-:5])([H:8])([H:9])[H:10].[C:6](#[C:7][H:12])[H:11]"
C       -0.39841863      -2.10597625      -0.43842496
O       -1.08421976      -0.86645725      -0.67252406
C       -0.66222328       0.13530588       0.07160695
N       -0.68838957       0.34583695       1.27898638
O       -0.06928435       1.31629390       1.88305646
C        0.91844033       2.10387925       0.43177138
C        0.74655742       1.58774462      -0.72075587
H        0.68037062      -1.94348116      -0.46880874
H       -0.66741943      -2.50454283       0.54048252
H       -0.71555344      -2.77453477      -1.23364607
H        0.85462902       2.97453337       1.05632583
H        1.08551107       1.73139830      -1.72806982
