14
Frame=0 idx=004230 GeodesicLength=0.0 rxn_smarts="[C:1]1([H:7])([H:8])[C@@:2]2([H:9])[C:3]([H:10])([H:11])[C@:4]1([H:12])[O:5][C:6]2([H:13])[H:14]>>[C:1]([C@@:2]1([H:9])[C:3]([H:11])=[C:4]([H:12])[O:5][C:6]1([H:13])[H:14])([H:7])([H:8])[H:10]"
C       -0.87679013      -0.92751642      -0.43693141
C        0.10344656       0.20199807      -0.83832655
C       -0.63188598       1.19469489       0.08128225
C       -0.33675518       0.24683507       1.20218247
O        0.91056142      -0.17592367       1.27739934
C        1.41857776      -0.06049599      -0.09392140
H       -1.69163318      -1.03366629      -1.15945675
H       -0.49789285      -1.91549188      -0.16820055
H        0.23058730       0.42727850      -1.89695428
H       -1.59806806       0.00703153       0.14492819
H       -0.17549120       2.18860943       0.22932324
H       -0.90506549       0.07297692       2.11209504
H        1.93110196      -0.99907992      -0.30783455
H        2.11930706       0.77274975      -0.14558509
14
Frame=1 idx=004230 GeodesicLength=0.061884991837985015 rxn_smarts="[C:1]1([H:7])([H:8])[C@@:2]2([H:9])[C:3]([H:10])([H:11])[C@:4]1([H:12])[O:5][C:6]2([H:13])[H:14]>>[C:1]([C@@:2]1([H:9])[C:3]([H:11])=[C:4]([H:12])[O:5][C:6]1([H:13])[H:14])([H:7])([H:8])[H:10]"
C       -0.87582928      -0.92915145      -0.43827839
C        0.10480567       0.20047291      -0.83514678
C       -0.63017980       1.18873510       0.08860248
C       -0.33415374       0.24688326       1.20795422
O        0.91934380      -0.17033910       1.28147980
C        1.41919971      -0.06386538      -0.09134036
H       -1.68473856      -1.03509826      -1.16722157
H       -0.49577436      -1.92070975      -0.18454656
H        0.23216712       0.43041614      -1.89258148
H       -1.61624144       0.01332943       0.13576074
H       -0.19386455       2.19118805       0.22660330
H       -0.89379971       0.08800313       2.12569302
H        1.92538902      -1.00578669      -0.30630168
H        2.12367612       0.76592261      -0.15067675
14
Frame=2 idx=004230 GeodesicLength=0.12380337107518974 rxn_smarts="[C:1]1([H:7])([H:8])[C@@:2]2([H:9])[C:3]([H:10])([H:11])[C@:4]1([H:12])[O:5][C:6]2([H:13])[H:14]>>[C:1]([C@@:2]1([H:9])[C:3]([H:11])=[C:4]([H:12])[O:5][C:6]1([H:13])[H:14])([H:7])([H:8])[H:10]"
C       -0.87490687      -0.93082359      -0.43955035
C        0.10619545       0.19888842      -0.83186323
C       -0.62849909       1.18260764       0.09608533
C       -0.33140691       0.24679507       1.21391301
O        0.92834803      -0.16466927       1.28557936
C        1.41988050      -0.06730178      -0.08870608
H       -1.67783951      -1.03642028      -1.17490385
H       -0.49369210      -1.92583351      -0.20118262
H        0.23374433       0.43355286      -1.88807588
H       -1.63455731       0.02009141       0.12581765
H       -0.21297397       2.19335626       0.22392714
H       -0.88204914       0.10336927       2.13938019
H        1.91968228      -1.01256886      -0.30459884
H        2.12807432       0.75895636      -0.15582183
14
Frame=3 idx=004230 GeodesicLength=0.18560293258721078 rxn_smarts="[C:1]1([H:7])([H:8])[C@@:2]2([H:9])[C:3]([H:10])([H:11])[C@:4]1([H:12])[O:5][C:6]2([H:13])[H:14]>>[C:1]([C@@:2]1([H:9])[C:3]([H:11])=[C:4]([H:12])[O:5][C:6]1([H:13])[H:14])([H:7])([H:8])[H:10]"
C       -0.87400317      -0.93250825      -0.44073253
C        0.10761950       0.19723581      -0.82847038
C       -0.62683592       1.17628035       0.10373825
C       -0.32851513       0.24656003       1.22006435
O        0.93754603      -0.15891085       1.28968440
C        1.42058823      -0.07080583      -0.08602820
H       -1.67088892      -1.03760692      -1.18247516
H       -0.49164166      -1.93079320      -0.21806912
H        0.23532962       0.43667126      -1.88342910
H       -1.65293973       0.02736043       0.11506093
H       -0.23284362       2.19504474       0.22129587
H       -0.86980623       0.11904324       2.15313344
H        1.91394066      -1.01940157      -0.30273421
H        2.13245036       0.75183076      -0.16103855
14
Frame=4 idx=004230 GeodesicLength=0.24741397294830195 rxn_smarts="[C:1]1([H:7])([H:8])[C@@:2]2([H:9])[C:3]([H:10])([H:11])[C@:4]1([H:12])[O:5][C:6]2([H:13])[H:14]>>[C:1]([C@@:2]1([H:9])[C:3]([H:11])=[C:4]([H:12])[O:5][C:6]1([H:13])[H:14])([H:7])([H:8])[H:10]"
C       -0.87314244      -0.93423192      -0.44182810
C        0.10906948       0.19552230      -0.82496345
C       -0.62520834       1.16977358       0.11157091
C       -0.32546165       0.24618712       1.22642265
O        0.94698114      -0.15305504       1.29380257
C        1.42135592      -0.07437512      -0.08329670
H       -1.66393911      -1.03868830      -1.18994917
H       -0.48964383      -1.93562942      -0.23519919
H        0.23690152       0.43979010      -1.87863766
H       -1.67142698       0.03516956       0.10341339
H       -0.25349340       2.19624678       0.21873175
H       -0.85704695       0.13503230       2.16694275
H        1.90820455      -1.02630826      -0.30069483
H        2.13685008       0.74456631      -0.16631492
14
Frame=5 idx=004230 GeodesicLength=0.30920138729859226 rxn_smarts="[C:1]1([H:7])([H:8])[C@@:2]2([H:9])[C:3]([H:10])([H:11])[C@:4]1([H:12])[O:5][C:6]2([H:13])[H:14]>>[C:1]([C@@:2]1([H:9])[C:3]([H:11])=[C:4]([H:12])[O:5][C:6]1([H:13])[H:14])([H:7])([H:8])[H:10]"
C       -0.87232075      -0.93598806      -0.44282745
C        0.11054477       0.19374535      -0.82133568
C       -0.62361888       1.16307081       0.11959375
C       -0.32223858       0.24567299       1.23299851
O        0.95665229      -0.14709265       1.29792812
C        1.42217454      -0.07801011      -0.08051384
H       -1.65697542      -1.03965814      -1.19731551
H       -0.48770150      -1.94031280      -0.25254920
H        0.23845924       0.44290809      -1.87369300
H       -1.68998340       0.04356166       0.09081417
H       -0.27495594       2.19690602       0.21624740
H       -0.84375195       0.15132783       2.18079452
H        1.90245752      -1.03328434      -0.29847896
H        2.14125806       0.73715335      -0.17166281
14
Frame=6 idx=004230 GeodesicLength=0.3709596827837656 rxn_smarts="[C:1]1([H:7])([H:8])[C@@:2]2([H:9])[C:3]([H:10])([H:11])[C@:4]1([H:12])[O:5][C:6]2([H:13])[H:14]>>[C:1]([C@@:2]1([H:9])[C:3]([H:11])=[C:4]([H:12])[O:5][C:6]1([H:13])[H:14])([H:7])([H:8])[H:10]"
C       -0.87154099      -0.93777615      -0.44372277
C        0.11204285       0.19190446      -0.81758039
C       -0.62207498       1.15616327       0.12781702
C       -0.31883514       0.24501791       1.23980346
O        0.96656851      -0.14101388       1.30205699
C        1.42304393      -0.08171056      -0.07767993
H       -1.64999813      -1.04051738      -1.20456657
H       -0.48582205      -1.94482755      -0.27009349
H        0.23999753       0.44602778      -1.86858701
H       -1.70858053       0.05258238       0.07719486
H       -0.29726356       2.19697507       0.21385811
H       -0.82990381       0.16791710       2.19467282
H        1.89669492      -1.04033099      -0.29608247
H        2.14567147       0.72958855      -0.17709063
14
Frame=7 idx=004230 GeodesicLength=0.43268637089973 rxn_smarts="[C:1]1([H:7])([H:8])[C@@:2]2([H:9])[C:3]([H:10])([H:11])[C@:4]1([H:12])[O:5][C:6]2([H:13])[H:14]>>[C:1]([C@@:2]1([H:9])[C:3]([H:11])=[C:4]([H:12])[O:5][C:6]1([H:13])[H:14])([H:7])([H:8])[H:10]"
C       -0.87080701      -0.93959583      -0.44450584
C        0.11356040       0.18999968      -0.81369083
C       -0.62058613       1.14904232       0.13625082
C       -0.31523930       0.24422418       1.24684953
O        0.97674000      -0.13480683       1.30618463
C        1.42396426      -0.08547516      -0.07479543
H       -1.64300957      -1.04126795      -1.21169397
H       -0.48401386      -1.94915903      -0.28780233
H        0.24150968       0.44915231      -1.86331159
H       -1.72718601       0.06228010       0.06248207
H       -0.32044531       2.19640261       0.21158133
H       -0.81548735       0.18478259       2.20856011
H        1.89091250      -1.04744884      -0.29350072
H        2.15008769       0.72186986      -0.18260779
14
Frame=8 idx=004230 GeodesicLength=0.4943805701173606 rxn_smarts="[C:1]1([H:7])([H:8])[C@@:2]2([H:9])[C:3]([H:10])([H:11])[C@:4]1([H:12])[O:5][C:6]2([H:13])[H:14]>>[C:1]([C@@:2]1([H:9])[C:3]([H:11])=[C:4]([H:12])[O:5][C:6]1([H:13])[H:14])([H:7])([H:8])[H:10]"
C       -0.87012334      -0.94144606      -0.44516767
C        0.11509377       0.18803129      -0.80966011
C       -0.61916300       1.14169923       0.14490529
C       -0.31143726       0.24329579       1.25414906
O        0.98717788      -0.12845825       1.31030570
C        1.42493580      -0.08930185      -0.07186124
H       -1.63601338      -1.04191174      -1.21868759
H       -0.48228621      -1.95329290      -0.30564121
H        0.24298833       0.45228467      -1.85785864
H       -1.74576093       0.07270821       0.04659785
H       -0.34453085       2.19513317       0.20943539
H       -0.80049050       0.20190039       2.22243718
H        1.88510599      -1.05463783      -0.29072916
H        2.15450371       0.71399588      -0.18822485
14
Frame=9 idx=004230 GeodesicLength=0.5560410206719646 rxn_smarts="[C:1]1([H:7])([H:8])[C@@:2]2([H:9])[C:3]([H:10])([H:11])[C@:4]1([H:12])[O:5][C:6]2([H:13])[H:14]>>[C:1]([C@@:2]1([H:9])[C:3]([H:11])=[C:4]([H:12])[O:5][C:6]1([H:13])[H:14])([H:7])([H:8])[H:10]"
C       -0.86949516      -0.94332542      -0.44569864
C        0.11663853       0.18599988      -0.80548142
C       -0.61781854       1.13412497       0.15379001
C       -0.30741412       0.24223885       1.26171430
O        0.99789368      -0.12195245       1.31441383
C        1.42595845      -0.09318749      -0.06887885
H       -1.62901488      -1.04245093      -1.22553561
H       -0.48064892      -1.95721538      -0.32357130
H        0.24442502       0.45542777      -1.85222022
H       -1.76425899       0.08392296       0.02945962
H       -0.36954648       2.19310688       0.20744135
H       -0.78490488       0.21924105       2.23628395
H        1.87927067      -1.06189683      -0.28776289
H        2.15891562       0.70596613      -0.19395412
14
Frame=10 idx=004230 GeodesicLength=0.617668645245937 rxn_smarts="[C:1]1([H:7])([H:8])[C@@:2]2([H:9])[C:3]([H:10])([H:11])[C@:4]1([H:12])[O:5][C:6]2([H:13])[H:14]>>[C:1]([C@@:2]1([H:9])[C:3]([H:11])=[C:4]([H:12])[O:5][C:6]1([H:13])[H:14])([H:7])([H:8])[H:10]"
C       -0.86892827      -0.94523263      -0.44608853
C        0.11818939       0.18390640      -0.80114834
C       -0.61656842       1.12631037       0.16291410
C       -0.30315393       0.24106189       1.26955778
O        1.00889908      -0.11527091       1.31850201
C        1.42703164      -0.09712751      -0.06585042
H       -1.62202133      -1.04288867      -1.23222423
H       -0.47911177      -1.96091463      -0.34155051
H        0.24581019       0.45858445      -1.84638926
H       -1.78262612       0.09598489       0.01098130
H       -0.39551307       2.19025973       0.20562234
H       -0.76872728       0.23676857       2.25008047
H        1.87340157      -1.06922370      -0.28459679
H        2.16331833       0.69778176      -0.19980992
14
Frame=11 idx=004230 GeodesicLength=0.6792490539877195 rxn_smarts="[C:1]1([H:7])([H:8])[C@@:2]2([H:9])[C:3]([H:10])([H:11])[C@:4]1([H:12])[O:5][C:6]2([H:13])[H:14]>>[C:1]([C@@:2]1([H:9])[C:3]([H:11])=[C:4]([H:12])[O:5][C:6]1([H:13])[H:14])([H:7])([H:8])[H:10]"
C       -0.86843015      -0.94716494      -0.44632568
C        0.11973913       0.18175174      -0.79665399
C       -0.61543274       1.11824519       0.17228358
C       -0.29864032       0.23977673       1.27768768
O        1.02020639      -0.10839162       1.32255783
C        1.42815389      -0.10111627      -0.06277889
H       -1.61504296      -1.04322617      -1.23873656
H       -0.47768574      -1.96437520      -0.35952942
H        0.24713211       0.46175517      -1.84035691
H       -1.80079534       0.10894586      -0.00893518
H       -0.42244496       2.18652491       0.20401607
H       -0.75195735       0.25444547       2.26380416
H        1.86749249      -1.07661295      -0.28122352
H        2.16770557       0.68944208      -0.20580917
14
Frame=12 idx=004230 GeodesicLength=0.7407981270882972 rxn_smarts="[C:1]1([H:7])([H:8])[C@@:2]2([H:9])[C:3]([H:10])([H:11])[C@:4]1([H:12])[O:5][C:6]2([H:13])[H:14]>>[C:1]([C@@:2]1([H:9])[C:3]([H:11])=[C:4]([H:12])[O:5][C:6]1([H:13])[H:14])([H:7])([H:8])[H:10]"
C       -0.86801174      -0.94912516      -0.44640155
C        0.12128017       0.17953881      -0.79199362
C       -0.61443670       1.10992178       0.18190558
C       -0.29385708       0.23839081       1.28611712
O        1.03183080      -0.10129443       1.32657515
C        1.42932811      -0.10514614      -0.05966669
H       -1.60809760      -1.04347062      -1.24505912
H       -0.47638310      -1.96759809      -0.37746256
H        0.24837976       0.46494770      -1.83411906
H       -1.81869898       0.12287548      -0.03037850
H       -0.45035485       2.18183426       0.20264621
H       -0.73459852       0.27223256       2.27744060
H        1.86154355      -1.08406265      -0.27763706
H        2.17207619       0.68095568      -0.21196649
14
Frame=13 idx=004230 GeodesicLength=0.8023103894371124 rxn_smarts="[C:1]1([H:7])([H:8])[C@@:2]2([H:9])[C:3]([H:10])([H:11])[C@:4]1([H:12])[O:5][C:6]2([H:13])[H:14]>>[C:1]([C@@:2]1([H:9])[C:3]([H:11])=[C:4]([H:12])[O:5][C:6]1([H:13])[H:14])([H:7])([H:8])[H:10]"
C       -0.86766938      -0.95110744      -0.44630660
C        0.12280278       0.17726262      -0.78716040
C       -0.61360547       1.10131166       0.19179211
C       -0.28878962       0.23692477       1.29485163
O        1.04376541      -0.09394015       1.33053249
C        1.43053571      -0.10920465      -0.05652325
H       -1.60118035      -1.04362401      -1.25117058
H       -0.47520871      -1.97056201      -0.39530402
H        0.24954068       0.46815067      -1.82766545
H       -1.83624867       0.13782867      -0.05344219
H       -0.47921307       2.17609058       0.20157025
H       -0.71666238       0.29010084       2.29096748
H        1.85553412      -1.09155334      -0.27383978
H        2.17639893       0.67232178      -0.21830170
14
Frame=14 idx=004230 GeodesicLength=0.8638039419478609 rxn_smarts="[C:1]1([H:7])([H:8])[C@@:2]2([H:9])[C:3]([H:10])([H:11])[C@:4]1([H:12])[O:5][C:6]2([H:13])[H:14]>>[C:1]([C@@:2]1([H:9])[C:3]([H:11])=[C:4]([H:12])[O:5][C:6]1([H:13])[H:14])([H:7])([H:8])[H:10]"
C       -0.86742433      -0.95312394      -0.44603247
C        0.12429253       0.17493133      -0.78214853
C       -0.61298088       1.09241069       0.20193977
C       -0.28342203       0.23537737       1.30390290
O        1.05604065      -0.08630751       1.33442895
C        1.43178645      -0.11328779      -0.05334212
H       -1.59433160      -1.04369233      -1.25706035
H       -0.47417068      -1.97328397      -0.41302838
H        0.25059359       0.47138702      -1.82099066
H       -1.85335285       0.15386920      -0.07823493
H       -0.50905036       2.16924195       0.20081844
H       -0.69813203       0.30802688       2.30438169
H        1.84946630      -1.09909505      -0.26979928
H        2.18068524       0.66354615      -0.22483504
14
Frame=15 idx=004230 GeodesicLength=0.9252644875398554 rxn_smarts="[C:1]1([H:7])([H:8])[C@@:2]2([H:9])[C:3]([H:10])([H:11])[C@:4]1([H:12])[O:5][C:6]2([H:13])[H:14]>>[C:1]([C@@:2]1([H:9])[C:3]([H:11])=[C:4]([H:12])[O:5][C:6]1([H:13])[H:14])([H:7])([H:8])[H:10]"
C       -0.86727112      -0.95516861      -0.44557265
C        0.12574013       0.17253998      -0.77694963
C       -0.61260146       1.08318204       0.21236410
C       -0.27774837       0.23376284       1.31327732
O        1.06863834      -0.07834849       1.33823773
C        1.43305446      -0.11738918      -0.05013608
H       -1.58754123      -1.04366872      -1.26270474
H       -0.47325748      -1.97573653      -0.43061563
H        0.25153146       0.47465177      -1.81407973
H       -1.86988572       0.17103968      -0.10484591
H       -0.53984379       2.16116874       0.20046968
H       -0.67901777       0.32602832       2.31767244
H        1.84330761      -1.10667323      -0.26551031
H        2.18489496       0.65461140      -0.23160660
14
Frame=16 idx=004230 GeodesicLength=0.9867230166527574 rxn_smarts="[C:1]1([H:7])([H:8])[C@@:2]2([H:9])[C:3]([H:10])([H:11])[C@:4]1([H:12])[O:5][C:6]2([H:13])[H:14]>>[C:1]([C@@:2]1([H:9])[C:3]([H:11])=[C:4]([H:12])[O:5][C:6]1([H:13])[H:14])([H:7])([H:8])[H:10]"
C       -0.86722934      -0.95726162      -0.44492346
C        0.12712459       0.17009306      -0.77156239
C       -0.61252352       1.07361603       0.22305864
C       -0.27175546       0.23210072       1.32297747
O        1.08157901      -0.07002251       1.34194671
C        1.43434496      -0.12149070      -0.04690386
H       -1.58086538      -1.04357222      -1.26808445
H       -0.47248312      -1.97794998      -0.44802743
H        0.25232482       0.47795627      -1.80693221
H       -1.88574337       0.18938711      -0.13336761
H       -0.57152933       2.15183221       0.20057907
H       -0.65934420       0.34405029       2.33081956
H        1.83707040      -1.11428102      -0.26094916
H        2.18902995       0.64554235      -0.23863088
