15
Frame=0 idx=008793 GeodesicLength=0.0 rxn_smarts="[O:1]=[C:2]1[C:3]([H:8])([H:9])[C:4]([H:10])([H:11])[C:5]([H:12])([H:13])[C:6]([H:14])=[C:7]1[H:15]>>[H:11][H:13].[O:1]=[C:2]1[C:3]([H:8])([H:9])[C:4]([H:10])=[C:5]([H:12])[C:6]([H:14])=[C:7]1[H:15]"
O        0.57852115      -2.47291881       1.00923014
C        0.45478514      -1.37590688       0.49603201
C       -0.89550307      -0.99741424      -0.13146015
C       -1.09635380       0.49324971      -0.17061095
C        0.04083504       1.26100296      -0.72040784
C        1.30083013       0.76494653      -0.37363520
C        1.50419087      -0.40331890       0.32814171
H       -0.87516508      -1.32598807      -1.17762009
H       -1.69924137      -1.52165655       0.38261075
H       -2.08540576       0.87106160      -0.40999356
H       -1.17867836       0.61132803       1.21694110
H       -0.12633852       2.22023756      -1.18341276
H       -0.58480759       1.20389897       0.72618819
H        2.16566049       1.36668187      -0.63606566
H        2.49667069      -0.69520378       0.64406231
15
Frame=1 idx=008793 GeodesicLength=0.10950531942223121 rxn_smarts="[O:1]=[C:2]1[C:3]([H:8])([H:9])[C:4]([H:10])([H:11])[C:5]([H:12])([H:13])[C:6]([H:14])=[C:7]1[H:15]>>[H:11][H:13].[O:1]=[C:2]1[C:3]([H:8])([H:9])[C:4]([H:10])=[C:5]([H:12])[C:6]([H:14])=[C:7]1[H:15]"
O        0.58401031      -2.47983715       0.99397448
C        0.45461954      -1.37939723       0.49059966
C       -0.89579379      -0.99846270      -0.13198802
C       -1.09847199       0.49207245      -0.16929002
C        0.03794052       1.26298164      -0.70708559
C        1.30398970       0.76290742      -0.37097079
C        1.50793157      -0.40822824       0.32054844
H       -0.88149885      -1.33160100      -1.17680790
H       -1.69758832      -1.52214548       0.38612936
H       -2.08635604       0.86216573      -0.42644093
H       -1.18296639       0.62840301       1.23226825
H       -0.12870285       2.20136606      -1.21135178
H       -0.58261991       1.23446435       0.74530835
H        2.16599508       1.37717574      -0.61289230
H        2.49951142      -0.70186461       0.63799878
15
Frame=2 idx=008793 GeodesicLength=0.21869668261638958 rxn_smarts="[O:1]=[C:2]1[C:3]([H:8])([H:9])[C:4]([H:10])([H:11])[C:5]([H:12])([H:13])[C:6]([H:14])=[C:7]1[H:15]>>[H:11][H:13].[O:1]=[C:2]1[C:3]([H:8])([H:9])[C:4]([H:10])=[C:5]([H:12])[C:6]([H:14])=[C:7]1[H:15]"
O        0.58953293      -2.48671219       0.97829241
C        0.45447299      -1.38287996       0.48493330
C       -0.89601233      -0.99959211      -0.13288274
C       -1.10075719       0.49077174      -0.16802698
C        0.03480904       1.26549891      -0.69302779
C        1.30694431       0.76107096      -0.36813562
C        1.51152766      -0.41290259       0.31302734
H       -0.88755450      -1.33703094      -1.17639187
H       -1.69583609      -1.52282430       0.38917626
H       -2.08716238       0.85323109      -0.44263183
H       -1.18708717       0.64596003       1.24771278
H       -0.13094750       2.18063922      -1.23897776
H       -0.58008596       1.26603170       0.76494455
H        2.16604107       1.38671301      -0.59059583
H        2.50211511      -0.70797455       0.63258379
15
Frame=3 idx=008793 GeodesicLength=0.3277022762543794 rxn_smarts="[O:1]=[C:2]1[C:3]([H:8])([H:9])[C:4]([H:10])([H:11])[C:5]([H:12])([H:13])[C:6]([H:14])=[C:7]1[H:15]>>[H:11][H:13].[O:1]=[C:2]1[C:3]([H:8])([H:9])[C:4]([H:10])=[C:5]([H:12])[C:6]([H:14])=[C:7]1[H:15]"
O        0.59509318      -2.49351837       0.96227361
C        0.45433281      -1.38635829       0.47906607
C       -0.89617429      -1.00085692      -0.13414022
C       -1.10323157       0.48928606      -0.16693006
C        0.03139933       1.26847942      -0.67835693
C        1.30965034       0.75939430      -0.36520823
C        1.51496883      -0.41735537       0.30553361
H       -0.89334348      -1.34240714      -1.17635080
H       -1.69399592      -1.52371447       0.39179420
H       -2.08783951       0.84419480      -0.45871256
H       -1.19102368       0.66412281       1.26316170
H       -0.13302396       2.15825009      -1.26572894
H       -0.57709157       1.29866938       0.78505431
H        2.16581054       1.39534036      -0.56924832
H        2.50446895      -0.71352664       0.62779256
15
Frame=4 idx=008793 GeodesicLength=0.43669530923668026 rxn_smarts="[O:1]=[C:2]1[C:3]([H:8])([H:9])[C:4]([H:10])([H:11])[C:5]([H:12])([H:13])[C:6]([H:14])=[C:7]1[H:15]>>[H:11][H:13].[O:1]=[C:2]1[C:3]([H:8])([H:9])[C:4]([H:10])=[C:5]([H:12])[C:6]([H:14])=[C:7]1[H:15]"
O        0.60069098      -2.50021263       0.94607241
C        0.45418727      -1.38983811       0.47305933
C       -0.89628790      -1.00233527      -0.13575832
C       -1.10592172       0.48752223      -0.16615317
C        0.02767203       1.27182118      -0.66319971
C        1.31206546       0.75782491      -0.36225951
C        1.51824869      -0.42161141       0.29802509
H       -0.89885328      -1.34790897      -1.17665485
H       -1.69207785      -1.52485353       0.39402535
H       -2.08842435       0.83496345      -0.47486883
H       -1.19478207       0.68304423       1.27843999
H       -0.13489269       2.13462302      -1.29087309
H       -0.57348813       1.33244450       0.80558138
H        2.16530088       1.40303821      -0.54902279
H        2.50656269      -0.71852182       0.62358671
15
Frame=5 idx=008793 GeodesicLength=0.5457535659165046 rxn_smarts="[O:1]=[C:2]1[C:3]([H:8])([H:9])[C:4]([H:10])([H:11])[C:5]([H:12])([H:13])[C:6]([H:14])=[C:7]1[H:15]>>[H:11][H:13].[O:1]=[C:2]1[C:3]([H:8])([H:9])[C:4]([H:10])=[C:5]([H:12])[C:6]([H:14])=[C:7]1[H:15]"
O        0.60633919      -2.50680457       0.92978080
C        0.45402814      -1.39335083       0.46693249
C       -0.89637403      -1.00410698      -0.13773035
C       -1.10885331       0.48539470      -0.16581006
C        0.02358168       1.27539710      -0.64770985
C        1.31416338       0.75628059      -0.35943141
C        1.52136138      -0.42572341       0.29041047
H       -0.90412345      -1.35370588      -1.17727306
H       -1.69009299      -1.52627963       0.39593262
H       -2.08892469       0.82543833      -0.49127273
H       -1.19832063       0.70286611       1.29341297
H       -0.13657148       2.11024502      -1.31374514
H       -0.56908567       1.36742539       0.82644120
H        2.16453045       1.40981822      -0.53005336
H        2.50834204      -0.72289415       0.62011543
15
Frame=6 idx=008793 GeodesicLength=0.6549459257468278 rxn_smarts="[O:1]=[C:2]1[C:3]([H:8])([H:9])[C:4]([H:10])([H:11])[C:5]([H:12])([H:13])[C:6]([H:14])=[C:7]1[H:15]>>[H:11][H:13].[O:1]=[C:2]1[C:3]([H:8])([H:9])[C:4]([H:10])=[C:5]([H:12])[C:6]([H:14])=[C:7]1[H:15]"
O        0.61203641      -2.51325896       0.91356458
C        0.45384627      -1.39691872       0.46075065
C       -0.89644385      -1.00626629      -0.14003554
C       -1.11205068       0.48278961      -0.16605219
C        0.01910127       1.27906821      -0.63197798
C        1.31591127       0.75468855      -0.35679555
C        1.52431264      -0.42975766       0.28260955
H       -0.90916181      -1.36000657      -1.17814390
H       -1.68805006      -1.52803486       0.39759298
H       -2.08935983       0.81550327      -0.50811522
H       -1.20164783       0.72377456       1.30785906
H       -0.13808126       2.08572379      -1.33378270
H       -0.56368519       1.40366690       0.84758228
H        2.16346437       1.41572265      -0.51232538
H        2.50980828      -0.72669449       0.61726934
15
Frame=7 idx=008793 GeodesicLength=0.7643587150493099 rxn_smarts="[O:1]=[C:2]1[C:3]([H:8])([H:9])[C:4]([H:10])([H:11])[C:5]([H:12])([H:13])[C:6]([H:14])=[C:7]1[H:15]>>[H:11][H:13].[O:1]=[C:2]1[C:3]([H:8])([H:9])[C:4]([H:10])=[C:5]([H:12])[C:6]([H:14])=[C:7]1[H:15]"
O        0.61778442      -2.51956808       0.89755795
C        0.45363266      -1.40056641       0.45456888
C       -0.89650775      -1.00889820      -0.14266068
C       -1.11553673       0.47960801      -0.16699626
C        0.01419569       1.28271653      -0.61602250
C        1.31728116       0.75298433      -0.35442507
C        1.52710499      -0.43377791       0.27454530
H       -0.91397100      -1.36698348      -1.17922281
H       -1.68595893      -1.53016655       0.39905474
H       -2.08972875       0.80505311      -0.52558990
H       -1.20479249       0.74593119       1.32160457
H       -0.13949200       2.06161033      -1.35056878
H       -0.55704915       1.44122736       0.86900564
H        2.16208815       1.42078778      -0.49585577
H        2.51094973      -0.72995801       0.61500470
15
Frame=8 idx=008793 GeodesicLength=0.8740113027499946 rxn_smarts="[O:1]=[C:2]1[C:3]([H:8])([H:9])[C:4]([H:10])([H:11])[C:5]([H:12])([H:13])[C:6]([H:14])=[C:7]1[H:15]>>[H:11][H:13].[O:1]=[C:2]1[C:3]([H:8])([H:9])[C:4]([H:10])=[C:5]([H:12])[C:6]([H:14])=[C:7]1[H:15]"
O        0.62359098      -2.52574068       0.88186332
C        0.45338456      -1.40432498       0.44841846
C       -0.89657257      -1.01208258      -0.14558711
C       -1.11932580       0.47574213      -0.16872578
C        0.00883153       1.28624878      -0.59978855
C        1.31825012       0.75110289      -0.35236863
C        1.52974184      -0.43786301       0.26613607
H       -0.91855598      -1.37478110      -1.18045802
H       -1.68382564      -1.53271813       0.40036960
H       -2.09000045       0.79396840      -0.54386201
H       -1.20780437       0.76948847       1.33445298
H       -0.14091669       2.03847672      -1.36387391
H       -0.54893628       1.48016235       0.89076160
H        2.16040263       1.42503110      -0.48063975
H        2.51173611      -0.73271035       0.61330171
15
Frame=9 idx=008793 GeodesicLength=0.9839965061464281 rxn_smarts="[O:1]=[C:2]1[C:3]([H:8])([H:9])[C:4]([H:10])([H:11])[C:5]([H:12])([H:13])[C:6]([H:14])=[C:7]1[H:15]>>[H:11][H:13].[O:1]=[C:2]1[C:3]([H:8])([H:9])[C:4]([H:10])=[C:5]([H:12])[C:6]([H:14])=[C:7]1[H:15]"
O        0.62941709      -2.53174832       0.86669085
C        0.45307349      -1.40817188       0.44244897
C       -0.89661252      -1.01586954      -0.14886458
C       -1.12344129       0.47117501      -0.17139600
C        0.00293167       1.28968861      -0.58286957
C        1.31876267       0.74910741      -0.35056090
C        1.53223795      -0.44199778       0.25735255
H       -0.92276054      -1.38347694      -1.18191120
H       -1.68167339      -1.53574267       0.40140653
H       -2.09018499       0.78230463      -0.56315610
H       -1.21089475       0.79486200       1.34605384
H       -0.14249056       2.01608639      -1.37356222
H       -0.53890549       1.52029903       0.91333318
H        2.15828538       1.42856588      -0.46678075
H        2.51225528      -0.73508182       0.61181539
15
Frame=10 idx=008793 GeodesicLength=1.0940361134424015 rxn_smarts="[O:1]=[C:2]1[C:3]([H:8])([H:9])[C:4]([H:10])([H:11])[C:5]([H:12])([H:13])[C:6]([H:14])=[C:7]1[H:15]>>[H:11][H:13].[O:1]=[C:2]1[C:3]([H:8])([H:9])[C:4]([H:10])=[C:5]([H:12])[C:6]([H:14])=[C:7]1[H:15]"
O        0.63529340      -2.53757679       0.85214198
C        0.45271170      -1.41214738       0.43666987
C       -0.89665206      -1.02033450      -0.15241326
C       -1.12791035       0.46577742      -0.17503210
C       -0.00350795       1.29288746      -0.56539309
C        1.31880283       0.74689614      -0.34904737
C        1.53457775      -0.44626753       0.24815112
H       -0.92665956      -1.39324011      -1.18344738
H       -1.67949808      -1.53926745       0.40233254
H       -2.09020744       0.76982944      -0.58371241
H       -1.21406453       0.82206610       1.35637639
H       -0.14425427       1.99539432      -1.37942343
H       -0.52691083       1.56176190       0.93647476
H        2.15576780       1.43140759      -0.45405337
H        2.51251161      -0.73718661       0.61037574
15
Frame=11 idx=008793 GeodesicLength=1.2040243825518822 rxn_smarts="[O:1]=[C:2]1[C:3]([H:8])([H:9])[C:4]([H:10])([H:11])[C:5]([H:12])([H:13])[C:6]([H:14])=[C:7]1[H:15]>>[H:11][H:13].[O:1]=[C:2]1[C:3]([H:8])([H:9])[C:4]([H:10])=[C:5]([H:12])[C:6]([H:14])=[C:7]1[H:15]"
O        0.64122081      -2.54322414       0.83838545
C        0.45229511      -1.41625140       0.43115835
C       -0.89669114      -1.02552790      -0.15621774
C       -1.13274917       0.45949533      -0.17971206
C       -0.01054537       1.29579113      -0.54714495
C        1.31832374       0.74449692      -0.34775240
C        1.53674965      -0.45068375       0.23852464
H       -0.93021713      -1.40417944      -1.18502860
H       -1.67731511      -1.54331717       0.40315781
H       -2.08996622       0.75646367      -0.60579828
H       -1.21746326       0.85133783       1.36522300
H       -0.14631416       1.97666894      -1.38142496
H       -0.51272752       1.60447747       0.96039769
H        2.15281892       1.43363570      -0.44238893
H        2.51258086      -0.73918320       0.60862097
15
Frame=12 idx=008793 GeodesicLength=1.3138792748974162 rxn_smarts="[O:1]=[C:2]1[C:3]([H:8])([H:9])[C:4]([H:10])([H:11])[C:5]([H:12])([H:13])[C:6]([H:14])=[C:7]1[H:15]>>[H:11][H:13].[O:1]=[C:2]1[C:3]([H:8])([H:9])[C:4]([H:10])=[C:5]([H:12])[C:6]([H:14])=[C:7]1[H:15]"
O        0.64719762      -2.54868556       0.82556378
C        0.45181756      -1.42049167       0.42599023
C       -0.89672542      -1.03149652      -0.16026612
C       -1.13797561       0.45227652      -0.18548989
C       -0.01823772       1.29835462      -0.52794281
C        1.31728701       0.74191805      -0.34662104
C        1.53873933      -0.45525090       0.22848140
H       -0.93338221      -1.41637770      -1.18662855
H       -1.67513636      -1.54792803       0.40387626
H       -2.08937020       0.74213447      -0.62962872
H       -1.22122863       0.88289412       1.37244476
H       -0.14876514       1.96014327      -1.37952746
H       -0.49614195       1.64840914       0.98523143
H        2.14938539       1.43531493      -0.43170183
H        2.51253633      -0.74121475       0.60621856
15
Frame=13 idx=008793 GeodesicLength=1.4235276756391848 rxn_smarts="[O:1]=[C:2]1[C:3]([H:8])([H:9])[C:4]([H:10])([H:11])[C:5]([H:12])([H:13])[C:6]([H:14])=[C:7]1[H:15]>>[H:11][H:13].[O:1]=[C:2]1[C:3]([H:8])([H:9])[C:4]([H:10])=[C:5]([H:12])[C:6]([H:14])=[C:7]1[H:15]"
O        0.65322476      -2.55392277       0.81381095
C        0.45127520      -1.42485787       0.42122829
C       -0.89675426      -1.03827300      -0.16453689
C       -1.14359825       0.44408119      -0.19242752
C       -0.02664114       1.30053492      -0.50757289
C        1.31563974       0.73919649      -0.34555796
C        1.54053315      -0.45997267       0.21799779
H       -0.93612308      -1.42991511      -1.18820366
H       -1.67297222      -1.55311047       0.40451000
H       -2.08829604       0.72678682      -0.65546097
H       -1.22552986       0.91698155       1.37787684
H       -0.15167766       1.94590251      -1.37371001
H       -0.47695017       1.69346235       1.01113914
H        2.14539637       1.43654567      -0.42184039
H        2.51247345      -0.74343961       0.60274726
15
Frame=14 idx=008793 GeodesicLength=1.532927048899736 rxn_smarts="[O:1]=[C:2]1[C:3]([H:8])([H:9])[C:4]([H:10])([H:11])[C:5]([H:12])([H:13])[C:6]([H:14])=[C:7]1[H:15]>>[H:11][H:13].[O:1]=[C:2]1[C:3]([H:8])([H:9])[C:4]([H:10])=[C:5]([H:12])[C:6]([H:14])=[C:7]1[H:15]"
O        0.65930824      -2.55895517       0.80324770
C        0.45066946      -1.42936439       0.41692317
C       -0.89677636      -1.04589111      -0.16900637
C       -1.14961051       0.43487399      -0.20054501
C       -0.03582241       1.30226537      -0.48584881
C        1.31333925       0.73636087      -0.34446616
C        1.54211132      -0.46484907       0.20707130
H       -0.93841878      -1.44485723      -1.18971448
H       -1.67083622      -1.55887857       0.40507439
H       -2.08658552       0.71037045      -0.68348339
H       -1.23053679       0.95381870       1.38136138
H       -0.15514308       1.93411512      -1.36398891
H       -0.45499070       1.73957557       1.03820903
H        2.14079971       1.43740649      -0.41267113
H        2.51249240      -0.74599103       0.59783726
15
Frame=15 idx=008793 GeodesicLength=1.642098029397221 rxn_smarts="[O:1]=[C:2]1[C:3]([H:8])([H:9])[C:4]([H:10])([H:11])[C:5]([H:12])([H:13])[C:6]([H:14])=[C:7]1[H:15]>>[H:11][H:13].[O:1]=[C:2]1[C:3]([H:8])([H:9])[C:4]([H:10])=[C:5]([H:12])[C:6]([H:14])=[C:7]1[H:15]"
O        0.66545927      -2.56378316       0.79393295
C        0.45000318      -1.43401979       0.41309728
C       -0.89679393      -1.05437058      -0.17365124
C       -1.15600447       0.42463926      -0.20984552
C       -0.04583930       1.30348136      -0.46260574
C        1.31033967       0.73345082      -0.34323464
C        1.54345679      -0.46987776       0.19567664
H       -0.94027062      -1.46124361      -1.19112330
H       -1.66873645      -1.56523639       0.40559333
H       -2.08407851       0.69286941      -0.71384920
H       -1.23638919       0.99361588       1.38278925
H       -0.15922508       1.92478961      -1.35040615
H       -0.43013197       1.78666598       1.06648044
H        2.13552537       1.43799486      -0.40401811
H        2.51268524      -0.74897590       0.59116400
15
Frame=16 idx=008793 GeodesicLength=1.7511548564640076 rxn_smarts="[O:1]=[C:2]1[C:3]([H:8])([H:9])[C:4]([H:10])([H:11])[C:5]([H:12])([H:13])[C:6]([H:14])=[C:7]1[H:15]>>[H:11][H:13].[O:1]=[C:2]1[C:3]([H:8])([H:9])[C:4]([H:10])=[C:5]([H:12])[C:6]([H:14])=[C:7]1[H:15]"
O        0.67168664      -2.56843468       0.78589397
C        0.44928167      -1.43884309       0.40974897
C       -0.89681011      -1.06372051      -0.17844727
C       -1.16275538       0.41337796      -0.22029927
C       -0.05675127       1.30410519      -0.43770857
C        1.30660487       0.73050599      -0.34174524
C        1.54455264      -0.47505172       0.18379358
H       -0.94169734      -1.47909023      -1.19239650
H       -1.66668031      -1.57218024       0.40609083
H       -2.08057909       0.67429047      -0.74666133
H       -1.24320592       1.03654135       1.38210266
H       -0.16399711       1.91790068      -1.33303594
H       -0.40230146       1.83467069       1.09591226
H        2.12951036       1.43840637      -0.39569773
H        2.51314183      -0.75247823       0.58244958
