15
Frame=0 idx=009108 GeodesicLength=0.0 rxn_smarts="[C:1]1([H:8])([H:9])[C@:2]2([H:10])[O:3][C:4]([H:11])([H:12])[C:5]([H:13])([H:14])[O:6][C@:7]12[H:15]>>[C:1]([C:2](=[O:3])[H:10])([C:7](=[O:6])[H:15])([H:8])[H:9].[C:4](=[C:5]([H:13])[H:14])([H:11])[H:12]"
C       -1.77249692      -0.15331070       0.90898121
C       -1.25986858       0.47313317      -0.33476333
O       -0.36975075       1.37650694      -0.30463267
C        1.36159202       0.93162374      -0.77332633
C        1.80445164      -0.21830036      -0.10086823
O        0.50911747      -0.90095054       1.02975315
C       -0.66123566      -1.07709254       0.57334598
H       -1.63392949       0.42922726       1.81219362
H       -2.75867566      -0.59603380       0.80631971
H       -1.66046670       0.12849684      -1.29352591
H        1.73525682       1.88993644      -0.44457374
H        1.15207341       0.86381082      -1.83270414
H        1.91982358      -1.13450788      -0.66439441
H        2.50276525      -0.09355014       0.71318002
H       -0.86865638      -1.91898924      -0.09498488
15
Frame=1 idx=009108 GeodesicLength=0.05465373599032041 rxn_smarts="[C:1]1([H:8])([H:9])[C@:2]2([H:10])[O:3][C:4]([H:11])([H:12])[C:5]([H:13])([H:14])[O:6][C@:7]12[H:15]>>[C:1]([C:2](=[O:3])[H:10])([C:7](=[O:6])[H:15])([H:8])[H:9].[C:4](=[C:5]([H:13])[H:14])([H:11])[H:12]"
C       -1.77304513      -0.14559723       0.90890705
C       -1.26432850       0.45685775      -0.34946705
O       -0.39406867       1.38132864      -0.33910662
C        1.36051272       0.94141513      -0.75975268
C        1.79917870      -0.22505676      -0.11239736
O        0.50855980      -0.89886084       1.04661848
C       -0.66176396      -1.07566943       0.58644083
H       -1.62922952       0.45273641       1.80097492
H       -2.75955174      -0.59030836       0.81727981
H       -1.66184787       0.09245010      -1.30207747
H        1.73160734       1.88832588      -0.39410052
H        1.18730598       0.90437835      -1.82753784
H        1.90716751      -1.12929810      -0.69749026
H        2.51714787      -0.12264890       0.68822376
H       -0.86764454      -1.93005263      -0.06651504
15
Frame=2 idx=009108 GeodesicLength=0.1091470165631837 rxn_smarts="[C:1]1([H:8])([H:9])[C@:2]2([H:10])[O:3][C:4]([H:11])([H:12])[C:5]([H:13])([H:14])[O:6][C@:7]12[H:15]>>[C:1]([C:2](=[O:3])[H:10])([C:7](=[O:6])[H:15])([H:8])[H:9].[C:4](=[C:5]([H:13])[H:14])([H:11])[H:12]"
C       -1.77273748      -0.13733359       0.90864316
C       -1.26832459       0.44021011      -0.36434732
O       -0.41827221       1.38485075      -0.37573317
C        1.35902096       0.95070639      -0.74580859
C        1.79382505      -0.23180901      -0.12416045
O        0.50829596      -0.89739046       1.06323581
C       -0.66204337      -1.07415347       0.59912550
H       -1.62297482       0.47687493       1.78897019
H       -2.75981829      -0.58338515       0.82877579
H       -1.66358549       0.05599058      -1.31002030
H        1.72520780       1.88515910      -0.34233863
H        1.22342705       0.94554674      -1.82001965
H        1.89472083      -1.12320213      -0.73104050
H        2.53017974      -0.15132751       0.66282365
H       -0.86692115      -1.94073727      -0.03810549
15
Frame=3 idx=009108 GeodesicLength=0.16311614045133085 rxn_smarts="[C:1]1([H:8])([H:9])[C@:2]2([H:10])[O:3][C:4]([H:11])([H:12])[C:5]([H:13])([H:14])[O:6][C@:7]12[H:15]>>[C:1]([C:2](=[O:3])[H:10])([C:7](=[O:6])[H:15])([H:8])[H:9].[C:4](=[C:5]([H:13])[H:14])([H:11])[H:12]"
C       -1.77139495      -0.12847775       0.90808239
C       -1.27187948       0.42326692      -0.37936826
O       -0.44230510       1.38685611      -0.41443367
C        1.35694304       0.95935530      -0.73147263
C        1.78837485      -0.23854277      -0.13604749
O        0.50840544      -0.89666003       1.07950534
C       -0.66198136      -1.07249525       0.61125887
H       -1.61489002       0.50154605       1.77600062
H       -2.75927093      -0.57508263       0.84070194
H       -1.66584159       0.01935040      -1.31724097
H        1.71576932       1.88020176      -0.28956738
H        1.26002693       0.98709002      -1.80985938
H        1.88265591      -1.11611538      -0.76480858
H        2.54183836      -0.17945494       0.63717609
H       -0.86645042      -1.95083779      -0.00992690
15
Frame=4 idx=009108 GeodesicLength=0.2170960633499804 rxn_smarts="[C:1]1([H:8])([H:9])[C@:2]2([H:10])[O:3][C:4]([H:11])([H:12])[C:5]([H:13])([H:14])[O:6][C@:7]12[H:15]>>[C:1]([C:2](=[O:3])[H:10])([C:7](=[O:6])[H:15])([H:8])[H:9].[C:4](=[C:5]([H:13])[H:14])([H:11])[H:12]"
C       -1.76903286      -0.11901170       0.90730693
C       -1.27502183       0.40605781      -0.39454479
O       -0.46600768       1.38726864      -0.45530213
C        1.35432610       0.96740583      -0.71679695
C        1.78293070      -0.24520208      -0.14804866
O        0.50879586      -0.89687625       1.09540250
C       -0.66167960      -1.07081735       0.62276469
H       -1.60488766       0.52677883       1.76219079
H       -2.75798681      -0.56534012       0.85322246
H       -1.66881400      -0.01743880      -1.32375417
H        1.70328876       1.87348932      -0.23598870
H        1.29712247       1.02897801      -1.79698064
H        1.87121085      -1.10803087      -0.79879555
H        2.55219709      -0.20674816       0.61146343
H       -0.86644141      -1.96051309       0.01786077
15
Frame=5 idx=009108 GeodesicLength=0.27124613415909504 rxn_smarts="[C:1]1([H:8])([H:9])[C@:2]2([H:10])[O:3][C:4]([H:11])([H:12])[C:5]([H:13])([H:14])[O:6][C@:7]12[H:15]>>[C:1]([C:2](=[O:3])[H:10])([C:7](=[O:6])[H:15])([H:8])[H:9].[C:4](=[C:5]([H:13])[H:14])([H:11])[H:12]"
C       -1.76552381      -0.10880520       0.90623072
C       -1.27773816       0.38842934      -0.41000950
O       -0.48935825       1.38580249      -0.49856302
C        1.35111461       0.97493140      -0.70164251
C        1.77746615      -0.25178109      -0.16023487
O        0.50952533      -0.89812730       1.11088342
C       -0.66111784      -1.06913677       0.63368145
H       -1.59271924       0.55277904       1.74729094
H       -2.75586524      -0.55388306       0.86638278
H       -1.67255679      -0.05465007      -1.32956947
H        1.68745714       1.86489821      -0.18134580
H        1.33467275       1.07153218      -1.78101346
H        1.86026500      -1.09880627      -0.83317451
H        2.56140655      -0.23332273       0.58557474
H       -0.86702822      -1.96986019       0.04550911
15
Frame=6 idx=009108 GeodesicLength=0.32573077436607434 rxn_smarts="[C:1]1([H:8])([H:9])[C@:2]2([H:10])[O:3][C:4]([H:11])([H:12])[C:5]([H:13])([H:14])[O:6][C@:7]12[H:15]>>[C:1]([C:2](=[O:3])[H:10])([C:7](=[O:6])[H:15])([H:8])[H:9].[C:4](=[C:5]([H:13])[H:14])([H:11])[H:12]"
C       -1.76071045      -0.09778534       0.90478902
C       -1.28003595       0.37035661      -0.42582449
O       -0.51226682       1.38223480      -0.54429595
C        1.34721814       0.98192911      -0.68594231
C        1.77197123      -0.25823946      -0.17256969
O        0.51060373      -0.90059735       1.12589673
C       -0.66028317      -1.06749586       0.64395407
H       -1.57809863       0.57958537       1.73114222
H       -2.75275056      -0.54048632       0.88020807
H       -1.67720005      -0.09227560      -1.33466451
H        1.66802287       1.85431714      -0.12574605
H        1.37246229       1.11475526      -1.76164986
H        1.84988579      -1.08829541      -0.86790789
H        2.56951538      -0.25910743       0.55958416
H       -0.86833379      -1.97889554       0.07302648
15
Frame=7 idx=009108 GeodesicLength=0.38059083676531785 rxn_smarts="[C:1]1([H:8])([H:9])[C@:2]2([H:10])[O:3][C:4]([H:11])([H:12])[C:5]([H:13])([H:14])[O:6][C@:7]12[H:15]>>[C:1]([C:2](=[O:3])[H:10])([C:7](=[O:6])[H:15])([H:8])[H:9].[C:4](=[C:5]([H:13])[H:14])([H:11])[H:12]"
C       -1.75457923      -0.08601337       0.90300943
C       -1.28201171       0.35209111      -0.44181116
O       -0.53450919       1.37650763      -0.59212884
C        1.34253271       0.98822892      -0.66986159
C        1.76662177      -0.26448912      -0.18485956
O        0.51194913      -0.90452478       1.14031874
C       -0.65921065      -1.06594346       0.65331178
H       -1.56095206       0.60688570       1.71388820
H       -2.74862832      -0.52512074       0.89465587
H       -1.68302836      -0.12977955      -1.33888324
H        1.64517413       1.84165592      -0.07006809
H        1.40983775       1.15805483      -1.73889882
H        1.84071352      -1.07653079      -0.90256152
H        2.57652899      -0.28354490       0.53401684
H       -0.87043847      -1.98747741       0.09987196
15
Frame=8 idx=009108 GeodesicLength=0.4361068397630105 rxn_smarts="[C:1]1([H:8])([H:9])[C@:2]2([H:10])[O:3][C:4]([H:11])([H:12])[C:5]([H:13])([H:14])[O:6][C@:7]12[H:15]>>[C:1]([C:2](=[O:3])[H:10])([C:7](=[O:6])[H:15])([H:8])[H:9].[C:4](=[C:5]([H:13])[H:14])([H:11])[H:12]"
C       -1.74699560      -0.07342705       0.90082181
C       -1.28371895       0.33359907      -0.45804792
O       -0.55599029       1.36843327      -0.64207054
C        1.33697353       0.99384816      -0.65332045
C        1.76144195      -0.27049310      -0.19706416
O        0.51355600      -0.91007286       1.15411289
C       -0.65790970      -1.06453514       0.66171889
H       -1.54101062       0.63471773       1.69537574
H       -2.74336077      -0.50758930       0.90973118
H       -1.69019947      -0.16717822      -1.34224200
H        1.61881345       1.82690166      -0.01445450
H        1.44649753       1.20145903      -1.71250630
H        1.83283320      -1.06339687      -0.93710854
H        2.58259406      -0.30658724       0.50894952
H       -0.87352431      -1.99567914       0.12610439
15
Frame=9 idx=009108 GeodesicLength=0.49235192171539316 rxn_smarts="[C:1]1([H:8])([H:9])[C@:2]2([H:10])[O:3][C:4]([H:11])([H:12])[C:5]([H:13])([H:14])[O:6][C@:7]12[H:15]>>[C:1]([C:2](=[O:3])[H:10])([C:7](=[O:6])[H:15])([H:8])[H:9].[C:4](=[C:5]([H:13])[H:14])([H:11])[H:12]"
C       -1.73799181      -0.06011302       0.89825017
C       -1.28526952       0.31514139      -0.47436521
O       -0.57653962       1.35805770      -0.69363129
C        1.33045478       0.99865950      -0.63649247
C        1.75656583      -0.27618116      -0.20900702
O        0.51532846      -0.91736607       1.16722021
C       -0.65640392      -1.06330550       0.66899297
H       -1.51834539       0.66275926       1.67577018
H       -2.73692796      -0.48794552       0.92533127
H       -1.69887147      -0.20396291      -1.34464236
H        1.58931449       1.81005676       0.04029528
H        1.48172573       1.24435014      -1.68266976
H        1.82676827      -1.04895356      -0.97115367
H        2.58777696      -0.32781258       0.48483034
H       -0.87758483      -2.00338444       0.15127135
15
Frame=10 idx=009108 GeodesicLength=0.5496388809886469 rxn_smarts="[C:1]1([H:8])([H:9])[C@:2]2([H:10])[O:3][C:4]([H:11])([H:12])[C:5]([H:13])([H:14])[O:6][C@:7]12[H:15]>>[C:1]([C:2](=[O:3])[H:10])([C:7](=[O:6])[H:15])([H:8])[H:9].[C:4](=[C:5]([H:13])[H:14])([H:11])[H:12]"
C       -1.72746576      -0.04605354       0.89520647
C       -1.28673596       0.29671697      -0.49081343
O       -0.59614304       1.34527899      -0.74668009
C        1.32289066       1.00268011      -0.61932944
C        1.75198108      -0.28153986      -0.22065074
O        0.51723147      -0.92650245       1.17963621
C       -0.65469181      -1.06229116       0.67515130
H       -1.49281776       0.69095477       1.65490450
H       -2.72916074      -0.46605098       0.94140168
H       -1.70906176      -0.24009277      -1.34609232
H        1.55677305       1.79117111       0.09401429
H        1.51514715       1.28671908      -1.64931174
H        1.82257841      -1.03309613      -1.00464878
H        2.59219106      -0.34727134       0.46171144
H       -0.88271604      -2.01062278       0.17550065
15
Frame=11 idx=009108 GeodesicLength=0.6083542931227889 rxn_smarts="[C:1]1([H:8])([H:9])[C@:2]2([H:10])[O:3][C:4]([H:11])([H:12])[C:5]([H:13])([H:14])[O:6][C@:7]12[H:15]>>[C:1]([C:2](=[O:3])[H:10])([C:7](=[O:6])[H:15])([H:8])[H:9].[C:4](=[C:5]([H:13])[H:14])([H:11])[H:12]"
C       -1.71534451      -0.03117847       0.89163607
C       -1.28815406       0.27821741      -0.50747506
O       -0.61460747       1.32984630      -0.80129369
C        1.31422337       1.00597775      -0.60173847
C        1.74777957      -0.28651074      -0.23201697
O        0.51924652      -0.93756517       1.19130143
C       -0.65281159      -1.06154438       0.68018267
H       -1.46423824       0.71936570       1.63266164
H       -2.72001123      -0.44171659       0.95794872
H       -1.72096807      -0.27569493      -1.34657809
H        1.52130270       1.77020067       0.14672025
H        1.54639894       1.32874700      -1.61226379
H        1.82029882      -1.01573867      -1.03764949
H        2.59604938      -0.36490262       0.43963687
H       -0.88916415      -2.01750326       0.19892792
15
Frame=12 idx=009108 GeodesicLength=0.6685775066395947 rxn_smarts="[C:1]1([H:8])([H:9])[C@:2]2([H:10])[O:3][C:4]([H:11])([H:12])[C:5]([H:13])([H:14])[O:6][C@:7]12[H:15]>>[C:1]([C:2](=[O:3])[H:10])([C:7](=[O:6])[H:15])([H:8])[H:9].[C:4](=[C:5]([H:13])[H:14])([H:11])[H:12]"
C       -1.70172400      -0.01569879       0.88752784
C       -1.28966040       0.25997483      -0.52413112
O       -0.63196621       1.31210532      -0.85666708
C        1.30442544       1.00841835      -0.58394441
C        1.74394307      -0.29108215      -0.24294945
O        0.52120604      -0.95046688       1.20226252
C       -0.65077927      -1.06105259       0.68405640
H       -1.43295771       0.74752667       1.60918518
H       -2.70938063      -0.41522695       0.97473739
H       -1.73437663      -0.31019299      -1.34605251
H        1.48356403       1.74736462       0.19762075
H        1.57485730       1.36965852      -1.57205328
H        1.82027653      -0.99691720      -1.06975925
H        2.59932196      -0.38054551       0.41887503
H       -0.89674950      -2.02386524       0.22129200
15
Frame=13 idx=009108 GeodesicLength=0.730229003493378 rxn_smarts="[C:1]1([H:8])([H:9])[C@:2]2([H:10])[O:3][C:4]([H:11])([H:12])[C:5]([H:13])([H:14])[O:6][C@:7]12[H:15]>>[C:1]([C:2](=[O:3])[H:10])([C:7](=[O:6])[H:15])([H:8])[H:9].[C:4](=[C:5]([H:13])[H:14])([H:11])[H:12]"
C       -1.68669801       0.00025776       0.88286558
C       -1.29123083       0.24209657      -0.54067322
O       -0.64797199       1.29210797      -0.91237959
C        1.29344011       1.00997966      -0.56606091
C        1.74045991      -0.29523556      -0.25343368
O        0.52300186      -0.96496438       1.21262736
C       -0.64859090      -1.06075159       0.68684953
H       -1.39927055       0.77513520       1.58460027
H       -2.69726456      -0.38683256       0.99148933
H       -1.74913704      -0.34332787      -1.34450218
H        1.44426281       1.72266993       0.24634055
H        1.59991581       1.40930968      -1.52903588
H        1.82241720      -0.97669421      -1.10082237
H        2.60201175      -0.39417263       0.39956059
H       -0.90534558      -2.02957797       0.24257462
15
Frame=14 idx=009108 GeodesicLength=0.7936019988293004 rxn_smarts="[C:1]1([H:8])([H:9])[C@:2]2([H:10])[O:3][C:4]([H:11])([H:12])[C:5]([H:13])([H:14])[O:6][C@:7]12[H:15]>>[C:1]([C:2](=[O:3])[H:10])([C:7](=[O:6])[H:15])([H:8])[H:9].[C:4](=[C:5]([H:13])[H:14])([H:11])[H:12]"
C       -1.67058661       0.01652517       0.87770134
C       -1.29310560       0.22480778      -0.55694341
O       -0.66285396       1.27030717      -0.96772993
C        1.28140347       1.01062254      -0.54827266
C        1.73743957      -0.29903849      -0.26344389
O        0.52460613      -0.98077631       1.22252576
C       -0.64627204      -1.06061469       0.68863288
H       -1.36378875       0.80197327       1.55919447
H       -2.68389524      -0.35689568       1.00800759
H       -1.76511581      -0.37484427      -1.34204015
H        1.40424884       1.69649277       0.29253759
H        1.62130760       1.44718586      -1.48386154
H        1.82698278      -0.95525059      -1.13071941
H        2.60437326      -0.40584945       0.38178047
H       -0.91474366      -2.03464508       0.26263089
15
Frame=15 idx=009108 GeodesicLength=0.8584915528287663 rxn_smarts="[C:1]1([H:8])([H:9])[C@:2]2([H:10])[O:3][C:4]([H:11])([H:12])[C:5]([H:13])([H:14])[O:6][C@:7]12[H:15]>>[C:1]([C:2](=[O:3])[H:10])([C:7](=[O:6])[H:15])([H:8])[H:9].[C:4](=[C:5]([H:13])[H:14])([H:11])[H:12]"
C       -1.65360499       0.03289349       0.87206599
C       -1.29528217       0.20827404      -0.57278360
O       -0.67660800       1.24704986      -1.02216523
C        1.26840472       1.01033702      -0.53076527
C        1.73480654      -0.30251955      -0.27298097
O        0.52587930      -0.99753621       1.23210783
C       -0.64383253      -1.06056213       0.68953275
H       -1.32705670       0.82772277       1.53319202
H       -2.66935435      -0.32587374       1.02403768
H       -1.78198481      -0.40447928      -1.33869869
H        1.36432709       1.66904896       0.33594328
H        1.63879454       1.48297349      -1.43719500
H        1.83385459      -0.93267639      -1.15929702
H        2.60634415      -0.41569528       0.36556563
H       -0.92468739      -2.03895705       0.28144062
15
Frame=16 idx=009108 GeodesicLength=0.9246760436568947 rxn_smarts="[C:1]1([H:8])([H:9])[C@:2]2([H:10])[O:3][C:4]([H:11])([H:12])[C:5]([H:13])([H:14])[O:6][C@:7]12[H:15]>>[C:1]([C:2](=[O:3])[H:10])([C:7](=[O:6])[H:15])([H:8])[H:9].[C:4](=[C:5]([H:13])[H:14])([H:11])[H:12]"
C       -1.63608614       0.04914439       0.86603822
C       -1.29780539       0.19267146      -0.58802702
O       -0.68937165       1.22281724      -1.07510282
C        1.25461504       1.00912272      -0.51374296
C        1.73251671      -0.30574810      -0.28208101
O        0.52672439      -1.01480452       1.24157022
C       -0.64128701      -1.06050457       0.68970486
H       -1.28978002       0.85213362       1.50691399
H       -2.65387967      -0.29430444       1.03935171
H       -1.79939113      -0.43203714      -1.33457600
H        1.32536152       1.64064117       0.37637113
H        1.65236169       1.51633808      -1.38979735
H        1.84293989      -0.90912117      -1.18646393
H        2.60793097      -0.42390121       0.35088780
H       -0.93484920      -2.04244754       0.29895317
