10
Frame=0 idx=002223 GeodesicLength=0.0 rxn_smarts="[C:1](#[C:2][C@@:3]1([H:7])[C:4]([H:8])([H:9])[N:5]1[H:10])[H:6]>>[C:1](#[C:2][C:4](/[C:3](=[N:5]/[H:10])[H:7])([H:8])[H:9])[H:6]"
C        2.02847705      -0.03903189       0.23314747
C        0.83200545      -0.18221719       0.21618439
C       -0.64454452      -0.45498930       0.13871194
C       -0.80435706       0.98265061       0.23537058
N       -1.23048401      -0.90678907      -1.03516719
H        3.08645858       0.07997831       0.24867640
H       -0.87944819      -1.00956854       1.06041948
H       -0.64361656       1.53168079      -0.68207334
H       -1.17005246       1.50596028       1.11610219
H       -0.57443828      -1.50767400      -1.53137193
10
Frame=1 idx=002223 GeodesicLength=0.07710031889759315 rxn_smarts="[C:1](#[C:2][C@@:3]1([H:7])[C:4]([H:8])([H:9])[N:5]1[H:10])[H:6]>>[C:1](#[C:2][C:4](/[C:3](=[N:5]/[H:10])[H:7])([H:8])[H:9])[H:6]"
C        2.04399949      -0.03043501       0.23580181
C        0.84714034      -0.16713821       0.22046111
C       -0.63932219      -0.47214748       0.14851702
C       -0.79873084       0.96820392       0.22104201
N       -1.25321928      -0.88758381      -1.02094070
H        3.10208364       0.08479437       0.26595026
H       -0.87054802      -1.02256853       1.07201292
H       -0.63157228       1.52079419      -0.69320223
H       -1.18586417       1.49077865       1.09293504
H       -0.61396668      -1.48469809      -1.54257724
10
Frame=2 idx=002223 GeodesicLength=0.1541793593131714 rxn_smarts="[C:1](#[C:2][C@@:3]1([H:7])[C:4]([H:8])([H:9])[N:5]1[H:10])[H:6]>>[C:1](#[C:2][C:4](/[C:3](=[N:5]/[H:10])[H:7])([H:8])[H:9])[H:6]"
C        2.05944239      -0.02157067       0.23920997
C        0.86219343      -0.15142947       0.22446185
C       -0.63392858      -0.48896182       0.15683238
C       -0.79279909       0.95378358       0.20688137
N       -1.27559528      -0.86875246      -1.00645352
H        3.11746525       0.08952293       0.28347396
H       -0.86179980      -1.03535552       1.08202821
H       -0.62035248       1.51030836      -0.70407920
H       -1.20039536       1.47503007       1.07012143
H       -0.65423048      -1.46257500      -1.55247644
10
Frame=3 idx=002223 GeodesicLength=0.23125956293816488 rxn_smarts="[C:1](#[C:2][C@@:3]1([H:7])[C:4]([H:8])([H:9])[N:5]1[H:10])[H:6]>>[C:1](#[C:2][C:4](/[C:3](=[N:5]/[H:10])[H:7])([H:8])[H:9])[H:6]"
C        2.07485835      -0.01228911       0.24294061
C        0.87722961      -0.13508104       0.22778343
C       -0.62833399      -0.50548120       0.16362167
C       -0.78654205       0.93942324       0.19286189
N       -1.29780060      -0.85024601      -0.99167979
H        3.13262983       0.09417366       0.30215454
H       -0.85289303      -1.04804976       1.09046855
H       -0.61010463       1.50020335      -0.71482948
H       -1.21343047       1.45881203       1.04778809
H       -0.69561303      -1.44146517      -1.56110951
10
Frame=4 idx=002223 GeodesicLength=0.3083010608673145 rxn_smarts="[C:1](#[C:2][C@@:3]1([H:7])[C:4]([H:8])([H:9])[N:5]1[H:10])[H:6]>>[C:1](#[C:2][C:4](/[C:3](=[N:5]/[H:10])[H:7])([H:8])[H:9])[H:6]"
C        2.09012138      -0.00271008       0.24768492
C        0.89212931      -0.11818721       0.23099428
C       -0.62267159      -0.52176277       0.16901611
C       -0.78001115       0.92513851       0.17897537
N       -1.31960713      -0.83208472      -0.97672719
H        3.14751679       0.09881156       0.32078981
H       -0.84419523      -1.06069850       1.09741779
H       -0.60054408       1.49038842      -0.72547834
H       -1.22508336       1.44227458       1.02590452
H       -0.73765492      -1.42116977      -1.56857725
10
Frame=5 idx=002223 GeodesicLength=0.3852901607479269 rxn_smarts="[C:1](#[C:2][C@@:3]1([H:7])[C:4]([H:8])([H:9])[N:5]1[H:10])[H:6]>>[C:1](#[C:2][C:4](/[C:3](=[N:5]/[H:10])[H:7])([H:8])[H:9])[H:6]"
C        2.10514401       0.00723309       0.25370144
C        0.90682044      -0.10072563       0.23442720
C       -0.61701377      -0.53783134       0.17310387
C       -0.77327747       0.91094149       0.16521691
N       -1.34086584      -0.81425240      -0.96167742
H        3.16215935       0.10326811       0.33878881
H       -0.83584801      -1.07334432       1.10292795
H       -0.59155679       1.48080641      -0.73603598
H       -1.23548319       1.42551446       1.00445381
H       -0.78007872      -1.40160987      -1.57490660
10
Frame=6 idx=002223 GeodesicLength=0.46219112254104827 rxn_smarts="[C:1](#[C:2][C@@:3]1([H:7])[C:4]([H:8])([H:9])[N:5]1[H:10])[H:6]>>[C:1](#[C:2][C:4](/[C:3](=[N:5]/[H:10])[H:7])([H:8])[H:9])[H:6]"
C        2.11985222       0.01749897       0.26101464
C        0.92123555      -0.08271817       0.23833692
C       -0.61143508      -0.55372690       0.17596812
C       -0.76637364       0.89684346       0.15158381
N       -1.36149428      -0.79673903      -0.94660314
H        3.17657616       0.10757110       0.35585439
H       -0.82796355      -1.08604296       1.10706864
H       -0.58301243       1.47141120      -0.74651741
H       -1.24467446       1.40864623       0.98344151
H       -0.82271050      -1.38274390      -1.58014749
10
Frame=7 idx=002223 GeodesicLength=0.5390219780010522 rxn_smarts="[C:1](#[C:2][C@@:3]1([H:7])[C:4]([H:8])([H:9])[N:5]1[H:10])[H:6]>>[C:1](#[C:2][C:4](/[C:3](=[N:5]/[H:10])[H:7])([H:8])[H:9])[H:6]"
C        2.13420066       0.02810644       0.26953311
C        0.93533513      -0.06412911       0.24286273
C       -0.60597395      -0.56946330       0.17766501
C       -0.75932963       0.88283300       0.13806111
N       -1.38144754      -0.77951909      -0.93154119
H        3.19074273       0.11166466       0.37191632
H       -0.82055023      -1.09882145       1.10987003
H       -0.57484746       1.46213821      -0.75693250
H       -1.25267536       1.39172429       0.96286430
H       -0.86545436      -1.36453365      -1.58429893
10
Frame=8 idx=002223 GeodesicLength=0.6157433425791079 rxn_smarts="[C:1](#[C:2][C@@:3]1([H:7])[C:4]([H:8])([H:9])[N:5]1[H:10])[H:6]>>[C:1](#[C:2][C:4](/[C:3](=[N:5]/[H:10])[H:7])([H:8])[H:9])[H:6]"
C        2.14812496       0.03908707       0.27932336
C        0.94906493      -0.04494190       0.24818134
C       -0.60066810      -0.58508314       0.17828506
C       -0.75218401       0.86891787       0.12463108
N       -1.40069104      -0.76263153      -0.91651263
H        3.20469957       0.11545844       0.38674047
H       -0.81362481      -1.11173220       1.11144605
H       -0.56699686       1.45294339      -0.76733474
H       -1.25956271       1.37485191       0.94271059
H       -0.90816193      -1.34686993      -1.58747058
10
Frame=9 idx=002223 GeodesicLength=0.6923687907175204 rxn_smarts="[C:1](#[C:2][C@@:3]1([H:7])[C:4]([H:8])([H:9])[N:5]1[H:10])[H:6]>>[C:1](#[C:2][C:4](/[C:3](=[N:5]/[H:10])[H:7])([H:8])[H:9])[H:6]"
C        2.16158108       0.05041595       0.29044626
C        0.96238807      -0.02515732       0.25439725
C       -0.59554425      -0.60061347       0.17787795
C       -0.74493064       0.85508424       0.11127706
N       -1.41921810      -0.74605230      -0.90154298
H        3.21843898       0.11899341       0.40019129
H       -0.80718086      -1.12481348       1.11183503
H       -0.55936294       1.44377111      -0.77774123
H       -1.26536458       1.35808217       0.92295253
H       -0.95080675      -1.32971031      -1.58969315
10
Frame=10 idx=002223 GeodesicLength=0.7688908001839012 rxn_smarts="[C:1](#[C:2][C@@:3]1([H:7])[C:4]([H:8])([H:9])[N:5]1[H:10])[H:6]>>[C:1](#[C:2][C:4](/[C:3](=[N:5]/[H:10])[H:7])([H:8])[H:9])[H:6]"
C        2.17453466       0.06216188       0.30291879
C        0.97527198      -0.00471996       0.26159692
C       -0.59060239      -0.61607391       0.17650167
C       -0.73759951       0.84133505       0.09798458
N       -1.43700569      -0.72978076      -0.88665189
H        3.23196743       0.12212323       0.41217075
H       -0.80115820      -1.13810367       1.11110815
H       -0.55191963       1.43459771      -0.78818720
H       -1.27016896       1.34147437       0.90357413
H       -0.99331968      -1.31301395      -1.59101590
10
Frame=11 idx=002223 GeodesicLength=0.8453293294699543 rxn_smarts="[C:1](#[C:2][C@@:3]1([H:7])[C:4]([H:8])([H:9])[N:5]1[H:10])[H:6]>>[C:1](#[C:2][C:4](/[C:3](=[N:5]/[H:10])[H:7])([H:8])[H:9])[H:6]"
C        2.18681631       0.07439353       0.31743753
C        0.98758738       0.01644827       0.27027208
C       -0.58589805      -0.63146449       0.17427845
C       -0.73020664       0.82764551       0.08476540
N       -1.45386015      -0.71384967      -0.87192687
H        3.24523536       0.12465974       0.42152078
H       -0.79576269      -1.15158751       1.10932527
H       -0.54443322       1.42534121      -0.79860931
H       -1.27419669       1.32505013       0.88442758
H       -1.03528160      -1.29663671      -1.59149092
10
Frame=12 idx=002223 GeodesicLength=0.9216837153264194 rxn_smarts="[C:1](#[C:2][C@@:3]1([H:7])[C:4]([H:8])([H:9])[N:5]1[H:10])[H:6]>>[C:1](#[C:2][C:4](/[C:3](=[N:5]/[H:10])[H:7])([H:8])[H:9])[H:6]"
C        2.19854668       0.08700024       0.33335521
C        0.99944190       0.03822678       0.27979698
C       -0.58135963      -0.64685336       0.17112292
C       -0.72264921       0.81399819       0.07154908
N       -1.47009572      -0.69819815      -0.85723559
H        3.25812331       0.12696764       0.42958642
H       -0.79057486      -1.16536487       1.10649255
H       -0.53702237       1.41597502      -0.80917193
H       -1.27709941       1.30887051       0.86564368
H       -1.07731068      -1.28062198      -1.59113932
10
Frame=13 idx=002223 GeodesicLength=0.997979970041884 rxn_smarts="[C:1](#[C:2][C@@:3]1([H:7])[C:4]([H:8])([H:9])[N:5]1[H:10])[H:6]>>[C:1](#[C:2][C:4](/[C:3](=[N:5]/[H:10])[H:7])([H:8])[H:9])[H:6]"
C        2.20965074       0.09996507       0.35118825
C        1.01080545       0.06056903       0.29021342
C       -0.57699744      -0.66227858       0.16706097
C       -0.71486846       0.80035572       0.05830343
N       -1.48571519      -0.68281548      -0.84256466
H        3.27053544       0.12914955       0.43592472
H       -0.78558503      -1.17947169       1.10262794
H       -0.52954754       1.40641720      -0.81991121
H       -1.27886538       1.29296437       0.84714882
H       -1.11941258      -1.26485518      -1.58999168
10
Frame=14 idx=002223 GeodesicLength=1.074245456511464 rxn_smarts="[C:1](#[C:2][C@@:3]1([H:7])[C:4]([H:8])([H:9])[N:5]1[H:10])[H:6]>>[C:1](#[C:2][C:4](/[C:3](=[N:5]/[H:10])[H:7])([H:8])[H:9])[H:6]"
C        2.22024654       0.11329357       0.37018462
C        1.02182241       0.08342285       0.30069194
C       -0.57270470      -0.67779278       0.16194018
C       -0.70676226       0.78667675       0.04492552
N       -1.50104264      -0.66766710      -0.82767580
H        3.28230870       0.13139949       0.44217217
H       -0.78025035      -1.19398945       1.09765680
H       -0.52222798       1.39661448      -0.83101072
H       -1.27909667       1.27733108       0.82907683
H       -1.16229304      -1.24928890      -1.58796154
10
Frame=15 idx=002223 GeodesicLength=1.1505083826315985 rxn_smarts="[C:1](#[C:2][C@@:3]1([H:7])[C:4]([H:8])([H:9])[N:5]1[H:10])[H:6]>>[C:1](#[C:2][C:4](/[C:3](=[N:5]/[H:10])[H:7])([H:8])[H:9])[H:6]"
C        2.23059099       0.12724009       0.38846913
C        1.03275698       0.10686810       0.30971488
C       -0.56827230      -0.69343794       0.15548342
C       -0.69829415       0.77291250       0.03124135
N       -1.51659764      -0.65279042      -0.81207842
H        3.29334143       0.13354018       0.45165141
H       -0.77355643      -1.20900696       1.09144497
H       -0.51570586       1.38652508      -0.84277930
H       -1.27723092       1.26191151       0.81169721
H       -1.20703209      -1.23376214      -1.58484465
10
Frame=16 idx=002223 GeodesicLength=1.2267386681443437 rxn_smarts="[C:1](#[C:2][C@@:3]1([H:7])[C:4]([H:8])([H:9])[N:5]1[H:10])[H:6]>>[C:1](#[C:2][C:4](/[C:3](=[N:5]/[H:10])[H:7])([H:8])[H:9])[H:6]"
C        2.24031640       0.14155794       0.40821831
C        1.04330412       0.13083373       0.31882057
C       -0.56394530      -0.70920903       0.14798849
C       -0.68951017       0.75908005       0.01737849
N       -1.53171552      -0.63809927      -0.79624480
H        3.30365558       0.13566067       0.46067491
H       -0.76649414      -1.22449283       1.08413214
H       -0.50923959       1.37614078      -0.85494551
H       -1.27395677       1.24681178       0.79466588
H       -1.25241462      -1.21828383      -1.58068848
