12
Frame=0 idx=005669 GeodesicLength=0.0 rxn_smarts="[N:1]([c:2]1[c:3]([H:9])[n:4]([H:10])[c:5]([H:11])[c:6]1[H:12])([H:7])[H:8]>>[N:1]([C@:2]1([H:9])[C:3][N:4]([H:10])[C:5]([H:11])=[C:6]1[H:12])([H:7])[H:8]"
N       -1.95811056       0.31368628      -0.44354345
C       -0.60809872       0.18571137      -0.07081214
C        0.35848792       1.26563206      -0.20951638
N        1.53808709       0.58086549      -0.08785141
C        1.40118010      -0.78538830       0.03714901
C        0.09026808      -1.09165778       0.04027391
H       -2.19915927       1.27805309      -0.61927394
H       -2.60670284      -0.10922626       0.20223054
H       -0.34615779       0.81092765       0.95683191
H        2.42101298       1.05537136      -0.03848755
H        2.26200350      -1.43144095       0.13036562
H       -0.35281045      -2.07253401       0.10263389
12
Frame=1 idx=005669 GeodesicLength=0.04900874161104256 rxn_smarts="[N:1]([c:2]1[c:3]([H:9])[n:4]([H:10])[c:5]([H:11])[c:6]1[H:12])([H:7])[H:8]>>[N:1]([C@:2]1([H:9])[C:3][N:4]([H:10])[C:5]([H:11])=[C:6]1[H:12])([H:7])[H:8]"
N       -1.95616574       0.31156611      -0.44866302
C       -0.60891519       0.18671356      -0.06115168
C        0.36039193       1.26086286      -0.21048590
N        1.53996658       0.57846208      -0.09245955
C        1.40126384      -0.78810952       0.03616886
C        0.08946466      -1.09054038       0.05216099
H       -2.20187879       1.27695807      -0.61182758
H       -2.60797284      -0.12203709       0.18680108
H       -0.34685135       0.84125183       0.96478577
H        2.42233781       1.05305991      -0.03363978
H        2.26193573      -1.43590172       0.11690491
H       -0.35357663      -2.07228570       0.10140589
12
Frame=2 idx=005669 GeodesicLength=0.09801445751689758 rxn_smarts="[N:1]([c:2]1[c:3]([H:9])[n:4]([H:10])[c:5]([H:11])[c:6]1[H:12])([H:7])[H:8]>>[N:1]([C@:2]1([H:9])[C:3][N:4]([H:10])[C:5]([H:11])=[C:6]1[H:12])([H:7])[H:8]"
N       -1.95408100       0.30943649      -0.45362760
C       -0.60972877       0.18771488      -0.05133907
C        0.36223114       1.25608808      -0.21099428
N        1.54178429       0.57603708      -0.09679729
C        1.40129466      -0.79092653       0.03463454
C        0.08872413      -1.08948544       0.06347801
H       -2.20471339       1.27559819      -0.60425071
H       -2.60887781      -0.13487196       0.17138208
H       -0.34752036       0.87204096       0.97230155
H        2.42359734       1.05061968      -0.02899684
H        2.26161911      -1.44035273       0.10405667
H       -0.35432935      -2.07189871       0.10015295
12
Frame=3 idx=005669 GeodesicLength=0.14702238629220596 rxn_smarts="[N:1]([c:2]1[c:3]([H:9])[n:4]([H:10])[c:5]([H:11])[c:6]1[H:12])([H:7])[H:8]>>[N:1]([C@:2]1([H:9])[C:3][N:4]([H:10])[C:5]([H:11])=[C:6]1[H:12])([H:7])[H:8]"
N       -1.95180503       0.30723053      -0.45856611
C       -0.61053723       0.18871292      -0.04132503
C        0.36402080       1.25129866      -0.21102440
N        1.54354622       0.57360882      -0.10060515
C        1.40126894      -0.79380790       0.03297695
C        0.08804439      -1.08847926       0.07450371
H       -2.20759315       1.27388060      -0.59687150
H       -2.60943698      -0.14769116       0.15584316
H       -0.34830322       0.90346151       0.97933173
H        2.42479090       1.04808090      -0.02413965
H        2.26109153      -1.44493484       0.09034802
H       -0.35508718      -2.07136079       0.09952826
12
Frame=4 idx=005669 GeodesicLength=0.19602858044089153 rxn_smarts="[N:1]([c:2]1[c:3]([H:9])[n:4]([H:10])[c:5]([H:11])[c:6]1[H:12])([H:7])[H:8]>>[N:1]([C@:2]1([H:9])[C:3][N:4]([H:10])[C:5]([H:11])=[C:6]1[H:12])([H:7])[H:8]"
N       -1.94940097       0.30503008      -0.46333292
C       -0.61134735       0.18969674      -0.03118143
C        0.36574311       1.24651400      -0.21058804
N        1.54524616       0.57116954      -0.10418149
C        1.40118467      -0.79678796       0.03067292
C        0.08742479      -1.08756479       0.08479696
H       -2.21058645       1.27191673      -0.58935268
H       -2.60962738      -0.16050631       0.14035294
H       -0.34906913       0.93533590       0.98586132
H        2.42592507       1.04542444      -0.01934083
H        2.26036600      -1.44948568       0.07725656
H       -0.35585852      -2.07074269       0.09903669
12
Frame=5 idx=005669 GeodesicLength=0.2450390460512509 rxn_smarts="[N:1]([c:2]1[c:3]([H:9])[n:4]([H:10])[c:5]([H:11])[c:6]1[H:12])([H:7])[H:8]>>[N:1]([C@:2]1([H:9])[C:3][N:4]([H:10])[C:5]([H:11])=[C:6]1[H:12])([H:7])[H:8]"
N       -1.94685961       0.30281339      -0.46794353
C       -0.61215886       0.19066000      -0.02088600
C        0.36740170       1.24172559      -0.20969981
N        1.54688337       0.56872193      -0.10746779
C        1.40103416      -0.79985522       0.02785569
C        0.08685978      -1.08674355       0.09445086
H       -2.21367172       1.26967539      -0.58179063
H       -2.60945155      -0.17329114       0.12491501
H       -0.34985173       0.96774394       0.99184467
H        2.42699648       1.04265430      -0.01445892
H        2.25946996      -1.45403500       0.06439443
H       -0.35665197      -2.07006965       0.09878603
12
Frame=6 idx=005669 GeodesicLength=0.2940218125193333 rxn_smarts="[N:1]([c:2]1[c:3]([H:9])[n:4]([H:10])[c:5]([H:11])[c:6]1[H:12])([H:7])[H:8]>>[N:1]([C@:2]1([H:9])[C:3][N:4]([H:10])[C:5]([H:11])=[C:6]1[H:12])([H:7])[H:8]"
N       -1.94433020       0.30075539      -0.47209688
C       -0.61298754       0.19156692      -0.01057417
C        0.36894705       1.23696420      -0.20837795
N        1.54842664       0.56624592      -0.11105390
C        1.40079793      -0.80307240       0.02352754
C        0.08634082      -1.08610676       0.10263406
H       -2.21698193       1.26737428      -0.57350585
H       -2.60890719      -0.18601861       0.10988093
H       -0.35039469       1.00029617       0.99732822
H        2.42801066       1.03972380      -0.01023152
H        2.25855473      -1.45827333       0.05490604
H       -0.35747629      -2.06945557       0.09756348
12
Frame=7 idx=005669 GeodesicLength=0.3429951619958182 rxn_smarts="[N:1]([c:2]1[c:3]([H:9])[n:4]([H:10])[c:5]([H:11])[c:6]1[H:12])([H:7])[H:8]>>[N:1]([C@:2]1([H:9])[C:3][N:4]([H:10])[C:5]([H:11])=[C:6]1[H:12])([H:7])[H:8]"
N       -1.94167158       0.29865552      -0.47607685
C       -0.61381829       0.19242959      -0.00007832
C        0.37042923       1.23218119      -0.20662192
N        1.54990411       0.56376397      -0.11430099
C        1.40048305      -0.80636314       0.01879230
C        0.08586599      -1.08557597       0.11026875
H       -2.22035042       1.26475655      -0.56529349
H       -2.60802674      -0.19864106       0.09497101
H       -0.35100030       1.03347783       1.00218245
H        2.42896130       1.03667892      -0.00577139
H        2.25755844      -1.46253093       0.04533502
H       -0.35833479      -2.06883247       0.09659343
12
Frame=8 idx=005669 GeodesicLength=0.3919739194289622 rxn_smarts="[N:1]([c:2]1[c:3]([H:9])[n:4]([H:10])[c:5]([H:11])[c:6]1[H:12])([H:7])[H:8]>>[N:1]([C@:2]1([H:9])[C:3][N:4]([H:10])[C:5]([H:11])=[C:6]1[H:12])([H:7])[H:8]"
N       -1.93889377       0.29652964      -0.47984899
C       -0.61465073       0.19323970       0.01060452
C        0.37184730       1.22738137      -0.20445037
N        1.55131605       0.56127444      -0.11726013
C        1.40008614      -0.80973470       0.01359851
C        0.08543165      -1.08516895       0.11733452
H       -2.22378727       1.26185289      -0.55707129
H       -2.60681160      -0.21117122       0.08021848
H       -0.35166131       1.06731554       1.00635357
H        2.42985063       1.03351498      -0.00110991
H        2.25649803      -1.46678896       0.03590778
H       -0.35922510      -2.06824473       0.09572329
12
Frame=9 idx=005669 GeodesicLength=0.44095294313794214 rxn_smarts="[N:1]([c:2]1[c:3]([H:9])[n:4]([H:10])[c:5]([H:11])[c:6]1[H:12])([H:7])[H:8]>>[N:1]([C@:2]1([H:9])[C:3][N:4]([H:10])[C:5]([H:11])=[C:6]1[H:12])([H:7])[H:8]"
N       -1.93598560       0.29435782      -0.48341873
C       -0.61548205       0.19399066       0.02149657
C        0.37320748       1.22255610      -0.20185851
N        1.55266698       0.55877757      -0.11987806
C        1.39960586      -0.81317617       0.00804109
C        0.08503529      -1.08488163       0.12392386
H       -2.22727139       1.25864378      -0.54889484
H       -2.60526523      -0.22360327       0.06562729
H       -0.35241246       1.10187579       1.00976656
H        2.43068042       1.03022927       0.00384725
H        2.25536560      -1.47106783       0.02634314
H       -0.36014491      -2.06770209       0.09500437
12
Frame=10 idx=005669 GeodesicLength=0.4899315990410049 rxn_smarts="[N:1]([c:2]1[c:3]([H:9])[n:4]([H:10])[c:5]([H:11])[c:6]1[H:12])([H:7])[H:8]>>[N:1]([C@:2]1([H:9])[C:3][N:4]([H:10])[C:5]([H:11])=[C:6]1[H:12])([H:7])[H:8]"
N       -1.93294574       0.29212538      -0.48677294
C       -0.61630958       0.19467427       0.03260947
C        0.37451394       1.21769904      -0.19884484
N        1.55396142       0.55627260      -0.12212998
C        1.39904216      -0.81668207       0.00215500
C        0.08467596      -1.08471561       0.13008538
H       -2.23078895       1.25512023      -0.54079428
H       -2.60339129      -0.23592479       0.05123788
H       -0.35327719       1.13720687       1.01233828
H        2.43145039       1.02681705       0.00917519
H        2.25415715      -1.47537347       0.01651741
H       -0.36108826      -2.06721948       0.09442343
12
Frame=11 idx=005669 GeodesicLength=0.5389073927155501 rxn_smarts="[N:1]([c:2]1[c:3]([H:9])[n:4]([H:10])[c:5]([H:11])[c:6]1[H:12])([H:7])[H:8]>>[N:1]([C@:2]1([H:9])[C:3][N:4]([H:10])[C:5]([H:11])=[C:6]1[H:12])([H:7])[H:8]"
N       -1.92981644       0.28986951      -0.48982205
C       -0.61713247       0.19527125       0.04391713
C        0.37575659       1.21281053      -0.19541837
N        1.55519187       0.55375123      -0.12415821
C        1.39838605      -0.82026344      -0.00429322
C        0.08435002      -1.08469719       0.13564325
H       -2.23436595       1.25133398      -0.53259875
H       -2.60119896      -0.24812386       0.03716644
H       -0.35419933       1.17324621       1.01401569
H        2.43215778       1.02325850       0.01473845
H        2.25292415      -1.47962731       0.00717529
H       -0.36205331      -2.06682941       0.09363436
12
Frame=12 idx=005669 GeodesicLength=0.5878817126597025 rxn_smarts="[N:1]([c:2]1[c:3]([H:9])[n:4]([H:10])[c:5]([H:11])[c:6]1[H:12])([H:7])[H:8]>>[N:1]([C@:2]1([H:9])[C:3][N:4]([H:10])[C:5]([H:11])=[C:6]1[H:12])([H:7])[H:8]"
N       -1.92658617       0.28756581      -0.49257578
C       -0.61794588       0.19577357       0.05543895
C        0.37694347       1.20788453      -0.19156303
N        1.55636510       0.55121512      -0.12589324
C        1.39763859      -0.82390836      -0.01120219
C        0.08405830      -1.08482230       0.14069952
H       -2.23797629       1.24726633      -0.52437943
H       -2.59869597      -0.26019164       0.02342393
H       -0.35522443       1.21006044       1.01470104
H        2.43280251       1.01954980       0.02065986
H        2.25165348      -1.48385646      -0.00202969
H       -0.36303270      -2.06653683       0.09272006
12
Frame=13 idx=005669 GeodesicLength=0.6368550636796498 rxn_smarts="[N:1]([c:2]1[c:3]([H:9])[n:4]([H:10])[c:5]([H:11])[c:6]1[H:12])([H:7])[H:8]>>[N:1]([C@:2]1([H:9])[C:3][N:4]([H:10])[C:5]([H:11])=[C:6]1[H:12])([H:7])[H:8]"
N       -1.92325028       0.28519868      -0.49503093
C       -0.61874567       0.19617154       0.06718693
C        0.37808049       1.20291767      -0.18725592
N        1.55748644       0.54866512      -0.12729212
C        1.39680015      -0.82760641      -0.01851583
C        0.08380182      -1.08509036       0.14531477
H       -2.24159942       1.24291105      -0.51617383
H       -2.59589070      -0.27212014       0.01003583
H       -0.35638570       1.24769051       1.01429542
H        2.43338492       1.01568360       0.02702261
H        2.25033626      -1.48807236      -0.01129566
H       -0.36401832      -2.06634891       0.09170874
12
Frame=14 idx=005669 GeodesicLength=0.6858273041432041 rxn_smarts="[N:1]([c:2]1[c:3]([H:9])[n:4]([H:10])[c:5]([H:11])[c:6]1[H:12])([H:7])[H:8]>>[N:1]([C@:2]1([H:9])[C:3][N:4]([H:10])[C:5]([H:11])=[C:6]1[H:12])([H:7])[H:8]"
N       -1.91981480       0.28276670      -0.49716684
C       -0.61952838       0.19645214       0.07916372
C        0.37917033       1.19790895      -0.18247039
N        1.55855828       0.54610045      -0.12835260
C        1.39586945      -0.83134978      -0.02624136
C        0.08358122      -1.08550639       0.14949306
H       -2.24522465       1.23827866      -0.50796639
H       -2.59279402      -0.28390277      -0.00295847
H       -0.35769678       1.28614481       1.01270465
H        2.43390550       1.01164795       0.03385310
H        2.24897647      -1.49226473      -0.02060770
H       -0.36500261      -2.06627598       0.09054923
12
Frame=15 idx=005669 GeodesicLength=0.734799616826881 rxn_smarts="[N:1]([c:2]1[c:3]([H:9])[n:4]([H:10])[c:5]([H:11])[c:6]1[H:12])([H:7])[H:8]>>[N:1]([C@:2]1([H:9])[C:3][N:4]([H:10])[C:5]([H:11])=[C:6]1[H:12])([H:7])[H:8]"
N       -1.91626385       0.28024645      -0.49899986
C       -0.62029047       0.19660892       0.09138797
C        0.38022274       1.19285813      -0.17716178
N        1.55958923       0.54352479      -0.12899627
C        1.39484734      -0.83512251      -0.03428860
C        0.08340001      -1.08606222       0.15334078
H       -2.24882226       1.23335695      -0.49982816
H       -2.58941258      -0.29553876      -0.01556020
H       -0.35920716       1.32547238       1.00980857
H        2.43436553       1.00743323       0.04128167
H        2.24754669      -1.49645921      -0.03034590
H       -0.36597521      -2.06631815       0.08936178
12
Frame=16 idx=005669 GeodesicLength=0.7837725799334784 rxn_smarts="[N:1]([c:2]1[c:3]([H:9])[n:4]([H:10])[c:5]([H:11])[c:6]1[H:12])([H:7])[H:8]>>[N:1]([C@:2]1([H:9])[C:3][N:4]([H:10])[C:5]([H:11])=[C:6]1[H:12])([H:7])[H:8]"
N       -1.91259207       0.27762950      -0.50052799
C       -0.62103013       0.19663204       0.10387091
C        0.38124369       1.18776760      -0.17127870
N        1.56058413       0.54093998      -0.12918647
C        1.39373213      -0.83891088      -0.04262781
C        0.08326096      -1.08675578       0.15690853
H       -2.25237266       1.22815083      -0.49177598
H       -2.58575504      -0.30702839      -0.02775725
H       -0.36094517       1.36568778       1.00549279
H        2.43476729       1.00302455       0.04937182
H        2.24603291      -1.50065755      -0.04066675
H       -0.36692604      -2.06647968       0.08817691
