10
Frame=0 idx=002243 GeodesicLength=0.0 rxn_smarts="[O:1]([C:2]([C:3](=[O:4])[C:5]#[C:6][H:10])([H:8])[H:9])[H:7]>>[O:1](/[C:2](=[C:3](\[O:4][H:7])[C:5]#[C:6][H:10])[H:8])[H:9]"
O       -2.18831592      -0.30307122      -0.37408449
C       -0.90977522       0.52593997      -0.05382834
C        0.15783554      -0.40644882      -0.09869081
O       -0.04337303      -1.56109271      -0.49965328
C        1.47076072       0.05174666       0.30589704
C        2.54898520       0.43776828       0.65371463
H       -1.71981655      -1.17497962      -0.54939579
H       -1.08462641       1.22465875       0.74912493
H       -1.74452200       0.43503431      -1.09457538
H        3.51284768       0.77044439       0.96149149
10
Frame=1 idx=002243 GeodesicLength=0.0916721950403014 rxn_smarts="[O:1]([C:2]([C:3](=[O:4])[C:5]#[C:6][H:10])([H:8])[H:9])[H:7]>>[O:1](/[C:2](=[C:3](\[O:4][H:7])[C:5]#[C:6][H:10])[H:8])[H:9]"
O       -2.18191122      -0.30252351      -0.38016904
C       -0.91609211       0.52139837      -0.04978898
C        0.15475460      -0.40839213      -0.08782982
O       -0.05146798      -1.56726249      -0.48398876
C        1.46854074       0.05445758       0.30373691
C        2.54770566       0.43636774       0.65333200
H       -1.70134032      -1.18789417      -0.56101066
H       -1.08518837       1.22364547       0.75179655
H       -1.74891952       0.45957299      -1.09801729
H        3.51391852       0.77063017       0.95193908
10
Frame=2 idx=002243 GeodesicLength=0.1833956803054176 rxn_smarts="[O:1]([C:2]([C:3](=[O:4])[C:5]#[C:6][H:10])([H:8])[H:9])[H:7]>>[O:1](/[C:2](=[C:3](\[O:4][H:7])[C:5]#[C:6][H:10])[H:8])[H:9]"
O       -2.17559143      -0.30133012      -0.38785036
C       -0.92245160       0.51657150      -0.04550318
C        0.15131285      -0.41094687      -0.07537985
O       -0.05921734      -1.57341831      -0.46887786
C        1.46564587       0.05613709       0.30439575
C        2.54660786       0.43521185       0.65169318
H       -1.68274329      -1.20109569      -0.57240788
H       -1.08643098       1.22229281       0.75459142
H       -1.75216796       0.48511518      -1.10138898
H        3.51503602       0.77146257       0.94072776
10
Frame=3 idx=002243 GeodesicLength=0.27532555183300056 rxn_smarts="[O:1]([C:2]([C:3](=[O:4])[C:5]#[C:6][H:10])([H:8])[H:9])[H:7]>>[O:1](/[C:2](=[C:3](\[O:4][H:7])[C:5]#[C:6][H:10])[H:8])[H:9]"
O       -2.16949562      -0.29999080      -0.39500389
C       -0.92871318       0.51169214      -0.04182559
C        0.14796699      -0.41344488      -0.06348517
O       -0.06637982      -1.57935747      -0.45500149
C        1.46300817       0.05824134       0.30318264
C        2.54548686       0.43428041       0.64925741
H       -1.66417942      -1.21515489      -0.58180110
H       -1.08702356       1.22138939       0.75641303
H       -1.75603199       0.51078191      -1.10393662
H        3.51536157       0.77156285       0.93220080
10
Frame=4 idx=002243 GeodesicLength=0.36717327273005657 rxn_smarts="[O:1]([C:2]([C:3](=[O:4])[C:5]#[C:6][H:10])([H:8])[H:9])[H:7]>>[O:1](/[C:2](=[C:3](\[O:4][H:7])[C:5]#[C:6][H:10])[H:8])[H:9]"
O       -2.16359418      -0.29847382      -0.40210432
C       -0.93491955       0.50673784      -0.03867333
C        0.14469893      -0.41587288      -0.05204420
O       -0.07293926      -1.58512393      -0.44222233
C        1.46043004       0.06058369       0.30099398
C        2.54432210       0.43372989       0.64597315
H       -1.64566019      -1.23003619      -0.58922893
H       -1.08723362       1.22069745       0.75747105
H       -1.76027918       0.53680499      -1.10580049
H        3.51517492       0.77095296       0.92563543
10
Frame=5 idx=002243 GeodesicLength=0.4590232906996038 rxn_smarts="[O:1]([C:2]([C:3](=[O:4])[C:5]#[C:6][H:10])([H:8])[H:9])[H:7]>>[O:1](/[C:2](=[C:3](\[O:4][H:7])[C:5]#[C:6][H:10])[H:8])[H:9]"
O       -2.15789430      -0.29672349      -0.40914697
C       -0.94103213       0.50170654      -0.03605049
C        0.14155305      -0.41822300      -0.04124596
O       -0.07893112      -1.59084461      -0.43026761
C        1.45793465       0.06308653       0.29778952
C        2.54314398       0.43348376       0.64180499
H       -1.62726450      -1.24576207      -0.59488528
H       -1.08697147       1.22015463       0.75781968
H       -1.76495283       0.56328760      -1.10690371
H        3.51441468       0.76983410       0.92108583
10
Frame=6 idx=002243 GeodesicLength=0.5508523002600811 rxn_smarts="[O:1]([C:2]([C:3](=[O:4])[C:5]#[C:6][H:10])([H:8])[H:9])[H:7]>>[O:1](/[C:2](=[C:3](\[O:4][H:7])[C:5]#[C:6][H:10])[H:8])[H:9]"
O       -2.15233627      -0.29462420      -0.41666656
C       -0.94707875       0.49655481      -0.03382005
C        0.13847550      -0.42056584      -0.03089218
O       -0.08444232      -1.59666992      -0.41868435
C        1.45535426       0.06550008       0.29443680
C        2.54183561       0.43338547       0.63735376
H       -1.60894594      -1.26222770      -0.59928533
H       -1.08650954       1.21947389       0.75776524
H       -1.76970493       0.59054750      -1.10734025
H        3.51335238       0.76862592       0.91713292
10
Frame=7 idx=002243 GeodesicLength=0.6424752212770346 rxn_smarts="[O:1]([C:2]([C:3](=[O:4])[C:5]#[C:6][H:10])([H:8])[H:9])[H:7]>>[O:1](/[C:2](=[C:3](\[O:4][H:7])[C:5]#[C:6][H:10])[H:8])[H:9]"
O       -2.14689830      -0.29221545      -0.42457576
C       -0.95304206       0.49130358      -0.03206036
C        0.13554887      -0.42280708      -0.02135866
O       -0.08948574      -1.60270782      -0.40712176
C        1.45278579       0.06793834       0.29046131
C        2.54049889       0.43357102       0.63212698
H       -1.59077654      -1.27946123      -0.60239166
H       -1.08574384       1.21859539       0.75731918
H       -1.77471066       0.61862581      -1.10695252
H        3.51182359       0.76715746       0.91455324
10
Frame=8 idx=002243 GeodesicLength=0.7343118427481428 rxn_smarts="[O:1]([C:2]([C:3](=[O:4])[C:5]#[C:6][H:10])([H:8])[H:9])[H:7]>>[O:1](/[C:2](=[C:3](\[O:4][H:7])[C:5]#[C:6][H:10])[H:8])[H:9]"
O       -2.14145690      -0.28935619      -0.43381511
C       -0.95903041       0.48590696      -0.03059088
C        0.13261817      -0.42503751      -0.01212811
O       -0.09426250      -1.60892896      -0.39516408
C        1.44993207       0.07009738       0.28739221
C        2.53874415       0.43368151       0.62798957
H       -1.57244331      -1.29737577      -0.60488508
H       -1.08527503       1.21708684       0.75690938
H       -1.77938597       0.64794235      -1.10597697
H        3.51055974       0.76598340       0.91026907
10
Frame=9 idx=002243 GeodesicLength=0.8259322344203547 rxn_smarts="[O:1]([C:2]([C:3](=[O:4])[C:5]#[C:6][H:10])([H:8])[H:9])[H:7]>>[O:1](/[C:2](=[C:3](\[O:4][H:7])[C:5]#[C:6][H:10])[H:8])[H:9]"
O       -2.13606516      -0.28621047      -0.44357175
C       -0.96493064       0.48044651      -0.02970545
C        0.12992624      -0.42704231      -0.00417561
O       -0.09871050      -1.61547474      -0.38264796
C        1.44719724       0.07238360       0.28327193
C        2.53704127       0.43415587       0.62276288
H       -1.55422694      -1.31609140      -0.60606843
H       -1.08449108       1.21517737       0.75622192
H       -1.78446550       0.67821912      -1.10396354
H        3.50872508       0.76443645       0.90787599
10
Frame=10 idx=002243 GeodesicLength=0.9174463219509292 rxn_smarts="[O:1]([C:2]([C:3](=[O:4])[C:5]#[C:6][H:10])([H:8])[H:9])[H:7]>>[O:1](/[C:2](=[C:3](\[O:4][H:7])[C:5]#[C:6][H:10])[H:8])[H:9]"
O       -2.13062658      -0.28268181      -0.45447336
C       -0.97080242       0.47489787      -0.02932536
C        0.12738635      -0.42887898       0.00275714
O       -0.10293999      -1.62240861      -0.36926157
C        1.44441707       0.07462837       0.27897218
C        2.53512217       0.43473976       0.61773584
H       -1.53597807      -1.33551078      -0.60635650
H       -1.08376071       1.21258346       0.75554285
H       -1.78959214       0.70972277      -1.10100516
H        3.50677432       0.76290796       0.90541394
10
Frame=11 idx=002243 GeodesicLength=1.0088509088297848 rxn_smarts="[O:1]([C:2]([C:3](=[O:4])[C:5]#[C:6][H:10])([H:8])[H:9])[H:7]>>[O:1](/[C:2](=[C:3](\[O:4][H:7])[C:5]#[C:6][H:10])[H:8])[H:9]"
O       -2.12511018      -0.27876128      -0.46639563
C       -0.97658392       0.46929783      -0.02957483
C        0.12508447      -0.43049879       0.00830789
O       -0.10699596      -1.62973683      -0.35487399
C        1.44174096       0.07688675       0.27384205
C        2.53318883       0.43549166       0.61209943
H       -1.51781387      -1.35572660      -0.60543203
H       -1.08289717       1.20928529       0.75482054
H       -1.79495596       0.74243314      -1.09689108
H        3.50434279       0.76132883       0.90409766
10
Frame=12 idx=002243 GeodesicLength=1.100188376314428 rxn_smarts="[O:1]([C:2]([C:3](=[O:4])[C:5]#[C:6][H:10])([H:8])[H:9])[H:7]>>[O:1](/[C:2](=[C:3](\[O:4][H:7])[C:5]#[C:6][H:10])[H:8])[H:9]"
O       -2.11939868      -0.27437085      -0.47989616
C       -0.98232475       0.46363567      -0.03043407
C        0.12295152      -0.43194442       0.01264012
O       -0.11094851      -1.63748778      -0.33930059
C        1.43904942       0.07906979       0.26848479
C        2.53105716       0.43628448       0.60670180
H       -1.49966140      -1.37668329      -0.60342293
H       -1.08222025       1.20503405       0.75428820
H       -1.80028040       0.77654504      -1.09165935
H        3.50177588       0.75991729       0.90259820
10
Frame=13 idx=002243 GeodesicLength=1.191552185051517 rxn_smarts="[O:1]([C:2]([C:3](=[O:4])[C:5]#[C:6][H:10])([H:8])[H:9])[H:7]>>[O:1](/[C:2](=[C:3](\[O:4][H:7])[C:5]#[C:6][H:10])[H:8])[H:9]"
O       -2.11337607      -0.26944276      -0.49528639
C       -0.98802090       0.45793306      -0.03199322
C        0.12099055      -0.43321044       0.01564449
O       -0.11480256      -1.64557731      -0.32260372
C        1.43632977       0.08116303       0.26300785
C        2.52865993       0.43706385       0.60187636
H       -1.48161098      -1.39848209      -0.60000741
H       -1.08184941       1.19966618       0.75402424
H       -1.80549776       0.81214536      -1.08524301
H        3.49917743       0.75874110       0.90058081
10
Frame=14 idx=002243 GeodesicLength=1.2829834456357676 rxn_smarts="[O:1]([C:2]([C:3](=[O:4])[C:5]#[C:6][H:10])([H:8])[H:9])[H:7]>>[O:1](/[C:2](=[C:3](\[O:4][H:7])[C:5]#[C:6][H:10])[H:8])[H:9]"
O       -2.10690869      -0.26391058      -0.51280124
C       -0.99363011       0.45222883      -0.03440574
C        0.11925532      -0.43427434       0.01704226
O       -0.11848945      -1.65388371      -0.30509171
C        1.43363220       0.08319713       0.25723275
C        2.52603029       0.43785604       0.59749842
H       -1.46391002      -1.42129143      -0.59441312
H       -1.08180941       1.19304297       0.75404438
H       -1.81062698       0.84927137      -1.07752299
H        3.49645684       0.75776372       0.89841699
10
Frame=15 idx=002243 GeodesicLength=1.3747081300481938 rxn_smarts="[O:1]([C:2]([C:3](=[O:4])[C:5]#[C:6][H:10])([H:8])[H:9])[H:7]>>[O:1](/[C:2](=[C:3](\[O:4][H:7])[C:5]#[C:6][H:10])[H:8])[H:9]"
O       -2.09985260      -0.25767401      -0.53274771
C       -0.99907660       0.44656525      -0.03785056
C        0.11782270      -0.43513444       0.01644609
O       -0.12191675      -1.66230913      -0.28728982
C        1.43103356       0.08520722       0.25091313
C        2.52322224       0.43871261       0.59338537
H       -1.44695662      -1.44536911      -0.58551682
H       -1.08206234       1.18499277       0.75439809
H       -1.81567004       0.88801076      -1.06839172
H        3.49345646       0.75699808       0.89665394
10
Frame=16 idx=002243 GeodesicLength=1.4662745856365245 rxn_smarts="[O:1]([C:2]([C:3](=[O:4])[C:5]#[C:6][H:10])([H:8])[H:9])[H:7]>>[O:1](/[C:2](=[C:3](\[O:4][H:7])[C:5]#[C:6][H:10])[H:8])[H:9]"
O       -2.09207604      -0.25057811      -0.55510482
C       -1.00418446       0.44092403      -0.04262988
C        0.11687678      -0.43567639       0.01310332
O       -0.12499568      -1.67039053      -0.26961856
C        1.42875102       0.08718198       0.24326242
C        2.52047630       0.43954277       0.58867501
H       -1.43130506      -1.47066926      -0.57197898
H       -1.08227249       1.17509334       0.75482708
H       -1.82084744       0.92806825      -1.05747211
H        3.48957708       0.75650391       0.89693653
