14
Frame=0 idx=004432 GeodesicLength=0.0 rxn_smarts="[C:1]([C@@:2]1([O:3][H:10])[C:4]([H:11])([H:12])[C@:5]1([O:6][H:14])[H:13])([H:7])([H:8])[H:9]>>[C:1]([C@@:2]([O:3][H:10])([C:4]([C:5][O:6][H:14])([H:11])[H:12])[H:13])([H:7])([H:8])[H:9]"
C       -0.98275718       0.34586613      -1.11286858
C       -0.14584239       0.57072072       0.10752098
O       -0.27638463       1.85840066       0.60222233
C        0.08179093      -0.52344943       1.08336375
C        1.45993794      -0.46544993       0.42700615
O        1.63494474      -1.43614702      -0.51473386
H       -2.03705114       0.25174483      -0.84446054
H       -0.67429087      -0.56690451      -1.62509488
H       -0.87235701       1.18362599      -1.80101333
H        0.21760683       1.93227871       1.42293498
H        0.04440767      -0.25568184       2.13668983
H       -0.49476119      -1.43139051       0.89921780
H        1.14347093       0.60041521      -0.24471170
H        0.90128533      -2.06402898      -0.53607297
14
Frame=1 idx=004432 GeodesicLength=0.05912390140146199 rxn_smarts="[C:1]([C@@:2]1([O:3][H:10])[C:4]([H:11])([H:12])[C@:5]1([O:6][H:14])[H:13])([H:7])([H:8])[H:9]>>[C:1]([C@@:2]([O:3][H:10])([C:4]([C:5][O:6][H:14])([H:11])[H:12])[H:13])([H:7])([H:8])[H:9]"
C       -0.97936841       0.34689475      -1.11272014
C       -0.13787284       0.57498329       0.10484128
O       -0.28266803       1.86166061       0.60057554
C        0.08475641      -0.52136607       1.08178855
C        1.45489998      -0.47521036       0.41558596
O        1.63795660      -1.46165320      -0.50399186
H       -2.03266598       0.25142489      -0.84038110
H       -0.67386257      -0.56566422      -1.62676024
H       -0.87452272       1.18320758      -1.80365768
H        0.18277127       1.93973935       1.43696080
H        0.06780956      -0.25250468       2.13544954
H       -0.50145937      -1.42458523       0.90508926
H        1.16043757       0.61887290      -0.24169736
H        0.89378852      -2.07579960      -0.55108253
14
Frame=2 idx=004432 GeodesicLength=0.11825817304670308 rxn_smarts="[C:1]([C@@:2]1([O:3][H:10])[C:4]([H:11])([H:12])[C@:5]1([O:6][H:14])[H:13])([H:7])([H:8])[H:9]>>[C:1]([C@@:2]([O:3][H:10])([C:4]([C:5][O:6][H:14])([H:11])[H:12])[H:13])([H:7])([H:8])[H:9]"
C       -0.97588722       0.34805710      -1.11253269
C       -0.12971646       0.57940495       0.10212414
O       -0.28873125       1.86495176       0.59888197
C        0.08813973      -0.51911531       1.08018756
C        1.44973001      -0.48496441       0.40322493
O        1.64044066      -1.48821187      -0.49230753
H       -2.02815839       0.25134859      -0.83617754
H       -0.67355211      -0.56437104      -1.62834609
H       -0.87650048       1.18283767      -1.80629297
H        0.14602900       1.94658583       1.45082436
H        0.09217993      -0.24917753       2.13379529
H       -0.50799398      -1.41732510       0.91131894
H        1.17771631       0.63750492      -0.23797948
H        0.88630428      -2.08752556      -0.56672089
14
Frame=3 idx=004432 GeodesicLength=0.17739620113006802 rxn_smarts="[C:1]([C@@:2]1([O:3][H:10])[C:4]([H:11])([H:12])[C@:5]1([O:6][H:14])[H:13])([H:7])([H:8])[H:9]>>[C:1]([C@@:2]([O:3][H:10])([C:4]([C:5][O:6][H:14])([H:11])[H:12])[H:13])([H:7])([H:8])[H:9]"
C       -0.97233405       0.34937646      -1.11229924
C       -0.12136960       0.58399208       0.09936096
O       -0.29452375       1.86827464       0.59716933
C        0.09195750      -0.51669406       1.07855116
C        1.44439760      -0.49473417       0.38987897
O        1.64232557      -1.51584520      -0.47954725
H       -2.02354306       0.25154863      -0.83182146
H       -0.67339403      -0.56300468      -1.62984627
H       -0.87830963       1.18254883      -1.80890207
H        0.10730452       1.95273361       1.46441020
H        0.11755399      -0.24567863       2.13167970
H       -0.51435649      -1.40958274       0.91792151
H        1.19531806       0.65626783      -0.23351819
H        0.87897335      -2.09920259      -0.58303734
14
Frame=4 idx=004432 GeodesicLength=0.23653086297390832 rxn_smarts="[C:1]([C@@:2]1([O:3][H:10])[C:4]([H:11])([H:12])[C@:5]1([O:6][H:14])[H:13])([H:7])([H:8])[H:9]>>[C:1]([C@@:2]([O:3][H:10])([C:4]([C:5][O:6][H:14])([H:11])[H:12])[H:13])([H:7])([H:8])[H:9]"
C       -0.96873432       0.35087903      -1.11201014
C       -0.11282758       0.58874995       0.09654195
O       -0.29998512       1.87162980       0.59546959
C        0.09622211      -0.51410122       1.07686890
C        1.43886486      -0.50454895       0.37550701
O        1.64352542      -1.54455223      -0.46557770
H       -2.01883916       0.25207091      -0.82727755
H       -0.67343843      -0.56154726      -1.63124823
H       -0.87996964       1.18237483      -1.81146669
H        0.06652762       1.95809315       1.47758349
H        0.14395802      -0.24198636       2.12905129
H       -0.52054199      -1.40133034       0.92491032
H        1.21325659       0.67510314      -0.22827062
H        0.87198163      -2.11083446      -0.60008161
14
Frame=5 idx=004432 GeodesicLength=0.2956531237978273 rxn_smarts="[C:1]([C@@:2]1([O:3][H:10])[C:4]([H:11])([H:12])[C@:5]1([O:6][H:14])[H:13])([H:7])([H:8])[H:9]>>[C:1]([C@@:2]([O:3][H:10])([C:4]([C:5][O:6][H:14])([H:11])[H:12])[H:13])([H:7])([H:8])[H:9]"
C       -0.96511852       0.35259488      -1.11165316
C       -0.10408424       0.59368252       0.09365591
O       -0.30504375       1.87501760       0.59381989
C        0.10094081      -0.51133834       1.07512948
C        1.43308582      -0.51444590       0.36007365
O        1.64393637      -1.57429481      -0.45028254
H       -2.01407058       0.25297840      -0.82250378
H       -0.67375453      -0.55998356      -1.63253164
H       -0.88149808       1.18235101      -1.81396847
H        0.02363374       1.96256805       1.49018835
H        0.17140734      -0.23808205       2.12585531
H       -0.52655023      -1.39253964       0.93229686
H        1.23154899       0.69393489      -0.22219168
H        0.86556686      -2.12244305      -0.61788819
14
Frame=6 idx=004432 GeodesicLength=0.35475369762012693 rxn_smarts="[C:1]([C@@:2]1([O:3][H:10])[C:4]([H:11])([H:12])[C@:5]1([O:6][H:14])[H:13])([H:7])([H:8])[H:9]>>[C:1]([C@@:2]([O:3][H:10])([C:4]([C:5][O:6][H:14])([H:11])[H:12])[H:13])([H:7])([H:8])[H:9]"
C       -0.96152230       0.35455565      -1.11121187
C       -0.09513611       0.59878981       0.09069357
O       -0.30962880       1.87843355       0.59227006
C        0.10610909      -0.50841221       1.07332233
C        1.42700315      -0.52447050       0.34355802
O        1.64344016      -1.60498437      -0.43357745
H       -2.00926688       0.25434815      -0.81745326
H       -0.67442872      -0.55830283      -1.63366776
H       -0.88290940       1.18251306      -1.81638489
H       -0.02140360       1.96607187       1.50203311
H        0.19989462      -0.23395128       2.12203557
H       -0.53238824      -1.38318674       0.94008871
H        1.25021256       0.71266687      -0.21522795
H        0.86002448      -2.13407103      -0.63647819
14
Frame=7 idx=004432 GeodesicLength=0.41382080456531634 rxn_smarts="[C:1]([C@@:2]1([O:3][H:10])[C:4]([H:11])([H:12])[C@:5]1([O:6][H:14])[H:13])([H:7])([H:8])[H:9]>>[C:1]([C@@:2]([O:3][H:10])([C:4]([C:5][O:6][H:14])([H:11])[H:12])[H:13])([H:7])([H:8])[H:9]"
C       -0.95798640       0.35679542      -1.11066726
C       -0.08597930       0.60406855       0.08764562
O       -0.31366158       1.88187018       0.59087721
C        0.11171104      -0.50533511       1.07143811
C        1.42055153      -0.53467363       0.32596175
O        1.64190824      -1.63646206      -0.41543845
H       -2.00446275       0.25627188      -0.81207468
H       -0.67556616      -0.55649691      -1.63461983
H       -0.88421745       1.18289786      -1.81869314
H       -0.06857794       1.96851967       1.51289803
H        0.22938460      -0.22959047       2.11753835
H       -0.53806960      -1.37325229       0.94828815
H        1.26926654       0.73117975      -0.20732523
H        0.85569923      -2.14579283      -0.65582864
14
Frame=8 idx=004432 GeodesicLength=0.4728437674076932 rxn_smarts="[C:1]([C@@:2]1([O:3][H:10])[C:4]([H:11])([H:12])[C@:5]1([O:6][H:14])[H:13])([H:7])([H:8])[H:9]>>[C:1]([C@@:2]([O:3][H:10])([C:4]([C:5][O:6][H:14])([H:11])[H:12])[H:13])([H:7])([H:8])[H:9]"
C       -0.95455581       0.35934475      -1.10999641
C       -0.07661763       0.60950809       0.08450808
O       -0.31707999       1.88530983       0.58971372
C        0.11770883      -0.50212850       1.06947221
C        1.41365518      -0.54510821       0.30732517
O        1.63921702      -1.66848946      -0.39592008
H       -1.99969821       0.25884269      -0.80631751
H       -0.67727994      -0.55456192      -1.63534551
H       -0.88543686       1.18354001      -1.82086493
H       -0.11778903       1.96985848       1.52252116
H        0.25979446      -0.22500999       2.11231847
H       -0.54361642      -1.36273087       0.95688904
H        1.28872395       0.74933135      -0.19842203
H        0.85297445      -2.15770625      -0.67588137
14
Frame=9 idx=004432 GeodesicLength=0.5318205524906658 rxn_smarts="[C:1]([C@@:2]1([O:3][H:10])[C:4]([H:11])([H:12])[C@:5]1([O:6][H:14])[H:13])([H:7])([H:8])[H:9]>>[C:1]([C@@:2]([O:3][H:10])([C:4]([C:5][O:6][H:14])([H:11])[H:12])[H:13])([H:7])([H:8])[H:9]"
C       -0.95127805       0.36223026      -1.10917515
C       -0.06705953       0.61509495       0.08128022
O       -0.31982265       1.88873352       0.58886216
C        0.12404480      -0.49881953       1.06742144
C        1.40623332      -0.55581473       0.28772522
O        1.63526390      -1.70074930      -0.37517098
H       -1.99501615       0.26215048      -0.80013283
H       -0.67968678      -0.55249764      -1.63580000
H       -0.88658320       1.18447205      -1.82286971
H       -0.16886564       1.97005857       1.53062969
H        0.29099636      -0.22024146       2.10634319
H       -0.54906134      -1.35163081       0.96587269
H        1.30859002       0.76696505      -0.18847242
H        0.85224495      -2.16995143      -0.69651353
14
Frame=10 idx=004432 GeodesicLength=0.590745827730705 rxn_smarts="[C:1]([C@@:2]1([O:3][H:10])[C:4]([H:11])([H:12])[C@:5]1([O:6][H:14])[H:13])([H:7])([H:8])[H:9]>>[C:1]([C@@:2]([O:3][H:10])([C:4]([C:5][O:6][H:14])([H:11])[H:12])[H:13])([H:7])([H:8])[H:9]"
C       -0.94820247       0.36546206      -1.10817814
C       -0.05733208       0.62079934       0.07797185
O       -0.32188676       1.89209803       0.58840817
C        0.13062899      -0.49544997       1.06529673
C        1.39820311      -0.56682851       0.26731253
O        1.62998894      -1.73285777      -0.35343119
H       -1.99046261       0.26624876      -0.79348803
H       -0.68288083      -0.55030319      -1.63594527
H       -0.88769033       1.18571618      -1.82466975
H       -0.22144438       1.96916870       1.53691613
H        0.32278692      -0.21533848       2.09960560
H       -0.55443792      -1.33998971       0.97520894
H        1.32884931       0.78390676      -0.17742012
H        0.85388011      -2.18263221      -0.71758746
14
Frame=11 idx=004432 GeodesicLength=0.6496485345051637 rxn_smarts="[C:1]([C@@:2]1([O:3][H:10])[C:4]([H:11])([H:12])[C@:5]1([O:6][H:14])[H:13])([H:7])([H:8])[H:9]>>[C:1]([C@@:2]([O:3][H:10])([C:4]([C:5][O:6][H:14])([H:11])[H:12])[H:13])([H:7])([H:8])[H:9]"
C       -0.94537814       0.36904638      -1.10698733
C       -0.04746350       0.62659481       0.07459184
O       -0.32327203       1.89537150       0.58842414
C        0.13736270      -0.49206709       1.06311362
C        1.38950046      -0.57815845       0.24627081
O        1.62338979      -1.76441175      -0.33101480
H       -1.98608743       0.27116802      -0.78636120
H       -0.68693892      -0.54797343      -1.63575407
H       -0.88880340       1.18730047      -1.82623796
H       -0.27512488       1.96726163       1.54111709
H        0.35493866      -0.21039015       2.09212607
H       -0.55978554      -1.32786775       0.98486116
H        1.34948100       0.79999670      -0.16525564
H        0.85818125      -2.19587090      -0.73889373
14
Frame=12 idx=004432 GeodesicLength=0.7084824195416375 rxn_smarts="[C:1]([C@@:2]1([O:3][H:10])[C:4]([H:11])([H:12])[C@:5]1([O:6][H:14])[H:13])([H:7])([H:8])[H:9]>>[C:1]([C@@:2]([O:3][H:10])([C:4]([C:5][O:6][H:14])([H:11])[H:12])[H:13])([H:7])([H:8])[H:9]"
C       -0.94285083       0.37293396      -1.10557919
C       -0.03755387       0.63242799       0.07117858
O       -0.32411190       1.89848333       0.58900067
C        0.14406607      -0.48872439       1.06088220
C        1.38001846      -0.58976624       0.22484506
O        1.61553031      -1.79497394      -0.30828608
H       -1.98192763       0.27684291      -0.77876780
H       -0.69186987      -0.54553207      -1.63521542
H       -0.88997239       1.18918589      -1.82751730
H       -0.32904360       1.96460812       1.54302180
H        0.38706970      -0.20549873       2.08394565
H       -0.56515708      -1.31536838       0.99472936
H        1.37035883       0.81509380      -0.15195887
H        0.86544379      -2.20971226      -0.76027865
14
Frame=13 idx=004432 GeodesicLength=0.7673127381700922 rxn_smarts="[C:1]([C@@:2]1([O:3][H:10])[C:4]([H:11])([H:12])[C@:5]1([O:6][H:14])[H:13])([H:7])([H:8])[H:9]>>[C:1]([C@@:2]([O:3][H:10])([C:4]([C:5][O:6][H:14])([H:11])[H:12])[H:13])([H:7])([H:8])[H:9]"
C       -0.94067500       0.37710123      -1.10396523
C       -0.02764506       0.63826978       0.06774422
O       -0.32444504       1.90141466       0.59015515
C        0.15062818      -0.48546689       1.05863122
C        1.36974528      -0.60161702       0.20326367
O        1.60653448      -1.82423203      -0.28558074
H       -1.97805669       0.28323112      -0.77074024
H       -0.69770560      -0.54298025      -1.63434864
H       -0.89127098       1.19137063      -1.82851937
H       -0.38269239       1.96138312       1.54256651
H        0.41894066      -0.20079106       2.07515060
H       -0.57060631      -1.30258129       1.00476024
H        1.39144984       0.82909324      -0.13758759
H        0.87579863      -2.22419524      -0.78152980
14
Frame=14 idx=004432 GeodesicLength=0.8262778175732727 rxn_smarts="[C:1]([C@@:2]1([O:3][H:10])[C:4]([H:11])([H:12])[C@:5]1([O:6][H:14])[H:13])([H:7])([H:8])[H:9]>>[C:1]([C@@:2]([O:3][H:10])([C:4]([C:5][O:6][H:14])([H:11])[H:12])[H:13])([H:7])([H:8])[H:9]"
C       -0.93891755       0.38158279      -1.10214412
C       -0.01779564       0.64410246       0.06428059
O       -0.32434377       1.90415845       0.59182616
C        0.15696072      -0.48238547       1.05637374
C        1.35865642      -0.61369465       0.18171249
O        1.59657858      -1.85200988      -0.26309883
H       -1.97454626       0.29036669      -0.76229594
H       -0.70450057      -0.54026801      -1.63310516
H       -0.89278657       1.19393310      -1.82926683
H       -0.43563397       1.95773761       1.53963724
H        0.45038179      -0.19647688       2.06578297
H       -0.57616089      -1.28964004       1.01493088
H        1.41268360       0.84193983      -0.12222385
H        0.88942413      -2.23934600      -0.80240934
14
Frame=15 idx=004432 GeodesicLength=0.8850047364651521 rxn_smarts="[C:1]([C@@:2]1([O:3][H:10])[C:4]([H:11])([H:12])[C@:5]1([O:6][H:14])[H:13])([H:7])([H:8])[H:9]>>[C:1]([C@@:2]([O:3][H:10])([C:4]([C:5][O:6][H:14])([H:11])[H:12])[H:13])([H:7])([H:8])[H:9]"
C       -0.93746084       0.38616675      -1.10005450
C       -0.00801804       0.64982625       0.06084933
O       -0.32381062       1.90659796       0.59406945
C        0.16292467      -0.47936751       1.05413235
C        1.34662514      -0.62593611       0.16040827
O        1.58550801      -1.87812633      -0.24118830
H       -1.97117555       0.29795809      -0.75339195
H       -0.71205379      -0.53750711      -1.63154447
H       -0.89450092       1.19656765      -1.82961539
H       -0.48740025       1.95397094       1.53436892
H        0.48109455      -0.19243083       2.05592805
H       -0.58182493      -1.27642647       1.02514249
H        1.43388344       0.85345264      -0.10594106
H        0.90620913      -2.25474591      -0.82316318
14
Frame=16 idx=004432 GeodesicLength=0.943900229548449 rxn_smarts="[C:1]([C@@:2]1([O:3][H:10])[C:4]([H:11])([H:12])[C@:5]1([O:6][H:14])[H:13])([H:7])([H:8])[H:9]>>[C:1]([C@@:2]([O:3][H:10])([C:4]([C:5][O:6][H:14])([H:11])[H:12])[H:13])([H:7])([H:8])[H:9]"
C       -0.93645344       0.39095586      -1.09776656
C        0.00158608       0.65547024       0.05742736
O       -0.32303851       1.90881099       0.59679220
C        0.16844807      -0.47656368       1.05191575
C        1.33373512      -0.63832784       0.13941071
O        1.57369210      -1.90260618      -0.21998933
H       -1.96821154       0.30608578      -0.74413839
H       -0.72046880      -0.53461758      -1.62968118
H       -0.89651123       1.19948440      -1.82969070
H       -0.53754488       1.95035292       1.52686485
H        0.51102266      -0.18894885       2.04564391
H       -0.58769532      -1.26318890       1.03540236
H        1.45507211       0.86374789      -0.08883064
H        0.92636759      -2.27065505      -0.84336033
