16
Frame=0 idx=006202 GeodesicLength=0.0 rxn_smarts="[C:1]([O:2][C:3]1([H:10])[C:4]([H:11])([H:12])[C:5]([H:13])([H:14])[C:6]1([H:15])[H:16])([H:7])([H:8])[H:9]>>[C:1]([O+:2]=[C-:3][C:6]([C:5]([C:4]([H:10])([H:11])[H:12])([H:13])[H:14])([H:15])[H:16])([H:7])([H:8])[H:9]"
C        2.54631818      -0.26002969       0.05778179
O        1.27211180      -0.63259010       0.55615430
C        0.26926256      -0.49101118      -0.31551126
C       -0.89034609       1.24139188       0.02094831
C       -1.92899040       0.16583260      -0.21782689
C       -1.05099122      -1.01030573       0.20031467
H        2.60111951       0.82645059      -0.06240664
H        2.73422994      -0.74033322      -0.90398084
H        3.28357153      -0.57892179       0.79252391
H        0.12036468       0.60543489      -0.79136408
H       -0.63272549       1.40024700       1.06622484
H       -0.95331974       2.17545927      -0.53755138
H       -2.16077197       0.10377375      -1.28429693
H       -2.87107414       0.26867106       0.32233310
H       -1.03232516      -1.07953484       1.29505836
H       -1.30643399      -1.99453456      -0.19840122
16
Frame=1 idx=006202 GeodesicLength=0.05781584688301002 rxn_smarts="[C:1]([O:2][C:3]1([H:10])[C:4]([H:11])([H:12])[C:5]([H:13])([H:14])[C:6]1([H:15])[H:16])([H:7])([H:8])[H:9]>>[C:1]([O+:2]=[C-:3][C:6]([C:5]([C:4]([H:10])([H:11])[H:12])([H:13])[H:14])([H:15])[H:16])([H:7])([H:8])[H:9]"
C        2.55043112      -0.26473903       0.06216450
O        1.27502692      -0.63774889       0.55665753
C        0.27038134      -0.48591529      -0.31152166
C       -0.89151716       1.24340289       0.01163102
C       -1.93041534       0.16373477      -0.21540543
C       -1.04829131      -1.00959125       0.20376764
H        2.61395946       0.82389119      -0.03051595
H        2.73081062      -0.72308182      -0.91181984
H        3.28769611      -0.60897182       0.78543279
H        0.11856763       0.61789871      -0.81152948
H       -0.64056527       1.41502503       1.05684702
H       -0.97018717       2.17618829      -0.54705293
H       -2.16888170       0.09512202      -1.27989006
H       -2.86820157       0.26788853       0.33173435
H       -1.02902361      -1.07978572       1.29827226
H       -1.29979008      -1.99331761      -0.19877176
16
Frame=2 idx=006202 GeodesicLength=0.11558393480273962 rxn_smarts="[C:1]([O:2][C:3]1([H:10])[C:4]([H:11])([H:12])[C:5]([H:13])([H:14])[C:6]1([H:15])[H:16])([H:7])([H:8])[H:9]>>[C:1]([O+:2]=[C-:3][C:6]([C:5]([C:4]([H:10])([H:11])[H:12])([H:13])[H:14])([H:15])[H:16])([H:7])([H:8])[H:9]"
C        2.55443976      -0.26931054       0.06662792
O        1.27795570      -0.64345165       0.55701562
C        0.27149601      -0.48099165      -0.30746593
C       -0.89246050       1.24530810       0.00219578
C       -1.93173464       0.16172261      -0.21290268
C       -1.04565411      -1.00890789       0.20728388
H        2.62641948       0.82074948       0.00192264
H        2.72758577      -0.70486535      -0.91919451
H        3.29156980      -0.63857636       0.77764349
H        0.11653474       0.63014998      -0.83207961
H       -0.64825882       1.42974103       1.04717517
H       -0.98671627       2.17661508      -0.55660069
H       -2.17693507       0.08652134      -1.27530284
H       -2.86512510       0.26743452       0.34121681
H       -1.02576482      -1.08007281       1.30154884
H       -1.29335194      -1.99206589      -0.19908390
16
Frame=3 idx=006202 GeodesicLength=0.17329797137999947 rxn_smarts="[C:1]([O:2][C:3]1([H:10])[C:4]([H:11])([H:12])[C:5]([H:13])([H:14])[C:6]1([H:15])[H:16])([H:7])([H:8])[H:9]>>[C:1]([O+:2]=[C-:3][C:6]([C:5]([C:4]([H:10])([H:11])[H:12])([H:13])[H:14])([H:15])[H:16])([H:7])([H:8])[H:9]"
C        2.55836394      -0.27377599       0.07117964
O        1.28090607      -0.64964098       0.55723755
C        0.27261431      -0.47618790      -0.30332212
C       -0.89322330       1.24711659      -0.00737533
C       -1.93295768       0.15978176      -0.21032789
C       -1.04305398      -1.00822894       0.21087614
H        2.63859840       0.81695989       0.03501236
H        2.72450100      -0.68562318      -0.92610952
H        3.29522692      -0.66788769       0.76907692
H        0.11424275       0.64223781      -0.85300085
H       -0.65584742       1.44442676       1.03717970
H       -1.00299274       2.17672718      -0.56623233
H       -2.18494458       0.07793127      -1.27053692
H       -2.86185185       0.26727349       0.35075998
H       -1.02251761      -1.08035151       1.30489672
H       -1.28706423      -1.99075856      -0.19931406
16
Frame=4 idx=006202 GeodesicLength=0.23098011238168012 rxn_smarts="[C:1]([O:2][C:3]1([H:10])[C:4]([H:11])([H:12])[C:5]([H:13])([H:14])[C:6]1([H:15])[H:16])([H:7])([H:8])[H:9]>>[C:1]([O+:2]=[C-:3][C:6]([C:5]([C:4]([H:10])([H:11])[H:12])([H:13])[H:14])([H:15])[H:16])([H:7])([H:8])[H:9]"
C        2.56221114      -0.27814775       0.07580324
O        1.28387719      -0.65628682       0.55732750
C        0.27374452      -0.47149476      -0.29908652
C       -0.89381395       1.24883979      -0.01702754
C       -1.93408309       0.15792066      -0.20768818
C       -1.04049249      -1.00756860       0.21451989
H        2.65045622       0.81247439       0.06844770
H        2.72159477      -0.66562328      -0.93243090
H        3.29869094      -0.69666444       0.75982171
H        0.11167974       0.65420636      -0.87427735
H       -0.66336064       1.45904711       1.02693229
H       -1.01900391       2.17658356      -0.57584483
H       -2.19288130       0.06940529      -1.26561340
H       -2.85839903       0.26738874       0.36033942
H       -1.01930087      -1.08067198       1.30829728
H       -1.28091925      -1.98940827      -0.19952029
16
Frame=5 idx=006202 GeodesicLength=0.2886228562409054 rxn_smarts="[C:1]([O:2][C:3]1([H:10])[C:4]([H:11])([H:12])[C:5]([H:13])([H:14])[C:6]1([H:15])[H:16])([H:7])([H:8])[H:9]>>[C:1]([O+:2]=[C-:3][C:6]([C:5]([C:4]([H:10])([H:11])[H:12])([H:13])[H:14])([H:15])[H:16])([H:7])([H:8])[H:9]"
C        2.56599910      -0.28244555       0.08050701
O        1.28687387      -0.66336152       0.55728473
C        0.27489411      -0.46688303      -0.29474072
C       -0.89426345       1.25048164      -0.02678600
C       -1.93512088       0.15612819      -0.20498554
C       -1.03795811      -1.00690801       0.21823103
H        2.66207703       0.80725528       0.10236212
H        2.71882519      -0.64476715      -0.93818119
H        3.30199491      -0.72504740       0.74979928
H        0.10883363       0.66608312      -0.89590792
H       -0.67082508       1.47363183       1.01639005
H       -1.03480544       2.17616262      -0.58548814
H       -2.20075429       0.06090517      -1.26052248
H       -2.85477873       0.26776261       0.36994831
H       -1.01610595      -1.08099551       1.31175947
H       -1.27488589      -1.98800230      -0.19967002
16
Frame=6 idx=006202 GeodesicLength=0.34625942505982216 rxn_smarts="[C:1]([O:2][C:3]1([H:10])[C:4]([H:11])([H:12])[C:5]([H:13])([H:14])[C:6]1([H:15])[H:16])([H:7])([H:8])[H:9]>>[C:1]([O+:2]=[C-:3][C:6]([C:5]([C:4]([H:10])([H:11])[H:12])([H:13])[H:14])([H:15])[H:16])([H:7])([H:8])[H:9]"
C        2.56970709      -0.28663122       0.08533111
O        1.28988733      -0.67098054       0.55704495
C        0.27604730      -0.46241940      -0.29030908
C       -0.89452595       1.25202293      -0.03674117
C       -1.93606264       0.15440774      -0.20220081
C       -1.03546313      -1.00625602       0.22205015
H        2.67340727       0.80129172       0.13717657
H        2.71616902      -0.62264043      -0.94340228
H        3.30513980      -0.75321121       0.73883401
H        0.10567766       0.67778203      -0.91800332
H       -0.67813634       1.48820977       1.00544164
H       -1.05035935       2.17542740      -0.59529734
H       -2.20861355       0.05238832      -1.25522978
H       -2.85094314       0.26845742       0.37964827
H       -1.01291040      -1.08128562       1.31533302
H       -1.26902098      -1.98656289      -0.19967593
16
Frame=7 idx=006202 GeodesicLength=0.4040953165446365 rxn_smarts="[C:1]([O:2][C:3]1([H:10])[C:4]([H:11])([H:12])[C:5]([H:13])([H:14])[C:6]1([H:15])[H:16])([H:7])([H:8])[H:9]>>[C:1]([O+:2]=[C-:3][C:6]([C:5]([C:4]([H:10])([H:11])[H:12])([H:13])[H:14])([H:15])[H:16])([H:7])([H:8])[H:9]"
C        2.57335192      -0.29075275       0.09025005
O        1.29293038      -0.67908761       0.55667776
C        0.27722466      -0.45807740      -0.28578245
C       -0.89464438       1.25354286      -0.04681412
C       -1.93691272       0.15276630      -0.19935625
C       -1.03298629      -1.00566643       0.22595044
H        2.68446392       0.79460911       0.17247112
H        2.71362998      -0.59968356      -0.94804342
H        3.30815841      -0.78094612       0.72713946
H        0.10219719       0.68943257      -0.94054151
H       -0.68536851       1.50282554       0.99423489
H       -1.06571778       2.17453304      -0.60517599
H       -2.21642759       0.04390318      -1.24982430
H       -2.84692122       0.26943494       0.38941407
H       -1.00971134      -1.08165163       1.31904453
H       -1.26326664      -1.98518202      -0.19964429
16
Frame=8 idx=006202 GeodesicLength=0.461508489689687 rxn_smarts="[C:1]([O:2][C:3]1([H:10])[C:4]([H:11])([H:12])[C:5]([H:13])([H:14])[C:6]1([H:15])[H:16])([H:7])([H:8])[H:9]>>[C:1]([O+:2]=[C-:3][C:6]([C:5]([C:4]([H:10])([H:11])[H:12])([H:13])[H:14])([H:15])[H:16])([H:7])([H:8])[H:9]"
C        2.57685963      -0.29465802       0.09535459
O        1.29597324      -0.68792228       0.55585436
C        0.27837077      -0.45400068      -0.28123086
C       -0.89444251       1.25477846      -0.05719656
C       -1.93764769       0.15121520      -0.19637212
C       -1.03061106      -1.00500193       0.22997568
H        2.69499392       0.78693840       0.20917866
H        2.71119684      -0.57478563      -0.95189327
H        3.31105681      -0.80835204       0.71414890
H        0.09836990       0.70065098      -0.96365538
H       -0.69219356       1.51726085       0.98236097
H       -1.08064005       2.17304798      -0.61529531
H       -2.22429173       0.03539258      -1.24401472
H       -2.84261179       0.27085577       0.39932700
H       -1.00651019      -1.08181996       1.32277626
H       -1.25787250      -1.98359969      -0.19931820
16
Frame=9 idx=006202 GeodesicLength=0.5190709874998919 rxn_smarts="[C:1]([O:2][C:3]1([H:10])[C:4]([H:11])([H:12])[C:5]([H:13])([H:14])[C:6]1([H:15])[H:16])([H:7])([H:8])[H:9]>>[C:1]([O+:2]=[C-:3][C:6]([C:5]([C:4]([H:10])([H:11])[H:12])([H:13])[H:14])([H:15])[H:16])([H:7])([H:8])[H:9]"
C        2.58030401      -0.29848976       0.10058797
O        1.29904297      -0.69728186       0.55481865
C        0.27953727      -0.45006303      -0.27659336
C       -0.89409102       1.25596196      -0.06775856
C       -1.93829082       0.14974206      -0.19331924
C       -1.02825630      -1.00437909       0.23410868
H        2.70525206       0.77836839       0.24661587
H        2.70885271      -0.54876975      -0.95502085
H        3.31386313      -0.83536735       0.70021156
H        0.09416487       0.71178768      -0.98728596
H       -0.69888534       1.53172261       0.97012927
H       -1.09536446       2.17135742      -0.62555035
H       -2.23213790       0.02688674      -1.23804882
H       -2.83809537       0.27258606       0.40931951
H       -1.00328553      -1.08200114       1.32666010
H       -1.25261027      -1.98206095      -0.19887447
16
Frame=10 idx=006202 GeodesicLength=0.5766868643055736 rxn_smarts="[C:1]([O:2][C:3]1([H:10])[C:4]([H:11])([H:12])[C:5]([H:13])([H:14])[C:6]1([H:15])[H:16])([H:7])([H:8])[H:9]>>[C:1]([O+:2]=[C-:3][C:6]([C:5]([C:4]([H:10])([H:11])[H:12])([H:13])[H:14])([H:15])[H:16])([H:7])([H:8])[H:9]"
C        2.58368705      -0.30224923       0.10595957
O        1.30213939      -0.70714337       0.55353475
C        0.28072476      -0.44624803      -0.27185834
C       -0.89358893       1.25705989      -0.07851313
C       -1.93884079       0.14834307      -0.19019384
C       -1.02592244      -1.00376770       0.23834978
H        2.71526008       0.76879148       0.28480470
H        2.70657406      -0.52158167      -0.95732080
H        3.31658817      -0.86195250       0.68525373
H        0.08955704       0.72283803      -1.01143552
H       -0.70543126       1.54617417       0.95749355
H       -1.10989361       2.16940697      -0.63593507
H       -2.23996974       0.01837870      -1.23188982
H       -2.83336683       0.27462101       0.41937808
H       -1.00003287      -1.08215618       1.33066842
H       -1.24748409      -1.98051464      -0.19829607
16
Frame=11 idx=006202 GeodesicLength=0.6344386136305736 rxn_smarts="[C:1]([O:2][C:3]1([H:10])[C:4]([H:11])([H:12])[C:5]([H:13])([H:14])[C:6]1([H:15])[H:16])([H:7])([H:8])[H:9]>>[C:1]([O+:2]=[C-:3][C:6]([C:5]([C:4]([H:10])([H:11])[H:12])([H:13])[H:14])([H:15])[H:16])([H:7])([H:8])[H:9]"
C        2.58696033      -0.30586576       0.11152016
O        1.30525374      -0.71773113       0.55187057
C        0.28190939      -0.44270574      -0.26710447
C       -0.89283800       1.25804587      -0.08954784
C       -1.93928059       0.14704595      -0.18696016
C       -1.02364450      -1.00321563       0.24273026
H        2.72481320       0.75818642       0.32412038
H        2.70436542      -0.49279454      -0.95874470
H        3.31925686      -0.88807165       0.66913570
H        0.08450817       0.73366012      -1.03627886
H       -0.71163637       1.56062546       0.94435990
H       -1.12410744       2.16718911      -0.64656383
H       -2.24785147       0.00987084      -1.22549360
H       -2.82835558       0.27708663       0.42960650
H       -0.99672852      -1.08229253       1.33485959
H       -1.24262464      -1.97903343      -0.19750961
16
Frame=12 idx=006202 GeodesicLength=0.6919716519697263 rxn_smarts="[C:1]([O:2][C:3]1([H:10])[C:4]([H:11])([H:12])[C:5]([H:13])([H:14])[C:6]1([H:15])[H:16])([H:7])([H:8])[H:9]>>[C:1]([O+:2]=[C-:3][C:6]([C:5]([C:4]([H:10])([H:11])[H:12])([H:13])[H:14])([H:15])[H:16])([H:7])([H:8])[H:9]"
C        2.59050866      -0.30997465       0.11694023
O        1.30844886      -0.72725943       0.55071375
C        0.28332373      -0.43828874      -0.26176238
C       -0.89261735       1.25919839      -0.10019627
C       -1.93971841       0.14567450      -0.18385612
C       -1.02110205      -1.00243933       0.24695709
H        2.73542865       0.74627771       0.36103314
H        2.70219846      -0.46628540      -0.95895914
H        3.32179056      -0.91325815       0.65316655
H        0.07905946       0.74557735      -1.06073405
H       -0.71897796       1.57503339       0.93150051
H       -1.13904235       2.16497167      -0.65647539
H       -2.25533298       0.00144976      -1.21919416
H       -2.82353251       0.27905399       0.43934242
H       -0.99348878      -1.08255683       1.33880922
H       -1.23694597      -1.97717424      -0.19728540
16
Frame=13 idx=006202 GeodesicLength=0.7494362478210194 rxn_smarts="[C:1]([O:2][C:3]1([H:10])[C:4]([H:11])([H:12])[C:5]([H:13])([H:14])[C:6]1([H:15])[H:16])([H:7])([H:8])[H:9]>>[C:1]([O+:2]=[C-:3][C:6]([C:5]([C:4]([H:10])([H:11])[H:12])([H:13])[H:14])([H:15])[H:16])([H:7])([H:8])[H:9]"
C        2.59358985      -0.31334771       0.12288406
O        1.31159469      -0.73905237       0.54815795
C        0.28452343      -0.43512671      -0.25691776
C       -0.89141572       1.25979900      -0.11177635
C       -1.93993890       0.14456052      -0.18037574
C       -1.01891213      -1.00182560       0.25155771
H        2.74420995       0.73317570       0.40231768
H        2.70009434      -0.43446452      -0.95814595
H        3.32435475      -0.93816448       0.63461916
H        0.07303660       0.75598829      -1.08685254
H       -0.72454544       1.58925580       0.91722436
H       -1.15270125       2.16193509      -0.66744752
H       -2.26330840      -0.00704306      -1.21212034
H       -2.81795435       0.28229829       0.44984704
H       -0.99006826      -1.08249585       1.34313889
H       -1.23255918      -1.97549241      -0.19611066
16
Frame=14 idx=006202 GeodesicLength=0.8070139846195951 rxn_smarts="[C:1]([O:2][C:3]1([H:10])[C:4]([H:11])([H:12])[C:5]([H:13])([H:14])[C:6]1([H:15])[H:16])([H:7])([H:8])[H:9]>>[C:1]([O+:2]=[C-:3][C:6]([C:5]([C:4]([H:10])([H:11])[H:12])([H:13])[H:14])([H:15])[H:16])([H:7])([H:8])[H:9]"
C        2.59654653      -0.31657521       0.12907723
O        1.31476155      -0.75160065       0.54505785
C        0.28572248      -0.43226663      -0.25210623
C       -0.88994572       1.26024875      -0.12370185
C       -1.94003930       0.14356213      -0.17675624
C       -1.01676969      -1.00126414       0.25629188
H        2.75248473       0.71871703       0.44476547
H        2.69800534      -0.40092498      -0.95604818
H        3.32691745      -0.96234536       0.61478093
H        0.06644331       0.76616805      -1.11379369
H       -0.72965135       1.60344306       0.90234917
H       -1.16604965       2.15860302      -0.67868943
H       -2.27139937      -0.01551833      -1.20472531
H       -2.81202308       0.28601951       0.46058375
H       -0.98652859      -1.08240342       1.34763350
H       -1.22847466      -1.97386284      -0.19471885
16
Frame=15 idx=006202 GeodesicLength=0.8646188125896511 rxn_smarts="[C:1]([O:2][C:3]1([H:10])[C:4]([H:11])([H:12])[C:5]([H:13])([H:14])[C:6]1([H:15])[H:16])([H:7])([H:8])[H:9]>>[C:1]([O+:2]=[C-:3][C:6]([C:5]([C:4]([H:10])([H:11])[H:12])([H:13])[H:14])([H:15])[H:16])([H:7])([H:8])[H:9]"
C        2.59930029      -0.31954887       0.13560078
O        1.31793689      -0.76517815       0.54113968
C        0.28688487      -0.42989664      -0.24746215
C       -0.88806152       1.26043702      -0.13610289
C       -1.93999058       0.14271840      -0.17292936
C       -1.01472303      -1.00076258       0.26118071
H        2.75994788       0.70272655       0.48887035
H        2.69590914      -0.36504286      -0.95242250
H        3.32951713      -0.98563055       0.59340659
H        0.05921035       0.77587593      -1.14176394
H       -0.73398361       1.61751746       0.88667744
H       -1.17891360       2.15485184      -0.69031671
H       -2.27971108      -0.02395497      -1.19685585
H       -2.80561414       0.29038834       0.47168957
H       -0.98281275      -1.08222625       1.35228845
H       -1.22489625      -1.97227468      -0.19300018
16
Frame=16 idx=006202 GeodesicLength=0.9222253812101776 rxn_smarts="[C:1]([O:2][C:3]1([H:10])[C:4]([H:11])([H:12])[C:5]([H:13])([H:14])[C:6]1([H:15])[H:16])([H:7])([H:8])[H:9]>>[C:1]([O+:2]=[C-:3][C:6]([C:5]([C:4]([H:10])([H:11])[H:12])([H:13])[H:14])([H:15])[H:16])([H:7])([H:8])[H:9]"
C        2.60175366      -0.32215849       0.14253210
O        1.32110892      -0.78006525       0.53610833
C        0.28797065      -0.42823791      -0.24315857
C       -0.88560456       1.26026813      -0.14907806
C       -1.93975649       0.14207880      -0.16882837
C       -1.01282254      -1.00036238       0.26622605
H        2.76621411       0.68505573       0.53492217
H        2.69377555      -0.32638756      -0.94696338
H        3.33222508      -1.00766265       0.57038793
H        0.05125680       0.78489506      -1.17097734
H       -0.73719812       1.63138784       0.87007516
H       -1.19108934       2.15062341      -0.70238582
H       -2.28834540      -0.03228562      -1.18838176
H       -2.79858972       0.29557999       0.48330688
H       -0.97884973      -1.08196629       1.35709958
H       -1.22204885      -1.97076281      -0.19088491
