16
Frame=0 idx=008627 GeodesicLength=0.0 rxn_smarts="[C:1]([C:2]([C:3]([O:4][C:5](=[O:6])[N:7]([H:15])[H:16])([H:13])[H:14])([H:11])[H:12])([H:8])([H:9])[H:10]>>[C:1]1([H:8])([H:9])[C:2]([H:11])([H:12])[C:3]([H:13])([H:14])[O:4][C@:5]1([O:6][H:10])[N:7]([H:15])[H:16]"
C       -1.05937155      -0.34843885      -0.74155957
C       -1.27777418       0.92590291       0.05691251
C       -0.24540858       0.96698624       1.18562499
O        1.02183970       0.62731099       0.59851505
C        1.10286548      -0.58431636       0.09115005
O        0.65001463      -1.67124237       0.69789180
N        2.10957466      -0.73161991      -0.76872101
H       -1.92729399      -1.01741286      -0.68463665
H       -0.87040139      -0.16279860      -1.79898208
H       -0.28668256      -1.44913646       0.18227532
H       -1.14485748       1.82232368      -0.55556255
H       -2.27179766       0.99921785       0.50818940
H       -0.09640493       1.95122677       1.62609297
H       -0.47176140       0.24486941       1.97233593
H        2.26570801      -1.64635975      -1.14812074
H        2.50175131       0.07348724      -1.22140538
16
Frame=1 idx=008627 GeodesicLength=0.10931854810751099 rxn_smarts="[C:1]([C:2]([C:3]([O:4][C:5](=[O:6])[N:7]([H:15])[H:16])([H:13])[H:14])([H:11])[H:12])([H:8])([H:9])[H:10]>>[C:1]1([H:8])([H:9])[C:2]([H:11])([H:12])[C:3]([H:13])([H:14])[O:4][C@:5]1([O:6][H:10])[N:7]([H:15])[H:16]"
C       -1.07366054      -0.35680080      -0.73003222
C       -1.26527036       0.93664379       0.04460001
C       -0.24977999       0.95552832       1.18742291
O        1.02270648       0.62266725       0.61136300
C        1.10862814      -0.58609776       0.08979023
O        0.66908045      -1.68061250       0.68921621
N        2.12473783      -0.71487328      -0.76739121
H       -1.95172955      -1.00831416      -0.63840416
H       -0.91325020      -0.19337792      -1.79588649
H       -0.30260467      -1.47037620       0.17613790
H       -1.09937911       1.81676797      -0.58320069
H       -2.26282375       1.05245603       0.47820569
H       -0.10448291       1.93006775       1.64993709
H       -0.49037242       0.22669514       1.96400326
H        2.30114973      -1.62754834      -1.14311326
H        2.48705087       0.09717470      -1.23264828
16
Frame=2 idx=008627 GeodesicLength=0.21829239352257174 rxn_smarts="[C:1]([C:2]([C:3]([O:4][C:5](=[O:6])[N:7]([H:15])[H:16])([H:13])[H:14])([H:11])[H:12])([H:8])([H:9])[H:10]>>[C:1]1([H:8])([H:9])[C:2]([H:11])([H:12])[C:3]([H:13])([H:14])[O:4][C@:5]1([O:6][H:10])[N:7]([H:15])[H:16]"
C       -1.08819260      -0.36471301      -0.71852012
C       -1.25260010       0.94663858       0.03240468
C       -0.25413705       0.94437187       1.18871077
O        1.02350754       0.61797752       0.62398814
C        1.11437033      -0.58780618       0.08829086
O        0.68783154      -1.68971681       0.68010212
N        2.13985855      -0.69798176      -0.76578218
H       -1.97523821      -0.99789082      -0.59231766
H       -0.95717893      -0.22261023      -1.79150831
H       -0.31958254      -1.49183459       0.16944587
H       -1.05492797       1.80927272      -0.61022295
H       -2.25170447       1.10394700       0.44834698
H       -0.11314161       1.90918859       1.67226136
H       -0.50840469       0.20929032       1.95535607
H        2.33601286      -1.60808425      -1.13821042
H        2.47352734       0.11995105      -1.24234520
16
Frame=3 idx=008627 GeodesicLength=0.3270132453740356 rxn_smarts="[C:1]([C:2]([C:3]([O:4][C:5](=[O:6])[N:7]([H:15])[H:16])([H:13])[H:14])([H:11])[H:12])([H:8])([H:9])[H:10]>>[C:1]1([H:8])([H:9])[C:2]([H:11])([H:12])[C:3]([H:13])([H:14])[O:4][C@:5]1([O:6][H:10])[N:7]([H:15])[H:16]"
C       -1.10293223      -0.37217032      -0.70706093
C       -1.23980783       0.95587716       0.02034540
C       -0.25844772       0.93351858       1.18950957
O        1.02424484       0.61326249       0.63634311
C        1.12011613      -0.58944684       0.08666265
O        0.70629243      -1.69854364       0.67058460
N        2.15496767      -0.68098635      -0.76386377
H       -1.99775244      -0.98620949      -0.54653743
H       -1.00208155      -0.25037409      -1.78587700
H       -0.33772099      -1.51348610       0.16220745
H       -1.01162743       1.79993056      -0.63662128
H       -2.23861214       1.15357375       0.41871124
H       -0.12230715       1.88863366       1.69310243
H       -0.52580960       0.19264550       1.94645885
H        2.37038014      -1.58807913      -1.13326623
H        2.46109787       0.14185428      -1.25069866
16
Frame=4 idx=008627 GeodesicLength=0.4355341600560187 rxn_smarts="[C:1]([C:2]([C:3]([O:4][C:5](=[O:6])[N:7]([H:15])[H:16])([H:13])[H:14])([H:11])[H:12])([H:8])([H:9])[H:10]>>[C:1]1([H:8])([H:9])[C:2]([H:11])([H:12])[C:3]([H:13])([H:14])[O:4][C@:5]1([O:6][H:10])[N:7]([H:15])[H:16]"
C       -1.11785025      -0.37918157      -0.69568342
C       -1.22694772       0.96434523       0.00844181
C       -0.26268340       0.92296855       1.18983768
O        1.02491912       0.60855388       0.64837013
C        1.12589305      -0.59101466       0.08490596
O        0.72449747      -1.70707704       0.66069982
N        2.17009350      -0.66392409      -0.76162021
H       -2.01921797      -0.97334846      -0.50120009
H       -1.04785458      -0.27657068      -1.77901484
H       -0.35712574      -1.53531265       0.15444864
H       -0.96961376       1.78882505      -0.66239350
H       -2.22371484       1.20125149       0.38937810
H       -0.13191300       1.86844707       1.71249177
H       -0.54253816       0.17674823       1.93737325
H        2.40426684      -1.56761991      -1.12822023
H        2.44978943       0.16290955      -1.25781486
16
Frame=5 idx=008627 GeodesicLength=0.5440512867384624 rxn_smarts="[C:1]([C:2]([C:3]([O:4][C:5](=[O:6])[N:7]([H:15])[H:16])([H:13])[H:14])([H:11])[H:12])([H:8])([H:9])[H:10]>>[C:1]1([H:8])([H:9])[C:2]([H:11])([H:12])[C:3]([H:13])([H:14])[O:4][C@:5]1([O:6][H:10])[N:7]([H:15])[H:16]"
C       -1.13289442      -0.38577392      -0.68440935
C       -1.21404737       0.97203710      -0.00328911
C       -0.26682057       0.91269882       1.18973418
O        1.02554199       0.60387563       0.66005766
C        1.13175021      -0.59250897       0.08305218
O        0.74250964      -1.71533919       0.65050091
N        2.18528316      -0.64679965      -0.75902760
H       -2.03963556      -0.95938097      -0.45642750
H       -1.09432845      -0.30116234      -1.77097007
H       -0.37796082      -1.55730479       0.14625361
H       -0.92892703       1.77603008      -0.68755660
H       -2.20716704       1.24701612       0.36036139
H       -0.14191471       1.84862707       1.73050350
H       -0.55856982       0.16154680       1.92815520
H        2.43774155      -1.54674268      -1.12300378
H        2.43943923       0.18318090      -1.26393464
16
Frame=6 idx=008627 GeodesicLength=0.652535409059068 rxn_smarts="[C:1]([C:2]([C:3]([O:4][C:5](=[O:6])[N:7]([H:15])[H:16])([H:13])[H:14])([H:11])[H:12])([H:8])([H:9])[H:10]>>[C:1]1([H:8])([H:9])[C:2]([H:11])([H:12])[C:3]([H:13])([H:14])[O:4][C@:5]1([O:6][H:10])[N:7]([H:15])[H:16]"
C       -1.14805547      -0.39195620      -0.67325524
C       -1.20115343       0.97895783      -0.01484348
C       -0.27083762       0.90270684       1.18921332
O        1.02611438       0.59925803       0.67134761
C        1.13770181      -0.59392185       0.08108453
O        0.76038769      -1.72328918       0.64002689
N        2.20054431      -0.62964030      -0.75609404
H       -2.05896145      -0.94440407      -0.41233920
H       -1.14142824      -0.32407864      -1.76176141
H       -0.40032303      -1.57944340       0.13763963
H       -0.88965909       1.76165750      -0.71211216
H       -2.18913885       1.29077868       0.33174571
H       -0.15224124       1.82920600       1.74717550
H       -0.57387663       0.14701896       1.91885014
H        2.47081965      -1.52553018      -1.11755770
H        2.43010722       0.20267996      -1.26912011
16
Frame=7 idx=008627 GeodesicLength=0.7610958470250937 rxn_smarts="[C:1]([C:2]([C:3]([O:4][C:5](=[O:6])[N:7]([H:15])[H:16])([H:13])[H:14])([H:11])[H:12])([H:8])([H:9])[H:10]>>[C:1]1([H:8])([H:9])[C:2]([H:11])([H:12])[C:3]([H:13])([H:14])[O:4][C@:5]1([O:6][H:10])[N:7]([H:15])[H:16]"
C       -1.16330832      -0.39774423      -0.66224055
C       -1.18829801       0.98511606      -0.02621627
C       -0.27471612       0.89297172       1.18830171
O        1.02664360       0.59472525       0.68220870
C        1.14377242      -0.59525267       0.07900536
O        0.77823345      -1.73090926       0.62934563
N        2.21589121      -0.61245404      -0.75282811
H       -2.07720216      -0.92850025      -0.36905088
H       -1.18902297      -0.34528627      -1.75142459
H       -0.42435624      -1.60171846       0.12866415
H       -0.85184710       1.74581406      -0.73606654
H       -2.16979287       1.33253831       0.30357239
H       -0.16283670       1.81018201       1.76257361
H       -0.58844684       0.13311246       1.90949649
H        2.50356247      -1.50403059      -1.11180919
H        2.42172418       0.22143589      -1.27353191
16
Frame=8 idx=008627 GeodesicLength=0.8697370935867297 rxn_smarts="[C:1]([C:2]([C:3]([O:4][C:5](=[O:6])[N:7]([H:15])[H:16])([H:13])[H:14])([H:11])[H:12])([H:8])([H:9])[H:10]>>[C:1]1([H:8])([H:9])[C:2]([H:11])([H:12])[C:3]([H:13])([H:14])[O:4][C@:5]1([O:6][H:10])[N:7]([H:15])[H:16]"
C       -1.17862891      -0.40316754      -0.65136786
C       -1.17551139       0.99051441      -0.03740441
C       -0.27843942       0.88347447       1.18702435
O        1.02714031       0.59030778       0.69261301
C        1.14999539      -0.59649018       0.07681676
O        0.79612429      -1.73818076       0.61850374
N        2.23134290      -0.59524262      -0.74924002
H       -2.09436637      -0.91175518      -0.32664839
H       -1.23699845      -0.36477084      -1.73998444
H       -0.45021175      -1.62412355       0.11939175
H       -0.81552734       1.72858249      -0.75943803
H       -2.14926610       1.37230609       0.27585712
H       -0.17365679       1.79155415       1.77675401
H       -0.60226792       0.11977826       1.90013061
H        2.53597598      -1.48227291      -1.10575750
H        2.41429556       0.23948593      -1.27725070
16
Frame=9 idx=008627 GeodesicLength=0.9788489237537827 rxn_smarts="[C:1]([C:2]([C:3]([O:4][C:5](=[O:6])[N:7]([H:15])[H:16])([H:13])[H:14])([H:11])[H:12])([H:8])([H:9])[H:10]>>[C:1]1([H:8])([H:9])[C:2]([H:11])([H:12])[C:3]([H:13])([H:14])[O:4][C@:5]1([O:6][H:10])[N:7]([H:15])[H:16]"
C       -1.19397452      -0.40828674      -0.64062746
C       -1.16277833       0.99515582      -0.04840689
C       -0.28199563       0.87415980       1.18542841
O        1.02762679       0.58600703       0.70259646
C        1.15642895      -0.59763222       0.07454745
O        0.81419850      -1.74516577       0.60762008
N        2.24692813      -0.57794108      -0.74536975
H       -2.11058334      -0.89418376      -0.28521836
H       -1.28513095      -0.38258035      -1.72752543
H       -0.47821891      -1.64668324       0.11001224
H       -0.78061116       1.70997667      -0.78227243
H       -2.12760564       1.41021644       0.24854017
H       -0.18468452       1.77326957       1.78981171
H       -0.61535870       0.10692779       1.89078534
H        2.56818709      -1.46020139      -1.09941150
H        2.40757225       0.25696144      -1.28051004
16
Frame=10 idx=008627 GeodesicLength=1.088039752502605 rxn_smarts="[C:1]([C:2]([C:3]([O:4][C:5](=[O:6])[N:7]([H:15])[H:16])([H:13])[H:14])([H:11])[H:12])([H:8])([H:9])[H:10]>>[C:1]1([H:8])([H:9])[C:2]([H:11])([H:12])[C:3]([H:13])([H:14])[O:4][C@:5]1([O:6][H:10])[N:7]([H:15])[H:16]"
C       -1.20934442      -0.41310383      -0.63002691
C       -1.15014454       0.99904995      -0.05922989
C       -0.28537068       0.86502524       1.18352010
O        1.02810796       0.58185915       0.71210306
C        1.16307741      -0.59866907       0.07217461
O        0.83252603      -1.75178296       0.59670483
N        2.26264283      -0.56058106      -0.74121833
H       -2.12580435      -0.87590347      -0.24484129
H       -1.33338949      -0.39866227      -1.71404272
H       -0.50842240      -1.66936418       0.10052518
H       -0.74718536       1.69012033      -0.80457041
H       -2.10497367       1.44619239       0.22168138
H       -0.19585956       1.75534474       1.80177876
H       -0.62770060       0.09452781       1.88148127
H        2.60014041      -1.43787855      -1.09274399
H        2.40170044       0.27382578      -1.28329566
16
Frame=11 idx=008627 GeodesicLength=1.197319588303101 rxn_smarts="[C:1]([C:2]([C:3]([O:4][C:5](=[O:6])[N:7]([H:15])[H:16])([H:13])[H:14])([H:11])[H:12])([H:8])([H:9])[H:10]>>[C:1]1([H:8])([H:9])[C:2]([H:11])([H:12])[C:3]([H:13])([H:14])[O:4][C@:5]1([O:6][H:10])[N:7]([H:15])[H:16]"
C       -1.22472568      -0.41764945      -0.61956765
C       -1.13761533       1.00220919      -0.06988181
C       -0.28855755       0.85603213       1.18132163
O        1.02859736       0.57788323       0.72112153
C        1.16996814      -0.59959403       0.06969604
O        0.85124118      -1.75801206       0.58583701
N        2.27847349      -0.54313547      -0.73683617
H       -2.14010245      -0.85697288      -0.20558312
H       -1.38161060      -0.41306724      -1.69957307
H       -0.54104272      -1.69217986       0.09103404
H       -0.71520250       1.66911213      -0.82633654
H       -2.08147729       1.48029931       0.19527596
H       -0.20715183       1.73773849       1.81272711
H       -0.63930280       0.08250556       1.87222630
H        2.63189440      -1.41530193      -1.08574120
H        2.39661416       0.29013289      -1.28572007
16
Frame=12 idx=008627 GeodesicLength=1.3066012784480017 rxn_smarts="[C:1]([C:2]([C:3]([O:4][C:5](=[O:6])[N:7]([H:15])[H:16])([H:13])[H:14])([H:11])[H:12])([H:8])([H:9])[H:10]>>[C:1]1([H:8])([H:9])[C:2]([H:11])([H:12])[C:3]([H:13])([H:14])[O:4][C@:5]1([O:6][H:10])[N:7]([H:15])[H:16]"
C       -1.24009808      -0.42196253      -0.60923870
C       -1.12519319       1.00463995      -0.08037447
C       -0.29154710       0.84714906       1.17885082
O        1.02911201       0.57409738       0.72965168
C        1.17713747      -0.60039116       0.06710546
O        0.87046354      -1.76384216       0.57507661
N        2.29442871      -0.52557803      -0.73225060
H       -2.15355750      -0.83743918      -0.16749551
H       -1.42965132      -0.42584651      -1.68416255
H       -0.57631275      -1.71512905       0.08165813
H       -0.68462771       1.64700754      -0.84759116
H       -2.05719953       1.51257310       0.16931201
H       -0.21853792       1.72042053       1.82271177
H       -0.65016744       0.07079722       1.86303029
H        2.66342399      -1.39244736      -1.07845853
H        2.39232682       0.30595120      -1.28782526
16
Frame=13 idx=008627 GeodesicLength=1.415885040520205 rxn_smarts="[C:1]([C:2]([C:3]([O:4][C:5](=[O:6])[N:7]([H:15])[H:16])([H:13])[H:14])([H:11])[H:12])([H:8])([H:9])[H:10]>>[C:1]1([H:8])([H:9])[C:2]([H:11])([H:12])[C:3]([H:13])([H:14])[O:4][C@:5]1([O:6][H:10])[N:7]([H:15])[H:16]"
C       -1.25543724      -0.42608225      -0.59903207
C       -1.11286298       1.00634492      -0.09072056
C       -0.29433238       0.83833007       1.17613257
O        1.02967138       0.57050686       0.73770851
C        1.18462033      -0.60106039       0.06441973
O        0.89034971      -1.76925485       0.56454018
N        2.31050028      -0.50786324      -0.72750948
H       -2.16624903      -0.81732326      -0.13065130
H       -1.47732657      -0.43704662      -1.66786266
H       -0.61452629      -1.73821571       0.07252270
H       -0.65538898       1.62386889      -0.86834490
H       -2.03219810       1.54306801       0.14375929
H       -0.22999976       1.70333795       1.83180024
H       -0.66031083       0.05932418       1.85389808
H        2.69478274      -1.36928268      -1.07092884
H        2.38870770       0.32134811      -1.28973148
16
Frame=14 idx=008627 GeodesicLength=1.5250215780519338 rxn_smarts="[C:1]([C:2]([C:3]([O:4][C:5](=[O:6])[N:7]([H:15])[H:16])([H:13])[H:14])([H:11])[H:12])([H:8])([H:9])[H:10]>>[C:1]1([H:8])([H:9])[C:2]([H:11])([H:12])[C:3]([H:13])([H:14])[O:4][C@:5]1([O:6][H:10])[N:7]([H:15])[H:16]"
C       -1.27071215      -0.43005248      -0.58894003
C       -1.10059890       1.00731926      -0.10093761
C       -0.29690829       0.82952828       1.17319134
O        1.03029828       0.56711226       0.74532588
C        1.19246179      -0.60159911       0.06166100
O        0.91103718      -1.77425530       0.55430922
N        2.32668266      -0.48993764      -0.72265552
H       -2.17826809      -0.79663094      -0.09509140
H       -1.52446594      -0.44673495      -1.65074483
H       -0.65597408      -1.76144285       0.06379059
H       -0.62741210       1.59972138      -0.88862240
H       -2.00649478       1.57184742       0.11856517
H       -0.24152933       1.68644137       1.84005266
H       -0.66975076       0.04800914       1.84483315
H        2.72596061      -1.34573683      -1.06323759
H        2.38567388       0.33641099      -1.29149963
16
Frame=15 idx=008627 GeodesicLength=1.6338880696623894 rxn_smarts="[C:1]([C:2]([C:3]([O:4][C:5](=[O:6])[N:7]([H:15])[H:16])([H:13])[H:14])([H:11])[H:12])([H:8])([H:9])[H:10]>>[C:1]1([H:8])([H:9])[C:2]([H:11])([H:12])[C:3]([H:13])([H:14])[O:4][C@:5]1([O:6][H:10])[N:7]([H:15])[H:16]"
C       -1.28589182      -0.43391817      -0.57894385
C       -1.08835890       1.00755373      -0.11103906
C       -0.29926926       0.82068900       1.17006024
O        1.03101819       0.56390042       0.75255993
C        1.20070971      -0.60200912       0.05886466
O        0.93266536      -1.77886182       0.54449995
N        2.34297049      -0.47172541      -0.71773863
H       -2.18970851      -0.77534331      -0.06087260
H       -1.57087777      -0.45499014      -1.63289156
H       -0.70101265      -1.78480243       0.05563759
H       -0.60058569       1.57456711      -0.90845443
H       -1.98006562       1.59897023       0.09365463
H       -0.25312652       1.66967013       1.84753645
H       -0.67851254       0.03676852       1.83584050
H        2.75699269      -1.32172067      -1.05548742
H        2.38305284       0.35125195      -1.29322638
16
Frame=16 idx=008627 GeodesicLength=1.742394848351577 rxn_smarts="[C:1]([C:2]([C:3]([O:4][C:5](=[O:6])[N:7]([H:15])[H:16])([H:13])[H:14])([H:11])[H:12])([H:8])([H:9])[H:10]>>[C:1]1([H:8])([H:9])[C:2]([H:11])([H:12])[C:3]([H:13])([H:14])[O:4][C@:5]1([O:6][H:10])[N:7]([H:15])[H:16]"
C       -1.30094159      -0.43773355      -0.56901894
C       -1.07609490       1.00702734      -0.12104259
C       -0.30140680       0.81175505       1.16676850
O        1.03185815       0.56085739       0.75946613
C        1.20941801      -0.60229155       0.05606751
O        0.95541893      -1.78308857       0.53526351
N        2.35934793      -0.45314078      -0.71281900
H       -2.20067738      -0.75342079      -0.02804514
H       -1.61637418      -0.46184896      -1.61441195
H       -0.75005621      -1.80827562       0.04823562
H       -0.57480765       1.54837823      -0.92787164
H       -1.95288101       1.62445851       0.06895677
H       -0.26479338       1.65296232       1.85430707
H       -0.68661435       0.02551804       1.82692528
H        2.78789961      -1.29712488      -1.04780274
H        2.38070483       0.36596781      -1.29497838
