14
Frame=0 idx=002964 GeodesicLength=0.0 rxn_smarts="[C:1]([N:2]([C:3]([H:10])([H:11])[H:12])[C:4]([C:5]#[N:6])([H:13])[H:14])([H:7])([H:8])[H:9]>>[C:1]([N+:2]([C-:3]([H:10])[H:12])=[C:4]([C:5]#[N:6])[H:13])([H:7])([H:8])[H:9].[H:11][H:14]"
C       -0.79584617       1.48636999      -0.16741231
N       -0.00317293       0.35937340       0.30412889
C       -0.66383654      -0.61797691       0.94978861
C        0.98195292      -0.05239061      -0.55479778
C        1.94800798      -0.98390406      -0.07098738
N        2.70696806      -1.75915346       0.31378401
H       -1.38064796       1.18484096      -1.04286684
H       -0.13719205       2.30994519      -0.43471993
H       -1.46737958       1.81130343       0.62349514
H       -0.07298240      -1.41112810       1.38886608
H       -0.77434412      -1.44174360      -0.46187109
H       -1.57453863      -0.33895607       1.46388924
H        1.35568148       0.69142871      -1.24635770
H       -0.12267001      -1.23800888      -1.06493890
14
Frame=1 idx=002964 GeodesicLength=0.06835823203090986 rxn_smarts="[C:1]([N:2]([C:3]([H:10])([H:11])[H:12])[C:4]([C:5]#[N:6])([H:13])[H:14])([H:7])([H:8])[H:9]>>[C:1]([N+:2]([C-:3]([H:10])[H:12])=[C:4]([C:5]#[N:6])[H:13])([H:7])([H:8])[H:9].[H:11][H:14]"
C       -0.78903825       1.49520071      -0.15607582
N       -0.01734942       0.34525070       0.28590241
C       -0.68116234      -0.63368726       0.92940455
C        0.97774399      -0.06139728      -0.56587384
C        1.95655333      -0.96650278      -0.05491785
N        2.71984284      -1.72673875       0.35092788
H       -1.44058956       1.20440802      -0.98619023
H       -0.12959021       2.29645889      -0.48252118
H       -1.39016985       1.85971334       0.67392213
H       -0.08292498      -1.40849515       1.39212140
H       -0.77048867      -1.47000270      -0.47740084
H       -1.59895553      -0.35746328       1.43215387
H        1.34982315       0.68190077      -1.25876439
H       -0.10369448      -1.25864522      -1.08268808
14
Frame=2 idx=002964 GeodesicLength=0.13651569260236535 rxn_smarts="[C:1]([N:2]([C:3]([H:10])([H:11])[H:12])[C:4]([C:5]#[N:6])([H:13])[H:14])([H:7])([H:8])[H:9]>>[C:1]([N+:2]([C-:3]([H:10])[H:12])=[C:4]([C:5]#[N:6])[H:13])([H:7])([H:8])[H:9].[H:11][H:14]"
C       -0.78196331       1.50353544      -0.14461740
N       -0.03219154       0.33098955       0.26644472
C       -0.69895711      -0.64944337       0.90817038
C        0.97361643      -0.07055079      -0.57712904
C        1.96419195      -0.94817521      -0.03836109
N        2.73129859      -1.69276599       0.38897503
H       -1.49901349       1.22721568      -0.92342886
H       -0.12714643       2.28145898      -0.53117329
H       -1.30632356       1.90385371       0.72081610
H       -0.09418482      -1.40503229       1.39502321
H       -0.76650202      -1.49867305      -0.49315648
H       -1.62324041      -0.37512620       1.39987366
H        1.34426413       0.67244507      -1.27101700
H       -0.08384840      -1.27973153      -1.10041995
14
Frame=3 idx=002964 GeodesicLength=0.20447027839037288 rxn_smarts="[C:1]([N:2]([C:3]([H:10])([H:11])[H:12])[C:4]([C:5]#[N:6])([H:13])[H:14])([H:7])([H:8])[H:9]>>[C:1]([N+:2]([C-:3]([H:10])[H:12])=[C:4]([C:5]#[N:6])[H:13])([H:7])([H:8])[H:9].[H:11][H:14]"
C       -0.77460167       1.51133021      -0.13297793
N       -0.04784286       0.31654329       0.24566288
C       -0.71730080      -0.66528925       0.88603934
C        0.96950740      -0.07983849      -0.58854060
C        1.97082295      -0.92878177      -0.02125588
N        2.74136400      -1.65696602       0.42785024
H       -1.55512093       1.25342659      -0.85427390
H       -0.13004533       2.26487695      -0.58025099
H       -1.21592947       1.94364754       0.76342977
H       -0.10685702      -1.40071101       1.39750943
H       -0.76233975      -1.52787543      -0.50909257
H       -1.64747107      -0.39207126       1.36709416
H        1.33886040       0.66306336      -1.28314757
H       -0.06304586      -1.30135472      -1.11804638
14
Frame=4 idx=002964 GeodesicLength=0.27220333570427024 rxn_smarts="[C:1]([N:2]([C:3]([H:10])([H:11])[H:12])[C:4]([C:5]#[N:6])([H:13])[H:14])([H:7])([H:8])[H:9]>>[C:1]([N+:2]([C-:3]([H:10])[H:12])=[C:4]([C:5]#[N:6])[H:13])([H:7])([H:8])[H:9].[H:11][H:14]"
C       -0.76684239       1.51862659      -0.12118643
N       -0.06431593       0.30197246       0.22336808
C       -0.73611578      -0.68115957       0.86294643
C        0.96544355      -0.08920822      -0.60018661
C        1.97639821      -0.90819436      -0.00364582
N        2.74955381      -1.61939804       0.46783793
H       -1.60820208       1.28292513      -0.77809349
H       -0.13877679       2.24697668      -0.62948452
H       -1.11909685       1.97852671       0.80111782
H       -0.12087591      -1.39536961       1.39951188
H       -0.75795838      -1.55759593      -0.52518070
H       -1.67167807      -0.40840154       1.33368677
H        1.33363471       0.65384900      -1.29519826
H       -0.04116810      -1.32354930      -1.13549309
14
Frame=5 idx=002964 GeodesicLength=0.33978882843193053 rxn_smarts="[C:1]([N:2]([C:3]([H:10])([H:11])[H:12])[C:4]([C:5]#[N:6])([H:13])[H:14])([H:7])([H:8])[H:9]>>[C:1]([N+:2]([C-:3]([H:10])[H:12])=[C:4]([C:5]#[N:6])[H:13])([H:7])([H:8])[H:9].[H:11][H:14]"
C       -0.75867062       1.52535404      -0.10911097
N       -0.08176009       0.28725562       0.19953944
C       -0.75550646      -0.69709485       0.83888350
C        0.96133652      -0.09861990      -0.61199574
C        1.98078533      -0.88623670       0.01453248
N        2.75596321      -1.57974968       0.50870927
H       -1.65711662       1.31575434      -0.69462311
H       -0.15345991       2.22762146      -0.67825581
H       -1.01605042       2.00854837       0.83296047
H       -0.13639335      -1.38899544       1.40098973
H       -0.75325871      -1.58799309      -0.54129241
H       -1.69609210      -0.42431091       1.29951824
H        1.32836871       0.64480287      -1.30721697
H       -0.01814548      -1.34633615      -1.15263811
14
Frame=6 idx=002964 GeodesicLength=0.4072697482474895 rxn_smarts="[C:1]([N:2]([C:3]([H:10])([H:11])[H:12])[C:4]([C:5]#[N:6])([H:13])[H:14])([H:7])([H:8])[H:9]>>[C:1]([N+:2]([C-:3]([H:10])[H:12])=[C:4]([C:5]#[N:6])[H:13])([H:7])([H:8])[H:9].[H:11][H:14]"
C       -0.74994896       1.53152206      -0.09670513
N       -0.10015981       0.27248902       0.17409403
C       -0.77541532      -0.71299534       0.81384290
C        0.95717669      -0.10801156      -0.62399226
C        1.98387856      -0.86280254       0.03321033
N        2.76024533      -1.53800846       0.55052966
H       -1.70064603       1.35154782      -0.60342158
H       -0.17449007       2.20706029      -0.72599293
H       -0.90725618       2.03323526       0.85812691
H       -0.15340460      -1.38139961       1.40192552
H       -0.74819411      -1.61904833      -0.55729235
H       -1.72086118      -0.43989854       1.26429183
H        1.32300255       0.63598258      -1.31926268
H        0.00607314      -1.36967265      -1.16935425
14
Frame=7 idx=002964 GeodesicLength=0.4748048448031966 rxn_smarts="[C:1]([N:2]([C:3]([H:10])([H:11])[H:12])[C:4]([C:5]#[N:6])([H:13])[H:14])([H:7])([H:8])[H:9]>>[C:1]([N+:2]([C-:3]([H:10])[H:12])=[C:4]([C:5]#[N:6])[H:13])([H:7])([H:8])[H:9].[H:11][H:14]"
C       -0.74057365       1.53705897      -0.08379101
N       -0.11954665       0.25772551       0.14706687
C       -0.79586344      -0.72882397       0.78785535
C        0.95286689      -0.11734645      -0.63615671
C        1.98552947      -0.83777976       0.05228531
N        2.76234715      -1.49384444       0.59320315
H       -1.73727465       1.39001724      -0.50444432
H       -0.20190442       2.18534380      -0.77175105
H       -0.79338973       2.05246312       0.87570522
H       -0.17201648      -1.37249670       1.40230846
H       -0.74269529      -1.65084807      -0.57296365
H       -1.74623085      -0.45531565       1.22766530
H        1.31728714       0.62735095      -1.33147589
H        0.03146452      -1.39350454      -1.18550704
14
Frame=8 idx=002964 GeodesicLength=0.5425099597233234 rxn_smarts="[C:1]([N:2]([C:3]([H:10])([H:11])[H:12])[C:4]([C:5]#[N:6])([H:13])[H:14])([H:7])([H:8])[H:9]>>[C:1]([N+:2]([C-:3]([H:10])[H:12])=[C:4]([C:5]#[N:6])[H:13])([H:7])([H:8])[H:9].[H:11][H:14]"
C       -0.73039673       1.54192307      -0.07035658
N       -0.13969168       0.24320060       0.11865771
C       -0.81669272      -0.74435972       0.76106587
C        0.94844201      -0.12652079      -0.64841432
C        1.98565610      -0.81123243       0.07159015
N        2.76196003      -1.44757354       0.63645063
H       -1.76537905       1.43008346      -0.39790498
H       -0.23591166       2.16289376      -0.81460478
H       -0.67589154       2.06593330       0.88482081
H       -0.19219966      -1.36208118       1.40220163
H       -0.73677324      -1.68317503      -0.58803874
H       -1.77229032      -0.47051720       1.18929764
H        1.31123203       0.61898093      -1.34382666
H        0.05793643      -1.41755525      -1.20093840
14
Frame=9 idx=002964 GeodesicLength=0.6106545317878995 rxn_smarts="[C:1]([N:2]([C:3]([H:10])([H:11])[H:12])[C:4]([C:5]#[N:6])([H:13])[H:14])([H:7])([H:8])[H:9]>>[C:1]([N+:2]([C-:3]([H:10])[H:12])=[C:4]([C:5]#[N:6])[H:13])([H:7])([H:8])[H:9].[H:11][H:14]"
C       -0.71935005       1.54599981      -0.05628840
N       -0.16035150       0.22910475       0.08924163
C       -0.83779515      -0.75946133       0.73367553
C        0.94387867      -0.13547161      -0.66066802
C        1.98420496      -0.78332577       0.09085408
N        2.75908872      -1.39923377       0.67995690
H       -1.78337078       1.47070483      -0.28466660
H       -0.27623194       2.13997410      -0.85333323
H       -0.55645123       2.07382785       0.88477871
H       -0.21399760      -1.35012439       1.40167064
H       -0.73047122      -1.71587068      -0.60220967
H       -1.79914495      -0.48546996       1.14888845
H        1.30471652       0.61086050      -1.35635311
H        0.08527556      -1.44151433      -1.21554690
14
Frame=10 idx=002964 GeodesicLength=0.6795667069287195 rxn_smarts="[C:1]([N:2]([C:3]([H:10])([H:11])[H:12])[C:4]([C:5]#[N:6])([H:13])[H:14])([H:7])([H:8])[H:9]>>[C:1]([N+:2]([C-:3]([H:10])[H:12])=[C:4]([C:5]#[N:6])[H:13])([H:7])([H:8])[H:9].[H:11][H:14]"
C       -0.70741521       1.54918892      -0.04162289
N       -0.18112393       0.21569285       0.05932852
C       -0.85899225      -0.77393797       0.70593663
C        0.93927131      -0.14410866      -0.67276516
C        1.98124429      -0.75441533       0.10981798
N        2.75371384      -1.34927612       0.72339502
H       -1.79000783       1.51047631      -0.16586548
H       -0.32265840       2.11692426      -0.88698480
H       -0.43710634       2.07651484       0.87511380
H       -0.23739185      -1.33668697       1.40077025
H       -0.72392036      -1.74857289      -0.61524203
H       -1.82669920      -0.49994676       1.10632995
H        1.29785779       0.60307299      -1.36891238
H        0.11322814      -1.46492547      -1.22929942
14
Frame=11 idx=002964 GeodesicLength=0.749331605727714 rxn_smarts="[C:1]([N:2]([C:3]([H:10])([H:11])[H:12])[C:4]([C:5]#[N:6])([H:13])[H:14])([H:7])([H:8])[H:9]>>[C:1]([N+:2]([C-:3]([H:10])[H:12])=[C:4]([C:5]#[N:6])[H:13])([H:7])([H:8])[H:9].[H:11][H:14]"
C       -0.69480497       1.55144914      -0.02677189
N       -0.20112935       0.20344802       0.03002436
C       -0.87986602      -0.78746061       0.67831645
C        0.93501682      -0.15218929      -0.68421495
C        1.97705601      -0.72531840       0.12835731
N        2.74582097      -1.29954755       0.76597837
H       -1.78460751       1.54688543      -0.04298872
H       -0.37540669       2.09397521      -0.91518216
H       -0.32071542       2.07545786       0.85516886
H       -0.26218401      -1.32205826       1.39956965
H       -0.71749777      -1.78028292      -0.62716590
H       -1.85447501      -0.51349944       1.06193595
H        1.29132979       0.59597747      -1.38075035
H        0.14146314      -1.48683667      -1.24227698
14
Frame=12 idx=002964 GeodesicLength=0.8198590054597732 rxn_smarts="[C:1]([N:2]([C:3]([H:10])([H:11])[H:12])[C:4]([C:5]#[N:6])([H:13])[H:14])([H:7])([H:8])[H:9]>>[C:1]([N+:2]([C-:3]([H:10])[H:12])=[C:4]([C:5]#[N:6])[H:13])([H:7])([H:8])[H:9].[H:11][H:14]"
C       -0.68132641       1.55259013      -0.01121047
N       -0.22067468       0.19203528       0.00105556
C       -0.90063885      -0.80002030       0.65095367
C        0.93049062      -0.16023552      -0.69560152
C        1.97145331      -0.69597575       0.14569963
N        2.73647012      -1.24762016       0.80740260
H       -1.76660833       1.57985978       0.07952443
H       -0.43039516       2.07247177      -0.93484481
H       -0.20991745       2.06972609       0.82756041
H       -0.28848175      -1.30589275       1.39826797
H       -0.71129282      -1.81182449      -0.63711854
H       -1.88244026      -0.52559535       1.01570777
H        1.28392305       0.58855335      -1.39316712
H        0.16943862      -1.50807206      -1.25422959
14
Frame=13 idx=002964 GeodesicLength=0.891089918157324 rxn_smarts="[C:1]([N:2]([C:3]([H:10])([H:11])[H:12])[C:4]([C:5]#[N:6])([H:13])[H:14])([H:7])([H:8])[H:9]>>[C:1]([N+:2]([C-:3]([H:10])[H:12])=[C:4]([C:5]#[N:6])[H:13])([H:7])([H:8])[H:9].[H:11][H:14]"
C       -0.66777062       1.55282119       0.00395342
N       -0.23818296       0.18226576      -0.02552201
C       -0.92061982      -0.81130946       0.62435449
C        0.92690370      -0.16748881      -0.70554670
C        1.96526296      -0.66773143       0.16268935
N        2.72520129      -1.19867136       0.84687341
H       -1.73709887       1.60638643       0.20225585
H       -0.49106425       2.05079906      -0.94883378
H       -0.10635589       2.06357691       0.79005095
H       -0.31591373      -1.28948212       1.39659125
H       -0.70585070      -1.84102157      -0.64626071
H       -1.90950909      -0.53571757       0.96885380
H        1.27777951       0.58213978      -1.40373999
H        0.19721847      -1.52656681      -1.26571933
14
Frame=14 idx=002964 GeodesicLength=0.9628138716349084 rxn_smarts="[C:1]([N:2]([C:3]([H:10])([H:11])[H:12])[C:4]([C:5]#[N:6])([H:13])[H:14])([H:7])([H:8])[H:9]>>[C:1]([N+:2]([C-:3]([H:10])[H:12])=[C:4]([C:5]#[N:6])[H:13])([H:7])([H:8])[H:9].[H:11][H:14]"
C       -0.65415375       1.55228301       0.01884221
N       -0.25392733       0.17382383      -0.05010574
C       -0.94000567      -0.82141922       0.59862436
C        0.92399906      -0.17429913      -0.71452955
C        1.95867638      -0.64063534       0.17893562
N        2.71299983      -1.15165038       0.88430627
H       -1.69696231       1.62651444       0.32167080
H       -0.55440684       2.03011774      -0.95559702
H       -0.01187321       2.05683519       0.74533595
H       -0.34434321      -1.27279328       1.39470615
H       -0.70138786      -1.86851210      -0.65416233
H       -1.93552729      -0.54339740       0.92198660
H        1.27238144       0.57618473      -1.41335997
H        0.22453075      -1.54305209      -1.27665336
14
Frame=15 idx=002964 GeodesicLength=1.0349691539065826 rxn_smarts="[C:1]([N:2]([C:3]([H:10])([H:11])[H:12])[C:4]([C:5]#[N:6])([H:13])[H:14])([H:7])([H:8])[H:9]>>[C:1]([N+:2]([C-:3]([H:10])[H:12])=[C:4]([C:5]#[N:6])[H:13])([H:7])([H:8])[H:9].[H:11][H:14]"
C       -0.64051655       1.55093446       0.03363313
N       -0.26813383       0.16641557      -0.07290583
C       -0.95898654      -0.83049899       0.57360447
C        0.92160699      -0.18087612      -0.72266986
C        1.95167005      -0.61472852       0.19443170
N        2.70027280      -1.10547365       0.92009515
H       -1.64714649       1.64050100       0.43655618
H       -0.61905128       2.01033609      -0.95486448
H        0.07358823       2.04988123       0.69463472
H       -0.37378633      -1.25610260       1.39234395
H       -0.69808699      -1.89451180      -0.66103101
H       -1.96030896      -0.54839112       0.87548943
H        1.26752559       0.57039128      -1.42217826
H        0.25135330      -1.55787684      -1.28713929
14
Frame=16 idx=002964 GeodesicLength=1.107373888317152 rxn_smarts="[C:1]([N:2]([C:3]([H:10])([H:11])[H:12])[C:4]([C:5]#[N:6])([H:13])[H:14])([H:7])([H:8])[H:9]>>[C:1]([N+:2]([C-:3]([H:10])[H:12])=[C:4]([C:5]#[N:6])[H:13])([H:7])([H:8])[H:9].[H:11][H:14]"
C       -0.62702913       1.54897810       0.04811111
N       -0.28077894       0.16001070      -0.09402767
C       -0.97750007      -0.83854571       0.54930825
C        0.91990900      -0.18718908      -0.72992037
C        1.94448801      -0.59010245       0.20939104
N        2.68698586      -1.06097562       0.95433659
H       -1.58878041       1.64808891       0.54610136
H       -0.68472643       1.99141325      -0.94709479
H        0.14966383       2.04363856       0.63873938
H       -0.40397052      -1.23952953       1.38947472
H       -0.69606072      -1.91896168      -0.66706245
H       -1.98358370      -0.55056070       0.82998835
H        1.26354890       0.56481405      -1.43007781
H        0.27783431      -1.57107880      -1.29726772
