16
Frame=0 idx=004280 GeodesicLength=0.0 rxn_smarts="[C:1]([C@@:2]1([H:10])[C:3]([H:11])([H:12])[O:4][C@:5]1([C:6]([H:14])([H:15])[H:16])[H:13])([H:7])([H:8])[H:9]>>[C:1]([C:2](=[C:3]([H:11])[H:12])[H:10])([H:7])([H:8])[H:9].[O:4]=[C:5]([C:6]([H:14])([H:15])[H:16])[H:13]"
C       -1.56804287       0.63484139      -0.39629430
C       -0.79190068      -0.16354511       0.61461377
C       -0.59227719      -1.53026479       0.42976767
O        1.14304984      -1.39893318      -0.61210829
C        1.08186954      -0.36227006       0.17576860
C        1.54940524       0.96208373      -0.36239475
H       -1.32949579       1.69779953      -0.33058030
H       -2.64781196       0.53352459      -0.25362699
H       -1.33515842       0.30399420      -1.41113055
H       -0.74695371       0.21837869       1.62785534
H       -0.97813973      -2.05126199      -0.43562890
H       -0.25262007      -2.16000125       1.24213539
H        1.38328732      -0.49709836       1.22908582
H        2.62033219       0.84296716      -0.55613182
H        1.40297593       1.77760718       0.34768351
H        1.06148039       1.19217824      -1.30901425
16
Frame=1 idx=004280 GeodesicLength=0.06014714977519004 rxn_smarts="[C:1]([C@@:2]1([H:10])[C:3]([H:11])([H:12])[O:4][C@:5]1([C:6]([H:14])([H:15])[H:16])[H:13])([H:7])([H:8])[H:9]>>[C:1]([C:2](=[C:3]([H:11])[H:12])[H:10])([H:7])([H:8])[H:9].[O:4]=[C:5]([C:6]([H:14])([H:15])[H:16])[H:13]"
C       -1.56951683       0.63289744      -0.39422396
C       -0.79581249      -0.16720019       0.61742218
C       -0.59733207      -1.53578763       0.42991852
O        1.14208724      -1.39528788      -0.61159404
C        1.09279109      -0.35627973       0.17501361
C        1.55803740       0.96675391      -0.36746985
H       -1.32839120       1.69535688      -0.32847727
H       -2.64943479       0.53498549      -0.25104477
H       -1.33618764       0.30105351      -1.40856278
H       -0.76705993       0.21005912       1.63333901
H       -0.98640480      -2.05413253      -0.43613248
H       -0.27474716      -2.16805438       1.24778273
H        1.40585348      -0.49445646       1.22451466
H        2.63075214       0.85549435      -0.55492664
H        1.40280714       1.78233288       0.34084706
H        1.07255841       1.19226521      -1.31640599
16
Frame=2 idx=004280 GeodesicLength=0.12029713258560036 rxn_smarts="[C:1]([C@@:2]1([H:10])[C:3]([H:11])([H:12])[O:4][C@:5]1([C:6]([H:14])([H:15])[H:16])[H:13])([H:7])([H:8])[H:9]>>[C:1]([C:2](=[C:3]([H:11])[H:12])[H:10])([H:7])([H:8])[H:9].[O:4]=[C:5]([C:6]([H:14])([H:15])[H:16])[H:13]"
C       -1.57089908       0.63089443      -0.39204033
C       -0.79971127      -0.17094299       0.62039476
C       -0.60246734      -1.54141854       0.43014665
O        1.14113013      -1.39152805      -0.61082386
C        1.10390867      -0.35014286       0.17430768
C        1.56676427       0.97152526      -0.37265875
H       -1.32720812       1.69284724      -0.32619003
H       -2.65097117       0.53638251      -0.24847006
H       -1.33705072       0.29809976      -1.40587814
H       -0.78763146       0.20146799       1.63878332
H       -0.99474735      -2.05696683      -0.43663331
H       -0.29773800      -2.17628820       1.25335623
H        1.42903735      -0.49168500       1.21970955
H        2.64119192       0.86831332      -0.55381635
H        1.40260840       1.78716111       0.33375697
H        1.08378377       1.19228083      -1.32394431
16
Frame=3 idx=004280 GeodesicLength=0.18045163359265864 rxn_smarts="[C:1]([C@@:2]1([H:10])[C:3]([H:11])([H:12])[O:4][C@:5]1([C:6]([H:14])([H:15])[H:16])[H:13])([H:7])([H:8])[H:9]>>[C:1]([C:2](=[C:3]([H:11])[H:12])[H:10])([H:7])([H:8])[H:9].[O:4]=[C:5]([C:6]([H:14])([H:15])[H:16])[H:13]"
C       -1.57218285       0.62883034      -0.38973407
C       -0.80359656      -0.17477848       0.62354395
C       -0.60768382      -1.54716228       0.43045738
O        1.14018835      -1.38765305      -0.60977024
C        1.11523090      -0.34385338       0.17365994
C        1.57558458       0.97639880      -0.37796722
H       -1.32594256       1.69026880      -0.32370345
H       -2.65241565       0.53771225      -0.24590219
H       -1.33773604       0.29513419      -1.40306707
H       -0.80868231       0.19259273       1.64417888
H       -1.00315975      -2.05975792      -0.43713629
H       -0.32164818      -2.18470526       1.25883349
H        1.45286598      -0.48876858       1.21465623
H        2.65164620       0.88143557      -0.55281297
H        1.40237573       1.79209388       0.32639894
H        1.09515600       1.19221240      -1.33163531
16
Frame=4 idx=004280 GeodesicLength=0.2406117739836935 rxn_smarts="[C:1]([C@@:2]1([H:10])[C:3]([H:11])([H:12])[O:4][C@:5]1([C:6]([H:14])([H:15])[H:16])[H:13])([H:7])([H:8])[H:9]>>[C:1]([C:2](=[C:3]([H:11])[H:12])[H:10])([H:7])([H:8])[H:9].[O:4]=[C:5]([C:6]([H:14])([H:15])[H:16])[H:13]"
C       -1.57336088       0.62670261      -0.38729456
C       -0.80746705      -0.17871237       0.62688258
C       -0.61298173      -1.55302452       0.43085680
O        1.13927348      -1.38366303      -0.60840304
C        1.12676721      -0.33740450       0.17307993
C        1.58449654       0.98137545      -0.38340268
H       -1.32459038       1.68761930      -0.32100043
H       -2.65376203       0.53897063      -0.24333946
H       -1.33823111       0.29215830      -1.40011901
H       -0.83022416       0.18341926       1.64951746
H       -1.01163250      -2.06249821      -0.43764689
H       -0.34654124      -2.19330648       1.26418629
H        1.47736561      -0.48568943       1.20934275
H        2.66210871       0.89487388      -0.55192925
H        1.40210452       1.79713388       0.31875569
H        1.10667501       1.19204522      -1.33948616
16
Frame=5 idx=004280 GeodesicLength=0.30077619747796686 rxn_smarts="[C:1]([C@@:2]1([H:10])[C:3]([H:11])([H:12])[O:4][C@:5]1([C:6]([H:14])([H:15])[H:16])[H:13])([H:7])([H:8])[H:9]>>[C:1]([C:2](=[C:3]([H:11])[H:12])[H:10])([H:7])([H:8])[H:9].[O:4]=[C:5]([C:6]([H:14])([H:15])[H:16])[H:13]"
C       -1.57442568       0.62450922      -0.38471131
C       -0.81132325      -0.18275055       0.63042463
C       -0.61836281      -1.55901072       0.43135078
O        1.13839513      -1.37955769      -0.60669211
C        1.13852615      -0.33078994       0.17257813
C        1.59349797       0.98645510      -0.38897112
H       -1.32314705       1.68489695      -0.31806382
H       -2.65500415       0.54015472      -0.24078160
H       -1.33852288       0.28917390      -1.39702333
H       -0.85226799       0.17393509       1.65478754
H       -1.02015709      -2.06518034      -0.43817068
H       -0.37247137      -2.20209191       1.26938764
H        1.50256078      -0.48243055       1.20375437
H        2.67257284       0.90863984      -0.55117759
H        1.40178921       1.80228325       0.31081203
H        1.11834018       1.19176364      -1.34750357
16
Frame=6 idx=004280 GeodesicLength=0.36094559917627633 rxn_smarts="[C:1]([C@@:2]1([H:10])[C:3]([H:11])([H:12])[O:4][C@:5]1([C:6]([H:14])([H:15])[H:16])[H:13])([H:7])([H:8])[H:9]>>[C:1]([C:2](=[C:3]([H:11])[H:12])[H:10])([H:7])([H:8])[H:9].[O:4]=[C:5]([C:6]([H:14])([H:15])[H:16])[H:13]"
C       -1.57536870       0.62224726      -0.38197178
C       -0.81516429      -0.18689995       0.63418522
C       -0.62382726      -1.56512768       0.43194721
O        1.13756668      -1.37533716      -0.60460172
C        1.15051839      -0.32400189       0.17216814
C        1.60258577       0.99163828      -0.39468029
H       -1.32160804       1.68209929      -0.31487328
H       -2.65613479       0.54125928      -0.23822652
H       -1.33859624       0.28618277      -1.39376731
H       -0.87482255       0.16412593       1.65997901
H       -1.02872098      -2.06779523      -0.43871354
H       -0.39951155      -2.21105932       1.27439931
H        1.52847982      -0.47897156       1.19787617
H        2.68303009       0.92274776      -0.55057238
H        1.40142294       1.80754393       0.30254685
H        1.13015072       1.19134829      -1.35569511
16
Frame=7 idx=004280 GeodesicLength=0.4211182073908529 rxn_smarts="[C:1]([C@@:2]1([H:10])[C:3]([H:11])([H:12])[O:4][C@:5]1([C:6]([H:14])([H:15])[H:16])[H:13])([H:7])([H:8])[H:9]>>[C:1]([C:2](=[C:3]([H:11])[H:12])[H:10])([H:7])([H:8])[H:9].[O:4]=[C:5]([C:6]([H:14])([H:15])[H:16])[H:13]"
C       -1.57618173       0.61991460      -0.37906316
C       -0.81899108      -0.19116778       0.63818009
C       -0.62937737      -1.57138224       0.43265346
O        1.13680101      -1.37100290      -0.60209324
C        1.16275324      -0.31703258       0.17186350
C        1.61175660       0.99692410      -0.40053790
H       -1.31996815       1.67922408      -0.31140772
H       -2.65714698       0.54228126      -0.23567279
H       -1.33843628       0.28318757      -1.39033796
H       -0.89789370       0.15397820       1.66508110
H       -1.03731195      -2.07033399      -0.43928372
H       -0.42772503      -2.22020552       1.27918156
H        1.55514703      -0.47529202       1.19169446
H        2.69347169       0.93721078      -0.55012774
H        1.40099692       1.81291873       0.29393928
H        1.14210578       1.19077770      -1.36406923
16
Frame=8 idx=004280 GeodesicLength=0.48129366539877344 rxn_smarts="[C:1]([C@@:2]1([H:10])[C:3]([H:11])([H:12])[O:4][C@:5]1([C:6]([H:14])([H:15])[H:16])[H:13])([H:7])([H:8])[H:9]>>[C:1]([C:2](=[C:3]([H:11])[H:12])[H:10])([H:7])([H:8])[H:9].[O:4]=[C:5]([C:6]([H:14])([H:15])[H:16])[H:13]"
C       -1.57685519       0.61750837      -0.37597106
C       -0.82280454      -0.19556240       0.64242714
C       -0.63501567      -1.57778277       0.43347908
O        1.13611171      -1.36655610      -0.59912421
C        1.17524144      -0.30987330       0.17168111
C        1.62100557       1.00231129      -0.40655218
H       -1.31822230       1.67626899      -0.30764403
H       -2.65803298       0.54321541      -0.23311775
H       -1.33802606       0.28019017      -1.38672030
H       -0.92148756       0.14347981       1.67008011
H       -1.04591506      -2.07278593      -0.43988830
H       -0.45718333      -2.22952377       1.28368396
H        1.58259072      -0.47136819       1.18519247
H        2.70388699       0.95204288      -0.54985934
H        1.40050238       1.81840863       0.28496734
H        1.15420388       1.19002692      -1.37263405
16
Frame=9 idx=004280 GeodesicLength=0.5414700550162639 rxn_smarts="[C:1]([C@@:2]1([H:10])[C:3]([H:11])([H:12])[O:4][C@:5]1([C:6]([H:14])([H:15])[H:16])[H:13])([H:7])([H:8])[H:9]>>[C:1]([C:2](=[C:3]([H:11])[H:12])[H:10])([H:7])([H:8])[H:9].[O:4]=[C:5]([C:6]([H:14])([H:15])[H:16])[H:13]"
C       -1.57738008       0.61502692      -0.37268015
C       -0.82661038      -0.20009188       0.64694639
C       -0.64075030      -1.58433737       0.43443500
O        1.13551089      -1.36199982      -0.59564460
C        1.18799214      -0.30251507       0.17163963
C        1.63032769       1.00779620      -0.41272996
H       -1.31636384       1.67323211      -0.30355888
H       -2.65878581       0.54406161      -0.23056246
H       -1.33734807       0.27719238      -1.38289786
H       -0.94560407       0.13262174       1.67495919
H       -1.05451748      -2.07513831      -0.44053416
H       -0.48793885      -2.23901201       1.28784540
H        1.61083504      -0.46717506       1.17835537
H        2.71426433       0.96725621      -0.54978444
H        1.39992627       1.82401632       0.27560962
H        1.16644253       1.18906602      -1.38139808
16
Frame=10 idx=004280 GeodesicLength=0.6016438621341326 rxn_smarts="[C:1]([C@@:2]1([H:10])[C:3]([H:11])([H:12])[O:4][C@:5]1([C:6]([H:14])([H:15])[H:16])[H:13])([H:7])([H:8])[H:9]>>[C:1]([C:2](=[C:3]([H:11])[H:12])[H:10])([H:7])([H:8])[H:9].[O:4]=[C:5]([C:6]([H:14])([H:15])[H:16])[H:13]"
C       -1.57774610       0.61246699      -0.36917420
C       -0.83040815      -0.20476661       0.65175560
C       -0.64658121      -1.59105556       0.43553146
O        1.13501651      -1.35733541      -0.59160568
C        1.20101685      -0.29494806       0.17175934
C        1.63971595       1.01337654      -0.41908173
H       -1.31438823       1.67011071      -0.29912365
H       -2.65939618       0.54481225      -0.22800173
H       -1.33638348       0.27419845      -1.37885435
H       -0.97024283       0.12138897       1.67970902
H       -1.06309636      -2.07738045      -0.44123317
H       -0.52007915      -2.24865273       1.29160764
H        1.63990547      -0.46268784       1.17116526
H        2.72458972       0.98286564      -0.54992053
H        1.39925670       1.82974209       0.26583676
H        1.17882049       1.18786502      -1.39037004
16
Frame=11 idx=004280 GeodesicLength=0.6618111507559065 rxn_smarts="[C:1]([C@@:2]1([H:10])[C:3]([H:11])([H:12])[O:4][C@:5]1([C:6]([H:14])([H:15])[H:16])[H:13])([H:7])([H:8])[H:9]>>[C:1]([C:2](=[C:3]([H:11])[H:12])[H:10])([H:7])([H:8])[H:9].[O:4]=[C:5]([C:6]([H:14])([H:15])[H:16])[H:13]"
C       -1.57794315       0.60982632      -0.36543668
C       -0.83420318      -0.20959754       0.65687507
C       -0.65251511      -1.59794761       0.43677965
O        1.13464164      -1.35256508      -0.58695589
C        1.21432527      -0.28716309       0.17206086
C        1.64916272       1.01904719      -0.42561562
H       -1.31228951       1.66690266      -0.29431024
H       -2.65985543       0.54546399      -0.22543386
H       -1.33511233       0.27121209      -1.37457254
H       -0.99539604       0.10977338       1.68431332
H       -1.07163212      -2.07950075      -0.44199591
H       -0.55366699      -2.25843108       1.29490462
H        1.66982230      -0.45788042       1.16360710
H        2.73484745       0.99888480      -0.55028495
H        1.39847950       1.83558488       0.25562330
H        1.19133499       1.18639026      -1.39955824
16
Frame=12 idx=004280 GeodesicLength=0.7219684740308141 rxn_smarts="[C:1]([C@@:2]1([H:10])[C:3]([H:11])([H:12])[O:4][C@:5]1([C:6]([H:14])([H:15])[H:16])[H:13])([H:7])([H:8])[H:9]>>[C:1]([C:2](=[C:3]([H:11])[H:12])[H:10])([H:7])([H:8])[H:9].[O:4]=[C:5]([C:6]([H:14])([H:15])[H:16])[H:13]"
C       -1.57796061       0.60710325      -0.36144715
C       -0.83800021      -0.21459720       0.66232568
C       -0.65855933      -1.60502504       0.43819032
O        1.13440696      -1.34769440      -0.58162828
C        1.22792823      -0.27914874       0.17257187
C        1.65865911       1.02480156      -0.43234322
H       -1.31006091       1.66360614      -0.28908426
H       -2.66015425       0.54601452      -0.22285364
H       -1.33351434       0.26824005      -1.37003186
H       -1.02105527       0.09776254       1.68876072
H       -1.08009780      -2.08148429      -0.44283899
H       -0.58877617      -2.26832812       1.29765123
H        1.70060642      -0.45271845       1.15566767
H        2.74501902       1.01532699      -0.55089972
H        1.39757618       1.84154436       0.24493359
H        1.20398299       1.18459683      -1.40897396
16
Frame=13 idx=004280 GeodesicLength=0.782111040260663 rxn_smarts="[C:1]([C@@:2]1([H:10])[C:3]([H:11])([H:12])[O:4][C@:5]1([C:6]([H:14])([H:15])[H:16])[H:13])([H:7])([H:8])[H:9]>>[C:1]([C:2](=[C:3]([H:11])[H:12])[H:10])([H:7])([H:8])[H:9].[O:4]=[C:5]([C:6]([H:14])([H:15])[H:16])[H:13]"
C       -1.57778845       0.60429773      -0.35718741
C       -0.84180877      -0.21977837       0.66812838
C       -0.66472706      -1.61229970       0.43977377
O        1.13432667      -1.34272697      -0.57555751
C        1.24183428      -0.27089444       0.17332066
C        1.66819454       1.03063017      -0.43927242
H       -1.30769541       1.66022011      -0.28341267
H       -2.66028367       0.54646406      -0.22025919
H       -1.33156857       0.26528948      -1.36521336
H       -1.04720668       0.08534994       1.69303606
H       -1.08846879      -2.08331753      -0.44377934
H       -0.62545321      -2.27832120       1.29976678
H        1.73227352      -0.44717157       1.14732825
H        2.75508510       1.03220188      -0.55178461
H        1.39652546       1.84761735       0.23373754
H        1.21676105       1.18243907      -1.41862493
16
Frame=14 idx=004280 GeodesicLength=0.8422349441598652 rxn_smarts="[C:1]([C@@:2]1([H:10])[C:3]([H:11])([H:12])[O:4][C@:5]1([C:6]([H:14])([H:15])[H:16])[H:13])([H:7])([H:8])[H:9]>>[C:1]([C:2](=[C:3]([H:11])[H:12])[H:10])([H:7])([H:8])[H:9].[O:4]=[C:5]([C:6]([H:14])([H:15])[H:16])[H:13]"
C       -1.57741581       0.60140902      -0.35263310
C       -0.84563760      -0.22515584       0.67430705
C       -0.67103049      -1.61978574       0.44154444
O        1.13442455      -1.33767125      -0.56865830
C        1.25605429      -0.26238652       0.17434179
C        1.67775596       1.03652150      -0.44641721
H       -1.30518611       1.65674357      -0.27725569
H       -2.66023460       0.54681153      -0.21764254
H       -1.32925306       0.26236801      -1.36009177
H       -1.07383311       0.07252939       1.69712814
H       -1.09670962      -2.08498134      -0.44483669
H       -0.66376571      -2.28838186       1.30113245
H        1.76484093      -0.44120176       1.13857798
H        2.76502092       1.04952240      -0.55296518
H        1.39530391       1.85380023       0.22199162
H        1.22966555       1.17985865      -1.42852298
16
Frame=15 idx=004280 GeodesicLength=0.9023350672912497 rxn_smarts="[C:1]([C@@:2]1([H:10])[C:3]([H:11])([H:12])[O:4][C@:5]1([C:6]([H:14])([H:15])[H:16])[H:13])([H:7])([H:8])[H:9]>>[C:1]([C:2](=[C:3]([H:11])[H:12])[H:10])([H:7])([H:8])[H:9].[O:4]=[C:5]([C:6]([H:14])([H:15])[H:16])[H:13]"
C       -1.57683315       0.59843904      -0.34776115
C       -0.84950017      -0.23074536       0.68088377
C       -0.67748831      -1.62749786       0.44351262
O        1.13472093      -1.33253520      -0.56084230
C        1.27059638      -0.25361168       0.17567264
C        1.68732929       1.04246017      -0.45378894
H       -1.30252554       1.65317698      -0.27057239
H       -2.65999817       0.54706119      -0.21499764
H       -1.32654643       0.25948700      -1.35464357
H       -1.10091347       0.05929633       1.70102593
H       -1.10478495      -2.08645757      -0.44603617
H       -0.70375127      -2.29847698       1.30163402
H        1.79831840      -0.43476973       1.12940370
H        2.77480024       1.06729621      -0.55446748
H        1.39388405       1.86008598       0.20965454
H        1.24269218       1.17679150      -1.43867759
16
Frame=16 idx=004280 GeodesicLength=0.9624059493836447 rxn_smarts="[C:1]([C@@:2]1([H:10])[C:3]([H:11])([H:12])[O:4][C@:5]1([C:6]([H:14])([H:15])[H:16])[H:13])([H:7])([H:8])[H:9]>>[C:1]([C:2](=[C:3]([H:11])[H:12])[H:10])([H:7])([H:8])[H:9].[O:4]=[C:5]([C:6]([H:14])([H:15])[H:16])[H:13]"
C       -1.57603053       0.59539167      -0.34254347
C       -0.85341070      -0.23656464       0.68788164
C       -0.68412039      -1.63545168       0.44568620
O        1.13524377      -1.32733008      -0.55200411
C        1.28546994      -0.24455459       0.17735838
C        1.69689771       1.04842663      -0.46140361
H       -1.29970582       1.64952255      -0.26331351
H       -2.65956565       0.54721873      -0.21231324
H       -1.32342698       0.25666246      -1.34884053
H       -1.12842408       0.04564488       1.70472147
H       -1.11264978      -2.08772358      -0.44741026
H       -0.74545037      -2.30856976       1.30113432
H        1.83271046      -0.42782779       1.11979963
H        2.78439221       1.08553031      -0.55632278
H        1.39223395       1.86646635       0.19667172
H        1.25583627       1.17315856      -1.44910184
