13
Frame=0 idx=005503 GeodesicLength=0.0 rxn_smarts="[C:1]([C:2]([O:3][C:4]([C:5]#[N:6])([H:12])[H:13])([H:10])[H:11])([H:7])([H:8])[H:9]>>[C:1]([C@@:2]1([H:10])[O:3][C:4]([H:12])([H:13])/[C:5]1=[N:6]/[H:11])([H:7])([H:8])[H:9]"
C       -1.63692238      -0.70941258       0.12278233
C       -0.52798628       0.19173993      -0.33999015
O       -0.07775529       1.06794531       0.68201074
C        1.31797263       1.03685446       0.53678099
C        1.38954259      -0.21590488      -0.30963001
N        1.95135309      -1.17554962      -0.78717311
H       -2.50736346      -0.12398168       0.43394384
H       -1.95591508      -1.37033126      -0.68654102
H       -1.32193007      -1.32166191       0.96994493
H       -0.78001526       0.74379256      -1.25303734
H        0.60393345      -0.97167714      -0.85002701
H        1.83299585       0.95040276       1.49707416
H        1.71209024       1.89778410      -0.01613829
13
Frame=1 idx=005503 GeodesicLength=0.08703661573676191 rxn_smarts="[C:1]([C:2]([O:3][C:4]([C:5]#[N:6])([H:12])[H:13])([H:10])[H:11])([H:7])([H:8])[H:9]>>[C:1]([C@@:2]1([H:10])[O:3][C:4]([H:12])([H:13])/[C:5]1=[N:6]/[H:11])([H:7])([H:8])[H:9]"
C       -1.63958022      -0.70890722       0.12354578
C       -0.52224527       0.18335065      -0.33858231
O       -0.07746160       1.06105365       0.68618067
C        1.31895188       1.03847435       0.53937576
C        1.40038742      -0.22248598      -0.28991154
N        1.95652520      -1.16757591      -0.80000059
H       -2.50721130      -0.11726357       0.43001095
H       -1.96022675      -1.36984783      -0.68503432
H       -1.33081832      -1.32100404       0.97301063
H       -0.77424964       0.74129145      -1.24830260
H        0.59603746      -0.97705604      -0.86825054
H        1.83426842       0.96298991       1.50025536
H        1.70562270       1.89698059      -0.02229725
13
Frame=2 idx=005503 GeodesicLength=0.17409453409209538 rxn_smarts="[C:1]([C:2]([O:3][C:4]([C:5]#[N:6])([H:12])[H:13])([H:10])[H:11])([H:7])([H:8])[H:9]>>[C:1]([C@@:2]1([H:10])[O:3][C:4]([H:12])([H:13])/[C:5]1=[N:6]/[H:11])([H:7])([H:8])[H:9]"
C       -1.64219492      -0.70838029       0.12432323
C       -0.51639025       0.17477240      -0.33716447
O       -0.07708735       1.05407754       0.69026910
C        1.31997201       1.03989803       0.54193319
C        1.41138521      -0.22927916      -0.26984454
N        1.96152763      -1.15858143      -0.81273437
H       -2.50691881      -0.11045764       0.42603901
H       -1.96456907      -1.36934337      -0.68348124
H       -1.33974252      -1.32027014       0.97611610
H       -0.76841536       0.73861448      -1.24351354
H        0.58780697      -0.98251953      -0.88681234
H        1.83536518       0.97570751       1.50342204
H        1.69926128       1.89576162      -0.02855216
13
Frame=3 idx=005503 GeodesicLength=0.2610921060245449 rxn_smarts="[C:1]([C:2]([O:3][C:4]([C:5]#[N:6])([H:12])[H:13])([H:10])[H:11])([H:7])([H:8])[H:9]>>[C:1]([C@@:2]1([H:10])[O:3][C:4]([H:12])([H:13])/[C:5]1=[N:6]/[H:11])([H:7])([H:8])[H:9]"
C       -1.64469945      -0.70784480       0.12509808
C       -0.51040495       0.16601198      -0.33575336
O       -0.07659657       1.04699707       0.69427914
C        1.32103369       1.04116589       0.54442179
C        1.42256791      -0.23604283      -0.24974824
N        1.96612863      -1.14887341      -0.82489312
H       -2.50639074      -0.10360206       0.42206751
H       -1.96890933      -1.36881105      -0.68190416
H       -1.34860016      -1.31949394       0.97919106
H       -0.76256393       0.73580125      -1.23862526
H        0.57917708      -0.98804758      -0.90584598
H        1.83630067       0.98847266       1.50650087
H        1.69295716       1.89426685      -0.03478832
13
Frame=4 idx=005503 GeodesicLength=0.3480997833952705 rxn_smarts="[C:1]([C:2]([O:3][C:4]([C:5]#[N:6])([H:12])[H:13])([H:10])[H:11])([H:7])([H:8])[H:9]>>[C:1]([C@@:2]1([H:10])[O:3][C:4]([H:12])([H:13])/[C:5]1=[N:6]/[H:11])([H:7])([H:8])[H:9]"
C       -1.64709304      -0.70732512       0.12587901
C       -0.50430180       0.15710309      -0.33437223
O       -0.07601298       1.03978339       0.69822822
C        1.32215751       1.04231588       0.54681118
C        1.43404127      -0.24258586      -0.22983390
N        1.97026281      -1.13881433      -0.83597229
H       -2.50567087      -0.09676792       0.41818388
H       -1.97325807      -1.36822006      -0.68032401
H       -1.35731774      -1.31875880       0.98221538
H       -0.75677002       0.73294862      -1.23363591
H        0.57013903      -0.99350658      -0.92563556
H        1.83712701       1.00122454       1.50945177
H        1.68669689       1.89260314      -0.04099554
13
Frame=5 idx=005503 GeodesicLength=0.435110545106048 rxn_smarts="[C:1]([C:2]([O:3][C:4]([C:5]#[N:6])([H:12])[H:13])([H:10])[H:11])([H:7])([H:8])[H:9]>>[C:1]([C@@:2]1([H:10])[O:3][C:4]([H:12])([H:13])/[C:5]1=[N:6]/[H:11])([H:7])([H:8])[H:9]"
C       -1.64930167      -0.70683378       0.12663781
C       -0.49804041       0.14802925      -0.33301110
O       -0.07527808       1.03242569       0.70211963
C        1.32333274       1.04342271       0.54911575
C        1.44580159      -0.24872886      -0.21022828
N        1.97372797      -1.12872343      -0.84580037
H       -2.50462297      -0.08998648       0.41436341
H       -1.97757814      -1.36758457      -0.67874877
H       -1.36583218      -1.31806159       0.98510540
H       -0.75100958       0.73002205      -1.22847620
H        0.56053089      -0.99885825      -0.94624711
H        1.83784584       1.01398225       1.51223972
H        1.68042400       1.89089500      -0.04706989
13
Frame=6 idx=005503 GeodesicLength=0.5221155504822371 rxn_smarts="[C:1]([C:2]([O:3][C:4]([C:5]#[N:6])([H:12])[H:13])([H:10])[H:11])([H:7])([H:8])[H:9]>>[C:1]([C@@:2]1([H:10])[O:3][C:4]([H:12])([H:13])/[C:5]1=[N:6]/[H:11])([H:7])([H:8])[H:9]"
C       -1.65132840      -0.70638451       0.12738846
C       -0.49161921       0.13880806      -0.33168243
O       -0.07443524       1.02492358       0.70598945
C        1.32456454       1.04454168       0.55134574
C        1.45796100      -0.25438713      -0.19097031
N        1.97646724      -1.11891718      -0.85419006
H       -2.50330516      -0.08327742       0.41067837
H       -1.98186792      -1.36687680      -0.67721234
H       -1.37409832      -1.31748146       0.98788125
H       -0.74531759       0.72708882      -1.22317593
H        0.55038469      -1.00402808      -0.96791248
H        1.83847885       1.02677112       1.51490383
H        1.67411553       1.88921933      -0.05304355
13
Frame=7 idx=005503 GeodesicLength=0.6091132827320235 rxn_smarts="[C:1]([C:2]([O:3][C:4]([C:5]#[N:6])([H:12])[H:13])([H:10])[H:11])([H:7])([H:8])[H:9]>>[C:1]([C@@:2]1([H:10])[O:3][C:4]([H:12])([H:13])/[C:5]1=[N:6]/[H:11])([H:7])([H:8])[H:9]"
C       -1.65313634      -0.70599171       0.12812178
C       -0.48500884       0.12943230      -0.33037640
O       -0.07347132       1.01727289       0.70984966
C        1.32584685       1.04572447       0.55351921
C        1.47054804      -0.25951397      -0.17199794
N        1.97834045      -1.10961250      -0.86106647
H       -2.50166821      -0.07666864       0.40713655
H       -1.98610037      -1.36609330      -0.67572991
H       -1.38207234      -1.31704739       0.99050588
H       -0.73966796       0.72414701      -1.21769931
H        0.53961687      -1.00892698      -0.99078802
H        1.83902108       1.03967132       1.51744879
H        1.66775207       1.88760650      -0.05892382
13
Frame=8 idx=005503 GeodesicLength=0.6961385211364711 rxn_smarts="[C:1]([C:2]([O:3][C:4]([C:5]#[N:6])([H:12])[H:13])([H:10])[H:11])([H:7])([H:8])[H:9]>>[C:1]([C@@:2]1([H:10])[O:3][C:4]([H:12])([H:13])/[C:5]1=[N:6]/[H:11])([H:7])([H:8])[H:9]"
C       -1.65470509      -0.70566937       0.12883426
C       -0.47818373       0.11989261      -0.32908636
O       -0.07238506       1.00947021       0.71371431
C        1.32717898       1.04701347       0.55565690
C        1.48360980      -0.26409519      -0.15320848
N        1.97925816      -1.10098874      -0.86640334
H       -2.49969484      -0.07018243       0.40374781
H       -1.99025915      -1.36523048      -0.67431660
H       -1.38972555      -1.31679076       0.99296377
H       -0.73404001       0.72119617      -1.21202835
H        0.52815111      -1.01345472      -1.01502767
H        1.83946954       1.05277247       1.51989622
H        1.66132584       1.88606677      -0.06474247
13
Frame=9 idx=005503 GeodesicLength=0.7830537188176 rxn_smarts="[C:1]([C:2]([O:3][C:4]([C:5]#[N:6])([H:12])[H:13])([H:10])[H:11])([H:7])([H:8])[H:9]>>[C:1]([C@@:2]1([H:10])[O:3][C:4]([H:12])([H:13])/[C:5]1=[N:6]/[H:11])([H:7])([H:8])[H:9]"
C       -1.65599341      -0.70542867       0.12951832
C       -0.47110288       0.11017122      -0.32780708
O       -0.07116606       1.00151468       0.71758326
C        1.32855472       1.04844817       0.55777738
C        1.49719205      -0.26810526      -0.13451588
N        1.97898969      -1.09317758      -0.87020251
H       -2.49734254      -0.06383123       0.40050588
H       -1.99429584      -1.36429322      -0.67298272
H       -1.39702160      -1.31673212       0.99523705
H       -0.72839348       0.71822312      -1.20613982
H        0.51595061      -1.01754825      -1.04073101
H        1.83979637       1.06615148       1.52226160
H        1.65483239       1.88460765      -0.07050447
13
Frame=10 idx=005503 GeodesicLength=0.8700191802078611 rxn_smarts="[C:1]([C:2]([O:3][C:4]([C:5]#[N:6])([H:12])[H:13])([H:10])[H:11])([H:7])([H:8])[H:9]>>[C:1]([C@@:2]1([H:10])[O:3][C:4]([H:12])([H:13])/[C:5]1=[N:6]/[H:11])([H:7])([H:8])[H:9]"
C       -1.65699126      -0.70528421       0.13017884
C       -0.46375371       0.10026511      -0.32654440
O       -0.06982363       0.99341630       0.72145498
C        1.32997576       1.05005215       0.55989747
C        1.51133773      -0.27156993      -0.11577799
N        1.97753592      -1.08631711      -0.87240969
H       -2.49461275      -0.05764176       0.39744818
H       -1.99821188      -1.36327529      -0.67173727
H       -1.40391771      -1.31691029       0.99732200
H       -0.72272819       0.71523429      -1.20003817
H        0.50291064      -1.02106737      -1.06810293
H        1.83998626       1.07989830       1.52457648
H        1.64829280       1.88319979      -0.07626749
13
Frame=11 idx=005503 GeodesicLength=0.9569593501673761 rxn_smarts="[C:1]([C:2]([O:3][C:4]([C:5]#[N:6])([H:12])[H:13])([H:10])[H:11])([H:7])([H:8])[H:9]>>[C:1]([C@@:2]1([H:10])[O:3][C:4]([H:12])([H:13])/[C:5]1=[N:6]/[H:11])([H:7])([H:8])[H:9]"
C       -1.65765718      -0.70525701       0.13079513
C       -0.45608221       0.09014702      -0.32529051
O       -0.06832957       0.98514406       0.72535101
C        1.33144605       1.05186306       0.56202602
C        1.52612256      -0.27446411      -0.09689533
N        1.97464443      -1.08056702      -0.87299090
H       -2.49145516      -0.05163878       0.39455309
H       -2.00195738      -1.36218586      -0.67060846
H       -1.41039486      -1.31735926       0.99917963
H       -0.71700044       0.71222714      -1.19367133
H        0.48894421      -1.02387943      -1.09721552
H        1.84003611       1.09412225       1.52683232
H        1.64168344       1.88184794      -0.08206515
13
Frame=12 idx=005503 GeodesicLength=1.043925869284373 rxn_smarts="[C:1]([C:2]([O:3][C:4]([C:5]#[N:6])([H:12])[H:13])([H:10])[H:11])([H:7])([H:8])[H:9]>>[C:1]([C@@:2]1([H:10])[O:3][C:4]([H:12])([H:13])/[C:5]1=[N:6]/[H:11])([H:7])([H:8])[H:9]"
C       -1.65796448      -0.70536050       0.13136509
C       -0.44806237       0.07979916      -0.32405094
O       -0.06667604       0.97669588       0.72926009
C        1.33296729       1.05389859       0.56417461
C        1.54159418      -0.27678698      -0.07774989
N        1.97019730      -1.07602430      -0.87189031
H       -2.48784368      -0.04584401       0.39183882
H       -2.00551713      -1.36102225      -0.66960521
H       -1.41640541      -1.31810672       1.00079348
H       -0.71119718       0.70918557      -1.18703231
H        0.47396273      -1.02585947      -1.12821457
H        1.83991796       1.10890700       1.52903964
H        1.63502683       1.88051803      -0.08792849
13
Frame=13 idx=005503 GeodesicLength=1.1308854739263507 rxn_smarts="[C:1]([C:2]([O:3][C:4]([C:5]#[N:6])([H:12])[H:13])([H:10])[H:11])([H:7])([H:8])[H:9]>>[C:1]([C@@:2]1([H:10])[O:3][C:4]([H:12])([H:13])/[C:5]1=[N:6]/[H:11])([H:7])([H:8])[H:9]"
C       -1.65788402      -0.70561344       0.13187847
C       -0.43965349       0.06920127      -0.32284203
O       -0.06484774       0.96804562       0.73318730
C        1.33454947       1.05618144       0.56634457
C        1.55785863      -0.27850425      -0.05828714
N        1.96397060      -1.07280943      -0.86901937
H       -2.48376105      -0.04027542       0.38931021
H       -2.00885718      -1.35978812      -0.66875090
H       -1.42191708      -1.31919940       1.00214911
H       -0.70529898       0.70611812      -1.18011154
H        0.45789995      -1.02688856      -1.16117406
H        1.83961838       1.12432146       1.53120297
H        1.62832252       1.87921071      -0.09388760
13
Frame=14 idx=005503 GeodesicLength=1.217858231257571 rxn_smarts="[C:1]([C:2]([O:3][C:4]([C:5]#[N:6])([H:12])[H:13])([H:10])[H:11])([H:7])([H:8])[H:9]>>[C:1]([C@@:2]1([H:10])[O:3][C:4]([H:12])([H:13])/[C:5]1=[N:6]/[H:11])([H:7])([H:8])[H:9]"
C       -1.65738532      -0.70603273       0.13231893
C       -0.43081587       0.05832598      -0.32167843
O       -0.06281555       0.95915387       0.73713696
C        1.33620265       1.05872616       0.56853374
C        1.57501353      -0.27957887      -0.03845548
N        1.95575956      -1.07101124      -0.86428082
H       -2.47917191      -0.03494988       0.38696559
H       -2.01195318      -1.35848392      -0.66807080
H       -1.42690212      -1.32067446       1.00321527
H       -0.69928290       0.70301843      -1.17288793
H        0.44066084      -1.02684764      -1.19613834
H        1.83912634       1.14043777       1.53330792
H        1.62156393       1.87791652      -0.09996662
13
Frame=15 idx=005503 GeodesicLength=1.3048828441427847 rxn_smarts="[C:1]([C:2]([O:3][C:4]([C:5]#[N:6])([H:12])[H:13])([H:10])[H:11])([H:7])([H:8])[H:9]>>[C:1]([C@@:2]1([H:10])[O:3][C:4]([H:12])([H:13])/[C:5]1=[N:6]/[H:11])([H:7])([H:8])[H:9]"
C       -1.65645458      -0.70662862       0.13267397
C       -0.42151781       0.04714393      -0.32058725
O       -0.06055761       0.94996901       0.74111884
C        1.33794168       1.06153405       0.57073874
C        1.59319306      -0.27996774      -0.01824744
N        1.94540194      -1.07067293      -0.85759536
H       -2.47407259      -0.02986796       0.38480041
H       -2.01479145      -1.35710880      -0.66759068
H       -1.43135161      -1.32255874       1.00398708
H       -0.69313747       0.69988025      -1.16536786
H        0.42217343      -1.02565333      -1.23309794
H        1.83843551       1.15729680       1.53535116
H        1.61473750       1.87663407      -0.10618368
13
Frame=16 idx=005503 GeodesicLength=1.3918856074106598 rxn_smarts="[C:1]([C:2]([O:3][C:4]([C:5]#[N:6])([H:12])[H:13])([H:10])[H:11])([H:7])([H:8])[H:9]>>[C:1]([C@@:2]1([H:10])[O:3][C:4]([H:12])([H:13])/[C:5]1=[N:6]/[H:11])([H:7])([H:8])[H:9]"
C       -1.65504609      -0.70741202       0.13290863
C       -0.41171720       0.03562326      -0.31959395
O       -0.05800040       0.94041349       0.74508985
C        1.33977303       1.06459569       0.57292883
C        1.61245910      -0.27956600       0.00225945
N        1.93263109      -1.07173338      -0.84883890
H       -2.46835980      -0.02504938       0.38278063
H       -2.01734979      -1.35565344      -0.66731186
H       -1.43525886      -1.32487096       1.00437791
H       -0.68679098       0.69667273      -1.15750437
H        0.40231360      -1.02327436      -1.27186095
H        1.83750486       1.17488173       1.53725493
H        1.60784143       1.87537264      -0.11249021
