17
Frame=0 idx=010657 GeodesicLength=0.0 rxn_smarts="[C:1]([C@@:2]1([H:11])[O:3][C@@:4]2([H:12])[C:5]([H:13])([H:14])[C:6]([H:15])([H:16])[C@@:7]12[H:17])([H:8])([H:9])[H:10]>>[C:1](/[C:2](=[C:7](/[C@@:4]1([H:12])[O:3][C:6]([H:15])([H:16])[C:5]1([H:13])[H:14])[H:17])[H:11])([H:8])([H:9])[H:10]"
C        2.06474512       0.61401036      -0.66412431
C        1.13827607      -0.37191451      -0.01231184
O        0.21512178       0.21937559       0.98202782
C       -0.72582344      -0.92233803       0.64402407
C       -1.99903595      -0.14674265       0.53679357
C       -1.22168141       1.05418997       0.03689464
C       -0.02439423      -0.98920450      -0.70286509
H        1.49194382       1.36291108      -1.21225973
H        2.70442233       1.10792987       0.07033131
H        2.70216193       0.08656860      -1.37663754
H        1.70689989      -1.06897059       0.63321744
H       -0.58402785      -1.70004291       1.41085982
H       -2.51564640       0.04163519       1.48109084
H       -2.67961880      -0.55648738      -0.21015664
H       -1.19163748       1.25849558      -1.02024438
H       -1.13072697       1.91803308       0.68445704
H        0.04902163      -1.90744878      -1.28109707
17
Frame=1 idx=010657 GeodesicLength=0.08427810510636748 rxn_smarts="[C:1]([C@@:2]1([H:11])[O:3][C@@:4]2([H:12])[C:5]([H:13])([H:14])[C:6]([H:15])([H:16])[C@@:7]12[H:17])([H:8])([H:9])[H:10]>>[C:1](/[C:2](=[C:7](/[C@@:4]1([H:12])[O:3][C:6]([H:15])([H:16])[C:5]1([H:13])[H:14])[H:17])[H:11])([H:8])([H:9])[H:10]"
C        2.07670197       0.60789938      -0.67112711
C        1.14731879      -0.37071773      -0.01234271
O        0.20745743       0.21592311       1.00486033
C       -0.72489581      -0.92168886       0.65170019
C       -2.00320972      -0.15129994       0.53861126
C       -1.22226380       1.04840387       0.03869537
C       -0.02361195      -0.97179102      -0.69569320
H        1.50892331       1.35035000      -1.23325082
H        2.71091285       1.11497734       0.05910827
H        2.72189951       0.07446286      -1.37225514
H        1.71599481      -1.06347252       0.63594658
H       -0.59496132      -1.71139108       1.40702599
H       -2.52397632       0.03571801       1.48063420
H       -2.68362294      -0.55984031      -0.20902944
H       -1.21336878       1.26637068      -1.01690399
H       -1.14310722       1.91832033       0.68062276
H        0.04380921      -1.88222412      -1.28660255
17
Frame=2 idx=010657 GeodesicLength=0.16854635881721686 rxn_smarts="[C:1]([C@@:2]1([H:11])[O:3][C@@:4]2([H:12])[C:5]([H:13])([H:14])[C:6]([H:15])([H:16])[C@@:7]12[H:17])([H:8])([H:9])[H:10]>>[C:1](/[C:2](=[C:7](/[C@@:4]1([H:12])[O:3][C:6]([H:15])([H:16])[C:5]1([H:13])[H:14])[H:17])[H:11])([H:8])([H:9])[H:10]"
C        2.08885759       0.60156610      -0.67851700
C        1.15645931      -0.36932255      -0.01244220
O        0.19937001       0.21237770       1.02808630
C       -0.72401291      -0.92106049       0.65937055
C       -2.00742086      -0.15594072       0.54026739
C       -1.22287899       1.04278191       0.04082896
C       -0.02264502      -0.95414842      -0.68820621
H        1.52632179       1.33686640      -1.25532137
H        2.71722760       1.12236852       0.04712933
H        2.74205177       0.06184531      -1.36752643
H        1.72508556      -1.05732852       0.63914351
H       -0.60604570      -1.72273337       1.40269922
H       -2.53258295       0.02939656       1.47992457
H       -2.68747511      -0.56310536      -0.20833382
H       -1.23520974       1.27455655      -1.01263784
H       -1.15573585       1.91834119       0.67744587
H        0.03863350      -1.85646081      -1.29191083
17
Frame=3 idx=010657 GeodesicLength=0.2528106434974137 rxn_smarts="[C:1]([C@@:2]1([H:11])[O:3][C@@:4]2([H:12])[C:5]([H:13])([H:14])[C:6]([H:15])([H:16])[C@@:7]12[H:17])([H:8])([H:9])[H:10]>>[C:1](/[C:2](=[C:7](/[C@@:4]1([H:12])[O:3][C:6]([H:15])([H:16])[C:5]1([H:13])[H:14])[H:17])[H:11])([H:8])([H:9])[H:10]"
C        2.10120905       0.59499397      -0.68631003
C        1.16570254      -0.36771994      -0.01260753
O        0.19082847       0.20872623       1.05172822
C       -0.72317851      -0.92045637       0.66703699
C       -2.01167101      -0.16067078       0.54174893
C       -1.22353319       1.03733385       0.04331397
C       -0.02148746      -0.93627026      -0.68038716
H        1.54414268       1.32236721      -1.27849717
H        2.72334710       1.13011688       0.03432106
H        2.76261558       0.04872192      -1.36242171
H        1.73417769      -1.05048723       0.64283751
H       -0.61726959      -1.73406264       1.39786396
H       -2.54148058       0.02264551       1.47893958
H       -2.69116295      -0.56627807      -0.20809798
H       -1.25709423       1.28305181      -1.00741542
H       -1.16862713       1.91809418       0.67496956
H        0.03348155      -1.83010628      -1.29702279
17
Frame=4 idx=010657 GeodesicLength=0.3370861326633371 rxn_smarts="[C:1]([C@@:2]1([H:11])[O:3][C@@:4]2([H:12])[C:5]([H:13])([H:14])[C:6]([H:15])([H:16])[C@@:7]12[H:17])([H:8])([H:9])[H:10]>>[C:1](/[C:2](=[C:7](/[C@@:4]1([H:12])[O:3][C:6]([H:15])([H:16])[C:5]1([H:13])[H:14])[H:17])[H:11])([H:8])([H:9])[H:10]"
C        2.11375160       0.58816990      -0.69452029
C        1.17505449      -0.36590087      -0.01283618
O        0.18179797       0.20494983       1.07581390
C       -0.72239636      -0.91987971       0.67470092
C       -2.01596069      -0.16549547       0.54304193
C       -1.22423253       1.03207037       0.04617394
C       -0.02013365      -0.91814632      -0.67221881
H        1.56238780       1.30674118      -1.30281083
H        2.72924634       1.13823743       0.02059866
H        2.78359261       0.03509873      -1.35690165
H        1.74327762      -1.04289023       0.64705789
H       -0.62862171      -1.74537493       1.39249898
H       -2.55068217       0.01543713       1.47765440
H       -2.69467308      -0.56935089      -0.20835143
H       -1.27895537       1.29185687      -1.00120731
H       -1.18179480       1.91757792       0.67324223
H        0.02834193      -1.80310096      -1.30193636
17
Frame=5 idx=010657 GeodesicLength=0.421377838418418 rxn_smarts="[C:1]([C@@:2]1([H:11])[O:3][C@@:4]2([H:12])[C:5]([H:13])([H:14])[C:6]([H:15])([H:16])[C@@:7]12[H:17])([H:8])([H:9])[H:10]>>[C:1](/[C:2](=[C:7](/[C@@:4]1([H:12])[O:3][C:6]([H:15])([H:16])[C:5]1([H:13])[H:14])[H:17])[H:11])([H:8])([H:9])[H:10]"
C        2.12648384       0.58107130      -0.70316860
C        1.18452101      -0.36385648      -0.01312651
O        0.17224540       0.20103018       1.10036713
C       -0.72167040      -0.91933268       0.68236289
C       -2.02029141      -0.17041915       0.54413333
C       -1.22498271       1.02700410       0.04943197
C       -0.01857861      -0.89976403      -0.66368397
H        1.58105564       1.28989889      -1.32827695
H        2.73491118       1.14673805       0.00588879
H        2.80497537       0.02098961      -1.35094094
H        1.75239105      -1.03448115       0.65183346
H       -0.64009167      -1.75666602       1.38658122
H       -2.56020209       0.00774528       1.47604697
H       -2.69799356      -0.57231661      -0.20912385
H       -1.30073208       1.30097189      -0.99399260
H       -1.19525149       1.91679479       0.67230927
H        0.02321053      -1.77540798      -1.30664161
17
Frame=6 idx=010657 GeodesicLength=0.5056910178733393 rxn_smarts="[C:1]([C@@:2]1([H:11])[O:3][C@@:4]2([H:12])[C:5]([H:13])([H:14])[C:6]([H:15])([H:16])[C@@:7]12[H:17])([H:8])([H:9])[H:10]>>[C:1](/[C:2](=[C:7](/[C@@:4]1([H:12])[O:3][C:6]([H:15])([H:16])[C:5]1([H:13])[H:14])[H:17])[H:11])([H:8])([H:9])[H:10]"
C        2.13940118       0.57367955      -0.71226941
C        1.19410798      -0.36157278      -0.01347458
O        0.16213085       0.19694031       1.12541611
C       -0.72100546      -0.91882090       0.69002185
C       -2.02466366      -0.17544761       0.54500774
C       -1.22579128       1.02214376       0.05311540
C       -0.01681635      -0.88110740      -0.65476411
H        1.60015013       1.27169902      -1.35490781
H        2.74031101       1.15562932      -0.00992721
H        2.82676817       0.00640916      -1.34448291
H        1.76152384      -1.02518274       0.65719467
H       -0.65166153      -1.76793121       1.38008463
H       -2.57005267      -0.00046121       1.47408733
H       -2.70110780      -0.57516273      -0.21044583
H       -1.32235964       1.31039966      -0.98574059
H       -1.20900886       1.91573900       0.67222136
H        0.01807410      -1.74695320      -1.31113664
17
Frame=7 idx=010657 GeodesicLength=0.5900375189060169 rxn_smarts="[C:1]([C@@:2]1([H:11])[O:3][C@@:4]2([H:12])[C:5]([H:13])([H:14])[C:6]([H:15])([H:16])[C@@:7]12[H:17])([H:8])([H:9])[H:10]>>[C:1](/[C:2](=[C:7](/[C@@:4]1([H:12])[O:3][C:6]([H:15])([H:16])[C:5]1([H:13])[H:14])[H:17])[H:11])([H:8])([H:9])[H:10]"
C        2.15249636       0.56597929      -0.72184001
C        1.20382403      -0.35904543      -0.01387893
O        0.15141423       0.19265329       1.15098728
C       -0.72040548      -0.91834895       0.69767820
C       -2.02907658      -0.18058606       0.54564994
C       -1.22666223       1.01749900       0.05724748
C       -0.01484009      -0.86216217      -0.64543933
H        1.61966227       1.25202969      -1.38270919
H        2.74543307       1.16490620      -0.02693416
H        2.84896575      -0.00862241      -1.33749996
H        1.77068464      -1.01492335       0.66317787
H       -0.66331527      -1.77916481       1.37298586
H       -2.58024393      -0.00920935       1.47174792
H       -2.70400113      -0.57788172      -0.21234736
H       -1.34377947       1.32013877      -0.97643414
H       -1.22307630       1.91441027       0.67302182
H        0.01292014      -1.71767227      -1.31541328
17
Frame=8 idx=010657 GeodesicLength=0.6744160815136497 rxn_smarts="[C:1]([C@@:2]1([H:11])[O:3][C@@:4]2([H:12])[C:5]([H:13])([H:14])[C:6]([H:15])([H:16])[C@@:7]12[H:17])([H:8])([H:9])[H:10]>>[C:1](/[C:2](=[C:7](/[C@@:4]1([H:12])[O:3][C:6]([H:15])([H:16])[C:5]1([H:13])[H:14])[H:17])[H:11])([H:8])([H:9])[H:10]"
C        2.16576866       0.55794314      -0.73189155
C        1.21367623      -0.35625568      -0.01433358
O        0.14005098       0.18813253       1.17710976
C       -0.71987599      -0.91792359       0.70532718
C       -2.03352809      -0.18583695       0.54604334
C       -1.22760473       1.01307853       0.06186262
C       -0.01264264      -0.84290551      -0.63568748
H        1.63959216       1.23073236      -1.41167337
H        2.75025365       1.17456728      -0.04526317
H        2.87156415      -0.02407862      -1.32994409
H        1.77988059      -1.00361031       0.66981684
H       -0.67503150      -1.79036322       1.36525242
H       -2.59078672      -0.01853077       1.46899358
H       -2.70665176      -0.58045402      -0.21486190
H       -1.36493838       1.33018884      -0.96604957
H       -1.23746811       1.91280242       0.67476373
H        0.00774150      -1.68748642      -1.31946476
17
Frame=9 idx=010657 GeodesicLength=0.7588740228493773 rxn_smarts="[C:1]([C@@:2]1([H:11])[O:3][C@@:4]2([H:12])[C:5]([H:13])([H:14])[C:6]([H:15])([H:16])[C@@:7]12[H:17])([H:8])([H:9])[H:10]>>[C:1](/[C:2](=[C:7](/[C@@:4]1([H:12])[O:3][C:6]([H:15])([H:16])[C:5]1([H:13])[H:14])[H:17])[H:11])([H:8])([H:9])[H:10]"
C        2.17924334       0.54951069      -0.74246456
C        1.22367980      -0.35315017      -0.01483523
O        0.12797865       0.18332703       1.20381838
C       -0.71941695      -0.91753687       0.71295658
C       -2.03802216      -0.19120672       0.54615828
C       -1.22864742       1.00890482       0.06705123
C       -0.01021314      -0.82325298      -0.62548249
H        1.65997935       1.20759462      -1.44172848
H        2.75478034       1.18453111      -0.06512117
H        2.89456115      -0.03995756      -1.32179047
H        1.78908980      -0.99099403       0.67714139
H       -0.68678116      -1.80152742       1.35684310
H       -2.60171205      -0.02849697       1.46575916
H       -2.70902049      -0.58284077      -0.21805509
H       -1.38581429       1.34059336      -0.95454982
H       -1.25225429       1.91089229       0.67756218
H        0.00256951      -1.65639042      -1.32326301
17
Frame=10 idx=010657 GeodesicLength=0.8433866078919545 rxn_smarts="[C:1]([C@@:2]1([H:11])[O:3][C@@:4]2([H:12])[C:5]([H:13])([H:14])[C:6]([H:15])([H:16])[C@@:7]12[H:17])([H:8])([H:9])[H:10]>>[C:1](/[C:2](=[C:7](/[C@@:4]1([H:12])[O:3][C:6]([H:15])([H:16])[C:5]1([H:13])[H:14])[H:17])[H:11])([H:8])([H:9])[H:10]"
C        2.19289258       0.54067490      -0.75355372
C        1.23384145      -0.34975639      -0.01537501
O        0.11516195       0.17820162       1.23113841
C       -0.71903412      -0.91720937       0.72056842
C       -2.04254987      -0.19669999       0.54598741
C       -1.22977124       1.00497884       0.07280554
C       -0.00754505      -0.80322923      -0.61479997
H        1.68078425       1.18247260      -1.47294343
H        2.75894399       1.19486257      -0.08658638
H        2.91797453      -0.05620785      -1.31294826
H        1.79834180      -0.97707612       0.68520745
H       -0.69854842      -1.81265857       1.34771910
H       -2.61301198      -0.03911535       1.46203628
H       -2.71110079      -0.58504260      -0.22193796
H       -1.40633388       1.35132943      -0.94191796
H       -1.26739314       1.90868750       0.68142694
H       -0.00265207      -1.62421200      -1.32682685
17
Frame=11 idx=010657 GeodesicLength=0.9279621116194381 rxn_smarts="[C:1]([C@@:2]1([H:11])[O:3][C@@:4]2([H:12])[C:5]([H:13])([H:14])[C:6]([H:15])([H:16])[C@@:7]12[H:17])([H:8])([H:9])[H:10]>>[C:1](/[C:2](=[C:7](/[C@@:4]1([H:12])[O:3][C:6]([H:15])([H:16])[C:5]1([H:13])[H:14])[H:17])[H:11])([H:8])([H:9])[H:10]"
C        2.20671441       0.53138941      -0.76518438
C        1.24417461      -0.34606569      -0.01594241
O        0.10155118       0.17270864       1.25910269
C       -0.71873018      -0.91695009       0.72815846
C       -2.04710733      -0.20232327       0.54550962
C       -1.23097778       1.00131162       0.07917121
C       -0.00462584      -0.78280175      -0.60360960
H        1.70199082       1.15519269      -1.50530886
H        2.76271225       1.20554780      -0.10979916
H        2.94180681      -0.07280825      -1.30337446
H        1.80764334      -0.96171638       0.69406946
H       -0.71031023      -1.82375882       1.33783358
H       -2.62469802      -0.05042724       1.45777937
H       -2.71286444      -0.58703770      -0.22655363
H       -1.42644861       1.36240947      -0.92812919
H       -1.28289822       1.90617882       0.68642333
H       -0.00793278      -1.59084926      -1.33014603
17
Frame=12 idx=010657 GeodesicLength=1.0125945674584482 rxn_smarts="[C:1]([C@@:2]1([H:11])[O:3][C@@:4]2([H:12])[C:5]([H:13])([H:14])[C:6]([H:15])([H:16])[C@@:7]12[H:17])([H:8])([H:9])[H:10]>>[C:1](/[C:2](=[C:7](/[C@@:4]1([H:12])[O:3][C:6]([H:15])([H:16])[C:5]1([H:13])[H:14])[H:17])[H:11])([H:8])([H:9])[H:10]"
C        2.22070955       0.52161080      -0.77736982
C        1.25468965      -0.34205435      -0.01652825
O        0.08709229       0.16679135       1.28774136
C       -0.71850610      -0.91676756       0.73571458
C       -2.05168844      -0.20808097       0.54470295
C       -1.23227215       0.99791492       0.08620088
C       -0.00144441      -0.76192997      -0.59188274
H        1.72358984       1.12553394      -1.53880875
H        2.76604876       1.21656058      -0.13493755
H        2.96606767      -0.08972861      -1.29299751
H        1.81699756      -0.94475087       0.70377733
H       -0.72203620      -1.83483428       1.32712755
H       -2.63677793      -0.06248018       1.45294383
H       -2.71428269      -0.58879749      -0.23194674
H       -1.44611979       1.37384975      -0.91315095
H       -1.29878616       1.90335263       0.69262448
H       -0.01328144      -1.55618971      -1.33321066
17
Frame=13 idx=010657 GeodesicLength=1.0972891695755282 rxn_smarts="[C:1]([C@@:2]1([H:11])[O:3][C@@:4]2([H:12])[C:5]([H:13])([H:14])[C:6]([H:15])([H:16])[C@@:7]12[H:17])([H:8])([H:9])[H:10]>>[C:1](/[C:2](=[C:7](/[C@@:4]1([H:12])[O:3][C:6]([H:15])([H:16])[C:5]1([H:13])[H:14])[H:17])[H:11])([H:8])([H:9])[H:10]"
C        2.23487047       0.51129700      -0.79013727
C        1.26540255      -0.33771396      -0.01712227
O        0.07172796       0.16038794       1.31708427
C       -0.71836247      -0.91667139       0.74322699
C       -2.05628799      -0.21397944       0.54354152
C       -1.23365456       0.99479975       0.09394617
C        0.00201230      -0.74057427      -0.57958423
H        1.74556364       1.09331216      -1.57339995
H        2.76893804       1.22785115      -0.16215510
H        2.99074505      -0.10694819      -1.28179596
H        1.82641003      -0.92599753       0.71439498
H       -0.73369631      -1.84588570       1.31554479
H       -2.64926596      -0.07531989       1.44747754
H       -2.71532175      -0.59029623      -0.23816646
H       -1.46530841       1.38565932      -0.89695945
H       -1.31507449       1.90019656       0.70010086
H       -0.01869810      -1.52011727      -1.33599643
17
Frame=14 idx=010657 GeodesicLength=1.182050012667839 rxn_smarts="[C:1]([C@@:2]1([H:11])[O:3][C@@:4]2([H:12])[C:5]([H:13])([H:14])[C:6]([H:15])([H:16])[C@@:7]12[H:17])([H:8])([H:9])[H:10]>>[C:1](/[C:2](=[C:7](/[C@@:4]1([H:12])[O:3][C:6]([H:15])([H:16])[C:5]1([H:13])[H:14])[H:17])[H:11])([H:8])([H:9])[H:10]"
C        2.24920231       0.50037776      -0.80350169
C        1.27632692      -0.33301414      -0.01771295
O        0.05539362       0.15341348       1.34716315
C       -0.71829942      -0.91667572       0.75067494
C       -2.06089520      -0.22002294       0.54199763
C       -1.23513292       0.99197701       0.10248005
C        0.00575934      -0.71867559      -0.56667777
H        1.76791328       1.05819829      -1.60905015
H        2.77131283       1.23938159      -0.19171127
H        3.01587062      -0.12441090      -1.26964915
H        1.83587949      -0.90521311       0.72597859
H       -0.74524966      -1.85692400       1.30300231
H       -2.66216535      -0.08900891       1.44131820
H       -2.71593970      -0.59148784      -0.24526735
H       -1.48398497       1.39787203      -0.87949601
H       -1.33178803       1.89668382       0.70895246
H       -0.02420318      -1.48247083      -1.33850098
17
Frame=15 idx=010657 GeodesicLength=1.2668857541506333 rxn_smarts="[C:1]([C@@:2]1([H:11])[O:3][C@@:4]2([H:12])[C:5]([H:13])([H:14])[C:6]([H:15])([H:16])[C@@:7]12[H:17])([H:8])([H:9])[H:10]>>[C:1](/[C:2](=[C:7](/[C@@:4]1([H:12])[O:3][C:6]([H:15])([H:16])[C:5]1([H:13])[H:14])[H:17])[H:11])([H:8])([H:9])[H:10]"
C        2.26370264       0.48878654      -0.81748383
C        1.28747941      -0.32793456      -0.01828820
O        0.03802077       0.14577297       1.37800898
C       -0.71831641      -0.91679433       0.75803528
C       -2.06550018      -0.22621563       0.54003849
C       -1.23670857       0.98946292       0.11188183
C        0.00981194      -0.69617008      -0.55312273
H        1.79063336       1.01987984      -1.64571002
H        2.77311617       1.25109339      -0.22385379
H        3.04146082      -0.14206770      -1.25647634
H        1.84540337      -0.88212365       0.73859352
H       -0.75665775      -1.86795896       1.28940667
H       -2.67548575      -0.10361203       1.43439813
H       -2.71609276      -0.59232365      -0.25331233
H       -1.50211922       1.41052479      -0.86070257
H       -1.34895154       1.89278933       0.71928965
H       -0.02979631      -1.44310918      -1.34070274
17
Frame=16 idx=010657 GeodesicLength=1.35179642790276 rxn_smarts="[C:1]([C@@:2]1([H:11])[O:3][C@@:4]2([H:12])[C:5]([H:13])([H:14])[C:6]([H:15])([H:16])[C@@:7]12[H:17])([H:8])([H:9])[H:10]>>[C:1](/[C:2](=[C:7](/[C@@:4]1([H:12])[O:3][C:6]([H:15])([H:16])[C:5]1([H:13])[H:14])[H:17])[H:11])([H:8])([H:9])[H:10]"
C        2.27836782       0.47644163      -0.83210257
C        1.29887863      -0.32245647      -0.01883336
O        0.01953620       0.13736695       1.40964440
C       -0.71840991      -0.91704159       0.76528324
C       -2.07008912      -0.23256480       0.53762684
C       -1.23838515       0.98727178       0.12222898
C        0.01418911      -0.67299248      -0.53886995
H        1.81370738       0.97806282      -1.68324949
H        2.77432571       1.26285494      -0.25884853
H        3.06750234      -0.15985064      -1.24223622
H        1.85497271      -0.85639418       0.75230841
H       -0.76787222      -1.87899678       1.27466979
H       -2.68923265      -0.11919948       1.42663952
H       -2.71572841      -0.59275891      -0.26237036
H       -1.51968620       1.42365404      -0.84052560
H       -1.36659547       1.88848545       0.73121468
H       -0.03548077      -1.40188226      -1.34257978
