14
Frame=0 idx=002605 GeodesicLength=0.0 rxn_smarts="[C:1]([C@@:2]([O:3][H:11])([C@@:4]1([H:12])[C:5]([H:13])([H:14])[O:6]1)[H:10])([H:7])([H:8])[H:9]>>[C:1]([C@@:2]1([H:10])[C@@:4]([O:6][O:3][H:11])([H:12])[C:5]1([H:13])[H:14])([H:7])([H:8])[H:9]"
C        1.37042364      -0.77026448       0.88923865
C        0.21210891       0.04047781       0.49805379
O        0.86920565       1.79064999      -0.75222700
C       -0.50594746      -0.07334327      -0.75004791
C       -1.81101475      -0.57145486      -0.36584885
O       -0.87711734       1.16127790      -1.16317885
H        1.52259142      -1.62110817       0.22680727
H        2.22791458      -0.09238636       0.76547598
H        1.34816639      -1.08995290       1.93047709
H       -0.23858681       0.71363403       1.21804516
H        0.49489611       2.65322116      -0.55044775
H        0.01708849      -0.68427211      -1.49457040
H       -2.35866665      -0.03075378       0.39210130
H       -2.27106214      -1.42572493      -0.84387847
14
Frame=1 idx=002605 GeodesicLength=0.06055184655693226 rxn_smarts="[C:1]([C@@:2]([O:3][H:11])([C@@:4]1([H:12])[C:5]([H:13])([H:14])[O:6]1)[H:10])([H:7])([H:8])[H:9]>>[C:1]([C@@:2]1([H:10])[C@@:4]([O:6][O:3][H:11])([H:12])[C:5]1([H:13])[H:14])([H:7])([H:8])[H:9]"
C        1.36602605      -0.77063789       0.88617225
C        0.21428589       0.04930523       0.48695802
O        0.86029335       1.78916174      -0.75397905
C       -0.49398995      -0.07798792      -0.76775702
C       -1.79554981      -0.55870618      -0.35340582
O       -0.88877085       1.15222473      -1.18023996
H        1.52965599      -1.61305204       0.21554141
H        2.22937883      -0.09637930       0.79184435
H        1.31880525      -1.10967562       1.92059388
H       -0.23411220       0.71947403       1.21156393
H        0.47306287       2.64087860      -0.53165463
H        0.02525592      -0.69062529      -1.51158914
H       -2.34771872      -0.00897214       0.39477298
H       -2.25662260      -1.42500796      -0.80882119
14
Frame=2 idx=002605 GeodesicLength=0.12131435181568498 rxn_smarts="[C:1]([C@@:2]([O:3][H:11])([C@@:4]1([H:12])[C:5]([H:13])([H:14])[O:6]1)[H:10])([H:7])([H:8])[H:9]>>[C:1]([C@@:2]1([H:10])[C@@:4]([O:6][O:3][H:11])([H:12])[C:5]1([H:13])[H:14])([H:7])([H:8])[H:9]"
C        1.36156772      -0.77101824       0.88316157
C        0.21646540       0.05817299       0.47620605
O        0.85132735       1.78761692      -0.75577626
C       -0.48238704      -0.08244610      -0.78477849
C       -1.77993268      -0.54576238      -0.34127384
O       -0.90049599       1.14305945      -1.19661132
H        1.53708338      -1.60451265       0.20428009
H        2.23002175      -0.10075281       0.81887421
H        1.28930835      -1.12972984       1.90961098
H       -0.22934051       0.72531613       1.20558266
H        0.45143737       2.62823169      -0.51458596
H        0.03315464      -0.69655492      -1.52807875
H       -2.33679300       0.01202964       0.39746368
H       -2.24141676      -1.42364986      -0.77407460
14
Frame=3 idx=002605 GeodesicLength=0.18217344104727934 rxn_smarts="[C:1]([C@@:2]([O:3][H:11])([C@@:4]1([H:12])[C:5]([H:13])([H:14])[O:6]1)[H:10])([H:7])([H:8])[H:9]>>[C:1]([C@@:2]1([H:10])[C@@:4]([O:6][O:3][H:11])([H:12])[C:5]1([H:13])[H:14])([H:7])([H:8])[H:9]"
C        1.35706765      -0.77140198       0.88023039
C        0.21866895       0.06709679       0.46579999
O        0.84234992       1.78610597      -0.75760421
C       -0.47111195      -0.08674601      -0.80116481
C       -1.76421361      -0.53272737      -0.32946369
O       -0.91229553       1.13376745      -1.21232624
H        1.54467699      -1.59570754       0.19320315
H        2.22996637      -0.10562032       0.84625302
H        1.25983298      -1.14979530       1.89767623
H       -0.22429732       0.73117976       1.20012610
H        0.43004284       2.61543846      -0.49901641
H        0.04084664      -0.70209613      -1.54412127
H       -2.32593942       0.03220205       0.40021887
H       -2.22559451      -1.42169584      -0.73981113
14
Frame=4 idx=002605 GeodesicLength=0.24321384851959857 rxn_smarts="[C:1]([C@@:2]([O:3][H:11])([C@@:4]1([H:12])[C:5]([H:13])([H:14])[O:6]1)[H:10])([H:7])([H:8])[H:9]>>[C:1]([C@@:2]1([H:10])[C@@:4]([O:6][O:3][H:11])([H:12])[C:5]1([H:13])[H:14])([H:7])([H:8])[H:9]"
C        1.35251078      -0.77180497       0.87738017
C        0.22090439       0.07607053       0.45571284
O        0.83330272       1.78463261      -0.75945775
C       -0.46013629      -0.09089883      -0.81693664
C       -1.74835379      -0.51960270      -0.31796436
O       -0.92417317       1.12432258      -1.22742493
H        1.55236890      -1.58668934       0.18242224
H        2.22918102      -0.11108514       0.87385504
H        1.23045183      -1.16975780       1.88479612
H       -0.21899895       0.73704324       1.19512605
H        0.40881520       2.60255366      -0.48480086
H        0.04835738      -0.70726212      -1.55969693
H       -2.31508657       0.05160507       0.40300725
H       -2.20914344      -1.41912680      -0.70601824
14
Frame=5 idx=002605 GeodesicLength=0.30448348053915547 rxn_smarts="[C:1]([C@@:2]([O:3][H:11])([C@@:4]1([H:12])[C:5]([H:13])([H:14])[O:6]1)[H:10])([H:7])([H:8])[H:9]>>[C:1]([C@@:2]1([H:10])[C@@:4]([O:6][O:3][H:11])([H:12])[C:5]1([H:13])[H:14])([H:7])([H:8])[H:9]"
C        1.34792256      -0.77220282       0.87460062
C        0.22318082       0.08509233       0.44591686
O        0.82422391       1.78308644      -0.76142104
C       -0.44946935      -0.09491616      -0.83210215
C       -1.73241628      -0.50635563      -0.30672771
O       -0.93612419       1.11470823      -1.24194138
H        1.56046586      -1.57717985       0.17173315
H        2.22756502      -0.11699682       0.90209631
H        1.20099915      -1.18994083       1.87077264
H       -0.21340665       0.74294856       1.19050503
H        0.38778235       2.58948501      -0.47197232
H        0.05562710      -0.71211770      -1.57479452
H       -2.30424873       0.07038286       0.40588661
H       -2.19210157      -1.41599363      -0.67255210
14
Frame=6 idx=002605 GeodesicLength=0.365917856815492 rxn_smarts="[C:1]([C@@:2]([O:3][H:11])([C@@:4]1([H:12])[C:5]([H:13])([H:14])[O:6]1)[H:10])([H:7])([H:8])[H:9]>>[C:1]([C@@:2]1([H:10])[C@@:4]([O:6][O:3][H:11])([H:12])[C:5]1([H:13])[H:14])([H:7])([H:8])[H:9]"
C        1.34330040      -0.77260184       0.87190543
C        0.22550653       0.09416635       0.43641109
O        0.81513018       1.78154711      -0.76348142
C       -0.43909215      -0.09882836      -0.84670826
C       -1.71642147      -0.49304345      -0.29575484
O       -0.94814468       1.10490245      -1.25592188
H        1.56885128      -1.56730108       0.16124075
H        2.22516987      -0.12344163       0.93077750
H        1.17157314      -1.21015239       1.85569423
H       -0.20754848       0.74889807       1.18627860
H        0.36696428       2.57636936      -0.46036838
H        0.06269369      -0.71669970      -1.58947261
H       -2.29343561       0.08852968       0.40885969
H       -2.17454699      -1.41234456      -0.63945989
14
Frame=7 idx=002605 GeodesicLength=0.42753685377913697 rxn_smarts="[C:1]([C@@:2]([O:3][H:11])([C@@:4]1([H:12])[C:5]([H:13])([H:14])[O:6]1)[H:10])([H:7])([H:8])[H:9]>>[C:1]([C@@:2]1([H:10])[C@@:4]([O:6][O:3][H:11])([H:12])[C:5]1([H:13])[H:14])([H:7])([H:8])[H:9]"
C        1.33864646      -0.77300426       0.86929997
C        0.22789035       0.10328908       0.42718067
O        0.80600839       1.78001164      -0.76564381
C       -0.42898936      -0.10264316      -0.86077464
C       -1.70037321      -0.47967503      -0.28503731
O       -0.96023685       1.09489425      -1.26938614
H        1.57750962      -1.55706288       0.15099415
H        2.22197627      -0.13045817       0.95986141
H        1.14221971      -1.23034136       1.83955647
H       -0.20142535       0.75489040       1.18240803
H        0.34633792       2.56322517      -0.44990816
H        0.06956650      -0.72102485      -1.60373609
H       -2.28262681       0.10608742       0.41193013
H       -2.15650364      -1.40818826      -0.60674468
14
Frame=8 idx=002605 GeodesicLength=0.4892972267559052 rxn_smarts="[C:1]([C@@:2]([O:3][H:11])([C@@:4]1([H:12])[C:5]([H:13])([H:14])[O:6]1)[H:10])([H:7])([H:8])[H:9]>>[C:1]([C@@:2]1([H:10])[C@@:4]([O:6][O:3][H:11])([H:12])[C:5]1([H:13])[H:14])([H:7])([H:8])[H:9]"
C        1.33396633      -0.77340946       0.86679324
C        0.23034322       0.11246048       0.41821808
O        0.79687657       1.77850277      -0.76791941
C       -0.41915111      -0.10637309      -0.87433430
C       -1.68430048      -0.46627385      -0.27456780
O       -0.97239694       1.08467628      -1.28236642
H        1.58643372      -1.54647505       0.14101374
H        2.21798628      -0.13805917       0.98932833
H        1.11296888      -1.25047175       1.82237442
H       -0.19503463       0.76093211       1.17888322
H        0.32591338       2.55009611      -0.44051554
H        0.07625048      -0.72511903      -1.61762266
H       -2.27183154       0.12308727       0.41511573
H       -2.13802414      -1.40357362      -0.57440063
14
Frame=9 idx=002605 GeodesicLength=0.5513836591928677 rxn_smarts="[C:1]([C@@:2]([O:3][H:11])([C@@:4]1([H:12])[C:5]([H:13])([H:14])[O:6]1)[H:10])([H:7])([H:8])[H:9]>>[C:1]([C@@:2]1([H:10])[C@@:4]([O:6][O:3][H:11])([H:12])[C:5]1([H:13])[H:14])([H:7])([H:8])[H:9]"
C        1.32922715      -0.77384625       0.86437103
C        0.23285890       0.12166993       0.40949178
O        0.78764832       1.77703602      -0.77023205
C       -0.40954557      -0.11002595      -0.88740296
C       -1.66814268      -0.45278814      -0.26437142
O       -0.98463705       1.07420107      -1.29489070
H        1.59550042      -1.53563271       0.13147549
H        2.21314694      -0.14644928       1.01892515
H        1.08394063      -1.27033142       1.80412898
H       -0.18843828       0.76697433       1.17563927
H        0.30560556       2.53704525      -0.43202433
H        0.08280891      -0.72897526      -1.63109219
H       -2.26099688       0.13960872       0.41828864
H       -2.11897638      -1.39848632      -0.54230669
14
Frame=10 idx=002605 GeodesicLength=0.613777249798448 rxn_smarts="[C:1]([C@@:2]([O:3][H:11])([C@@:4]1([H:12])[C:5]([H:13])([H:14])[O:6]1)[H:10])([H:7])([H:8])[H:9]>>[C:1]([C@@:2]1([H:10])[C@@:4]([O:6][O:3][H:11])([H:12])[C:5]1([H:13])[H:14])([H:7])([H:8])[H:9]"
C        1.32447246      -0.77427918       0.86204046
C        0.23547335       0.13093282       0.40097821
O        0.77835133       1.77548741      -0.77271132
C       -0.40016603      -0.11358994      -0.89995479
C       -1.65194343      -0.43924758      -0.25436406
O       -0.99695558       1.06349503      -1.30690122
H        1.60496310      -1.52432151       0.12218469
H        2.20740073      -0.15541409       1.04906752
H        1.05497943      -1.29022375       1.78469419
H       -0.18153670       0.77310904       1.17259043
H        0.28538598       2.52384932      -0.42455009
H        0.08918754      -0.73263211      -1.64412165
H       -2.25009289       0.15570322       0.42163735
H       -2.09951927      -1.39286867      -0.51058972
14
Frame=11 idx=002605 GeodesicLength=0.6763693688089435 rxn_smarts="[C:1]([C@@:2]([O:3][H:11])([C@@:4]1([H:12])[C:5]([H:13])([H:14])[O:6]1)[H:10])([H:7])([H:8])[H:9]>>[C:1]([C@@:2]1([H:10])[C@@:4]([O:6][O:3][H:11])([H:12])[C:5]1([H:13])[H:14])([H:7])([H:8])[H:9]"
C        1.31967907      -0.77473008       0.85982079
C        0.23818668       0.14024824       0.39268691
O        0.76901677       1.77399987      -0.77532102
C       -0.39101073      -0.11709776      -0.91206876
C       -1.63572785      -0.42569002      -0.24457828
O       -1.00935415       1.05253109      -1.31848776
H        1.61466861      -1.51267463       0.11325868
H        2.20078606      -0.16507728       1.07950911
H        1.02619815      -1.30994752       1.76418946
H       -0.17437317       0.77931222       1.16980265
H        0.26532653       2.51073275      -0.41793153
H        0.09541688      -0.73611087      -1.65681907
H       -2.23915512       0.17135487       0.42510391
H       -2.07965773      -1.38685087      -0.47916508
14
Frame=12 idx=002605 GeodesicLength=0.7392222940206206 rxn_smarts="[C:1]([C@@:2]([O:3][H:11])([C@@:4]1([H:12])[C:5]([H:13])([H:14])[O:6]1)[H:10])([H:7])([H:8])[H:9]>>[C:1]([C@@:2]1([H:10])[C@@:4]([O:6][O:3][H:11])([H:12])[C:5]1([H:13])[H:14])([H:7])([H:8])[H:9]"
C        1.31483974      -0.77520972       0.85771115
C        0.24101021       0.14961188       0.38459751
O        0.75960544       1.77257115      -0.77804548
C       -0.38205540      -0.12054809      -0.92375252
C       -1.61947677      -0.41210576      -0.23501234
O       -1.02183447       1.04129552      -1.32964679
H        1.62456176      -1.50074338       0.10476385
H        2.19328448      -0.17550156       1.11015712
H        0.99764510      -1.32940880       1.74263031
H       -0.16694887       0.78557584       1.16722762
H        0.24536395       2.49769023      -0.41209834
H        0.10152441      -0.73940774      -1.66917107
H       -2.22814957       0.18659866       0.42867027
H       -2.05937001      -1.38041823      -0.44803129
14
Frame=13 idx=002605 GeodesicLength=0.8023591618276099 rxn_smarts="[C:1]([C@@:2]([O:3][H:11])([C@@:4]1([H:12])[C:5]([H:13])([H:14])[O:6]1)[H:10])([H:7])([H:8])[H:9]>>[C:1]([C@@:2]1([H:10])[C@@:4]([O:6][O:3][H:11])([H:12])[C:5]1([H:13])[H:14])([H:7])([H:8])[H:9]"
C        1.30995395      -0.77571598       0.85571373
C        0.24394677       0.15902269       0.37669758
O        0.75011280       1.77119005      -0.78089376
C       -0.37329110      -0.12394171      -0.93502210
C       -1.60319468      -0.39849782      -0.22565727
O       -1.03440322       1.02978437      -1.34037918
H        1.63465488      -1.48851952       0.09671790
H        2.18485901      -0.18669026       1.14100324
H        0.96936014      -1.34860024       1.72000901
H       -0.15927062       0.79190914       1.16483769
H        0.22549761       2.48469823      -0.40700956
H        0.10752084      -0.74253500      -1.68118535
H       -2.21707405       0.20147295       0.43234873
H       -2.03867233      -1.37357692      -0.41718066
14
Frame=14 idx=002605 GeodesicLength=0.8658115356960868 rxn_smarts="[C:1]([C@@:2]([O:3][H:11])([C@@:4]1([H:12])[C:5]([H:13])([H:14])[O:6]1)[H:10])([H:7])([H:8])[H:9]>>[C:1]([C@@:2]1([H:10])[C@@:4]([O:6][O:3][H:11])([H:12])[C:5]1([H:13])[H:14])([H:7])([H:8])[H:9]"
C        1.30501824      -0.77625653       0.85383428
C        0.24701311       0.16847483       0.36897541
O        0.74050631       1.76987182      -0.78384258
C       -0.36469813      -0.12728841      -0.94588968
C       -1.58686930      -0.38487073      -0.21651542
O       -1.04705875       1.01796800      -1.35068430
H        1.64485925      -1.47606982       0.08919047
H        2.17554508      -0.19869715       1.17191568
H        0.94138544      -1.36738636       1.69639626
H       -0.15132625       0.79829994       1.16260882
H        0.20567041       2.47176752      -0.40258443
H        0.11342536      -0.74548765      -1.69286683
H       -2.20588739       0.21597772       0.43612310
H       -2.01758338      -1.36630318      -0.38666078
14
Frame=15 idx=002605 GeodesicLength=0.9295299469120505 rxn_smarts="[C:1]([C@@:2]([O:3][H:11])([C@@:4]1([H:12])[C:5]([H:13])([H:14])[O:6]1)[H:10])([H:7])([H:8])[H:9]>>[C:1]([C@@:2]1([H:10])[C@@:4]([O:6][O:3][H:11])([H:12])[C:5]1([H:13])[H:14])([H:7])([H:8])[H:9]"
C        1.30003693      -0.77681905       0.85208144
C        0.25019428       0.17795855       0.36143695
O        0.73079651       1.76862688      -0.78686465
C       -0.35626176      -0.13057020      -0.95637625
C       -1.57051020      -0.37126040      -0.20760420
O       -1.05980595       1.00587330      -1.36053743
H        1.65502146      -1.46356441       0.08226755
H        2.16539362      -0.21151208       1.20266660
H        0.91388246      -1.38559622       1.67197421
H       -0.14315883       0.80474119       1.16053949
H        0.18591025       2.45890413      -0.39874099
H        0.11927684      -0.74824209      -1.70424272
H       -2.19462964       0.23008963       0.43999883
H       -1.99614597      -1.35862921      -0.35659883
14
Frame=16 idx=002605 GeodesicLength=0.9934955235026811 rxn_smarts="[C:1]([C@@:2]([O:3][H:11])([C@@:4]1([H:12])[C:5]([H:13])([H:14])[O:6]1)[H:10])([H:7])([H:8])[H:9]>>[C:1]([C@@:2]1([H:10])[C@@:4]([O:6][O:3][H:11])([H:12])[C:5]1([H:13])[H:14])([H:7])([H:8])[H:9]"
C        1.29501098      -0.77739775       0.85046229
C        0.25348290       0.18745914       0.35408467
O        0.72097370       1.76746883      -0.78990978
C       -0.34796193      -0.13377728      -0.96649960
C       -1.55411571      -0.35769197      -0.19894806
O       -1.07263846       0.99350620      -1.36991734
H        1.66495116      -1.45118720       0.07603081
H        2.15451643      -0.22512520       1.23298599
H        0.88696287      -1.40302083       1.64696923
H       -0.13479575       0.81120844       1.15862424
H        0.16620375       2.44611291      -0.39537644
H        0.12511064      -0.75076284      -1.71533441
H       -2.18330451       0.24377165       0.44394790
H       -1.97439608      -1.35056408      -0.32711951
