12
Frame=0 idx=005660 GeodesicLength=0.0 rxn_smarts="[N:1]([c:2]1[c:3]([H:9])[n:4]([H:10])[c:5]([H:11])[c:6]1[H:12])([H:7])[H:8]>>[N+:1]([C:2]1=[C:6]=[C:5]([H:11])[N:4]([H:10])[C-:3]1[H:9])([H:7])([H:8])[H:12]"
N       -1.91512514      -0.21786114      -0.08205912
C       -0.48753829       0.05572005      -0.00873681
C        0.36622464       1.11277421       0.14771187
N        1.60156859       0.52856742       0.11193829
C        1.48839304      -0.83951394      -0.06127047
C        0.15798219      -1.18729611      -0.14370682
H       -2.40105206       0.15643214      -0.89019794
H       -2.44734267      -0.04607121       0.76443023
H        0.23774274       2.17498879       0.27718078
H        2.46512817       1.03336146       0.19770750
H        2.38961580      -1.43321378      -0.10685476
H       -1.45559700      -1.33788793      -0.20614279
12
Frame=1 idx=005660 GeodesicLength=0.05411615257613877 rxn_smarts="[N:1]([c:2]1[c:3]([H:9])[n:4]([H:10])[c:5]([H:11])[c:6]1[H:12])([H:7])[H:8]>>[N+:1]([C:2]1=[C:6]=[C:5]([H:11])[N:4]([H:10])[C-:3]1[H:9])([H:7])([H:8])[H:12]"
N       -1.91520135      -0.21712542      -0.08579472
C       -0.49034653       0.05269069       0.03182743
C        0.36536532       1.11173509       0.15802072
N        1.60124832       0.52984026       0.10182399
C        1.48682246      -0.83791404      -0.06730627
C        0.15590180      -1.19004838      -0.11323304
H       -2.38156688       0.19111741      -0.88885157
H       -2.46272294      -0.06719679       0.75494549
H        0.23527703       2.17710586       0.25592586
H        2.46495995       1.03390951       0.18945018
H        2.38680853      -1.43327387      -0.11495227
H       -1.44654572      -1.35084030      -0.22185578
12
Frame=2 idx=005660 GeodesicLength=0.10818952107708671 rxn_smarts="[N:1]([c:2]1[c:3]([H:9])[n:4]([H:10])[c:5]([H:11])[c:6]1[H:12])([H:7])[H:8]>>[N+:1]([C:2]1=[C:6]=[C:5]([H:11])[N:4]([H:10])[C-:3]1[H:9])([H:7])([H:8])[H:12]"
N       -1.91424265      -0.21557612      -0.09097389
C       -0.49318409       0.05007935       0.07036397
C        0.36412877       1.11051756       0.16887546
N        1.60015791       0.53048294       0.09532077
C        1.48443933      -0.83697168      -0.06908941
C        0.15387315      -1.19284849      -0.08024480
H       -2.36102257       0.22400497      -0.88842596
H       -2.47755773      -0.08586422       0.74251167
H        0.23178988       2.17778992       0.23921717
H        2.46428759       1.03499348       0.17514813
H        2.38332046      -1.43299704      -0.12733251
H       -1.43599005      -1.36361069      -0.23537061
12
Frame=3 idx=005660 GeodesicLength=0.16222712520064092 rxn_smarts="[N:1]([c:2]1[c:3]([H:9])[n:4]([H:10])[c:5]([H:11])[c:6]1[H:12])([H:7])[H:8]>>[N+:1]([C:2]1=[C:6]=[C:5]([H:11])[N:4]([H:10])[C-:3]1[H:9])([H:7])([H:8])[H:12]"
N       -1.91275998      -0.21358500      -0.09570379
C       -0.49592817       0.04831472       0.10325348
C        0.36270956       1.10969716       0.17545234
N        1.59875514       0.53059588       0.09251883
C        1.48170207      -0.83634407      -0.06882764
C        0.15202980      -1.19493219      -0.05166109
H       -2.34340888       0.25553134      -0.88502306
H       -2.48905043      -0.10363430       0.73161073
H        0.22787037       2.17799357       0.22165473
H        2.46321303       1.03556488       0.16447941
H        2.37925158      -1.43291396      -0.13990072
H       -1.42438409      -1.37628805      -0.24785321
12
Frame=4 idx=005660 GeodesicLength=0.21623957475414848 rxn_smarts="[N:1]([c:2]1[c:3]([H:9])[n:4]([H:10])[c:5]([H:11])[c:6]1[H:12])([H:7])[H:8]>>[N+:1]([C:2]1=[C:6]=[C:5]([H:11])[N:4]([H:10])[C-:3]1[H:9])([H:7])([H:8])[H:12]"
N       -1.91088348      -0.21122872      -0.10070591
C       -0.49869873       0.04725902       0.13222460
C        0.36112759       1.10905637       0.18015822
N        1.59721965       0.53031148       0.09288228
C        1.47875991      -0.83609917      -0.06539866
C        0.15021484      -1.19657968      -0.02466525
H       -2.32733723       0.28552274      -0.88052888
H       -2.49869418      -0.12009547       0.72063532
H        0.22374700       2.17776736       0.20458550
H        2.46193761       1.03602700       0.15455312
H        2.37453568      -1.43276141      -0.15503193
H       -1.41192866      -1.38917951      -0.25870841
12
Frame=5 idx=005660 GeodesicLength=0.27016457071184663 rxn_smarts="[N:1]([c:2]1[c:3]([H:9])[n:4]([H:10])[c:5]([H:11])[c:6]1[H:12])([H:7])[H:8]>>[N+:1]([C:2]1=[C:6]=[C:5]([H:11])[N:4]([H:10])[C-:3]1[H:9])([H:7])([H:8])[H:12]"
N       -1.90870800      -0.20858341      -0.10612956
C       -0.50154086       0.04682807       0.15818764
C        0.35945705       1.10852299       0.18373213
N        1.59565396       0.52976714       0.09569718
C        1.47575984      -0.83620422      -0.05851944
C        0.14836792      -1.19784464       0.00154647
H       -2.31235655       0.31407414      -0.87550509
H       -2.50708133      -0.13535565       0.70919406
H        0.21961638       2.17718461       0.18800615
H        2.46056481       1.03640708       0.14510559
H        2.36903268      -1.43236078      -0.17347074
H       -1.39876590      -1.40243532      -0.26784439
12
Frame=6 idx=005660 GeodesicLength=0.32415291506588656 rxn_smarts="[N:1]([c:2]1[c:3]([H:9])[n:4]([H:10])[c:5]([H:11])[c:6]1[H:12])([H:7])[H:8]>>[N+:1]([C:2]1=[C:6]=[C:5]([H:11])[N:4]([H:10])[C-:3]1[H:9])([H:7])([H:8])[H:12]"
N       -1.90644302      -0.20562321      -0.11144258
C       -0.50432013       0.04680301       0.18103184
C        0.35777892       1.10803899       0.18610128
N        1.59414948       0.52921631       0.09844892
C        1.47289135      -0.83634355      -0.05173930
C        0.14660682      -1.19868806       0.02428927
H       -2.29943251       0.34252357      -0.86839812
H       -2.51373277      -0.15075059       0.69861144
H        0.21548670       2.17633084       0.17242464
H        2.45904954       1.03668435       0.13576386
H        2.36308374      -1.43235937      -0.18803428
H       -1.38511813      -1.41583229      -0.27705698
12
Frame=7 idx=005660 GeodesicLength=0.3780082608092197 rxn_smarts="[N:1]([c:2]1[c:3]([H:9])[n:4]([H:10])[c:5]([H:11])[c:6]1[H:12])([H:7])[H:8]>>[N+:1]([C:2]1=[C:6]=[C:5]([H:11])[N:4]([H:10])[C-:3]1[H:9])([H:7])([H:8])[H:12]"
N       -1.90419428      -0.20233547      -0.11658874
C       -0.50706657       0.04712811       0.20136649
C        0.35608645       1.10757215       0.18751317
N        1.59267747       0.52871635       0.10080236
C        1.47005571      -0.83630883      -0.04609413
C        0.14488309      -1.19909244       0.04420300
H       -2.28830092       0.37070882      -0.85936002
H       -2.51904255      -0.16614011       0.68865286
H        0.21137143       2.17519149       0.15729807
H        2.45751645       1.03674855       0.12743525
H        2.35715663      -1.43284159      -0.19913394
H       -1.37114290      -1.42934705      -0.28609437
12
Frame=8 idx=005660 GeodesicLength=0.43191438017184414 rxn_smarts="[N:1]([c:2]1[c:3]([H:9])[n:4]([H:10])[c:5]([H:11])[c:6]1[H:12])([H:7])[H:8]>>[N+:1]([C:2]1=[C:6]=[C:5]([H:11])[N:4]([H:10])[C-:3]1[H:9])([H:7])([H:8])[H:12]"
N       -1.90180541      -0.19872659      -0.12214964
C       -0.50986423       0.04773021       0.22003263
C        0.35436640       1.10707758       0.18865482
N        1.59119073       0.52818738       0.10307970
C        1.46728569      -0.83643627      -0.03924318
C        0.14313544      -1.19932419       0.06334452
H       -2.27792742       0.39842239      -0.84973510
H       -2.52367320      -0.18101493       0.67818068
H        0.20728396       2.17385453       0.14361515
H        2.45587089       1.03678857       0.11850685
H        2.35083632      -1.43327639      -0.21006346
H       -1.35669916      -1.44328230      -0.29422297
12
Frame=9 idx=005660 GeodesicLength=0.48588035689394776 rxn_smarts="[N:1]([c:2]1[c:3]([H:9])[n:4]([H:10])[c:5]([H:11])[c:6]1[H:12])([H:7])[H:8]>>[N+:1]([C:2]1=[C:6]=[C:5]([H:11])[N:4]([H:10])[C-:3]1[H:9])([H:7])([H:8])[H:12]"
N       -1.89941406      -0.19478746      -0.12787112
C       -0.51267232       0.04856258       0.23708424
C        0.35266641       1.10663260       0.18944394
N        1.58973435       0.52771182       0.10505838
C        1.46455573      -0.83654394      -0.03267150
C        0.14137070      -1.19936061       0.08094314
H       -2.26868732       0.42599299      -0.83893597
H       -2.52753801      -0.19581919       0.66766843
H        0.20327511       2.17245057       0.13081086
H        2.45418273       1.03676948       0.10945520
H        2.34447978      -1.43402110      -0.21899550
H       -1.34195310      -1.45758776      -0.30199010
12
Frame=10 idx=005660 GeodesicLength=0.5396991523268022 rxn_smarts="[N:1]([c:2]1[c:3]([H:9])[n:4]([H:10])[c:5]([H:11])[c:6]1[H:12])([H:7])[H:8]>>[N+:1]([C:2]1=[C:6]=[C:5]([H:11])[N:4]([H:10])[C-:3]1[H:9])([H:7])([H:8])[H:12]"
N       -1.89700860      -0.19048646      -0.13377363
C       -0.51550570       0.04959723       0.25272642
C        0.35095766       1.10614055       0.18988763
N        1.58829064       0.52722508       0.10686721
C        1.46185925      -0.83658589      -0.02638239
C        0.13960182      -1.19914230       0.09730937
H       -2.26039148       0.45325535      -0.82708617
H       -2.53078148      -0.21038068       0.65689130
H        0.19932061       2.17088702       0.11883552
H        2.45242799       1.03662626       0.10036556
H        2.33811943      -1.43494405      -0.22646334
H       -1.32689012      -1.47219212      -0.30917750
12
Frame=11 idx=005660 GeodesicLength=0.5935584046504936 rxn_smarts="[N:1]([c:2]1[c:3]([H:9])[n:4]([H:10])[c:5]([H:11])[c:6]1[H:12])([H:7])[H:8]>>[N+:1]([C:2]1=[C:6]=[C:5]([H:11])[N:4]([H:10])[C-:3]1[H:9])([H:7])([H:8])[H:12]"
N       -1.89453262      -0.18582873      -0.14004240
C       -0.51839924       0.05080800       0.26734816
C        0.34926290       1.10566303       0.19040333
N        1.58686953       0.52672477       0.10897727
C        1.45919241      -0.83665925      -0.01973552
C        0.13779386      -1.19879175       0.11303442
H       -2.25271939       0.48034500      -0.81451161
H       -2.53361838      -0.22477530       0.64552285
H        0.19547164       2.16927235       0.10769479
H        2.45055538       1.03645030       0.09043373
H        2.33157701      -1.43595076      -0.23335227
H       -1.31145311      -1.48725765      -0.31577275
12
Frame=12 idx=005660 GeodesicLength=0.6473964998749271 rxn_smarts="[N:1]([c:2]1[c:3]([H:9])[n:4]([H:10])[c:5]([H:11])[c:6]1[H:12])([H:7])[H:8]>>[N+:1]([C:2]1=[C:6]=[C:5]([H:11])[N:4]([H:10])[C-:3]1[H:9])([H:7])([H:8])[H:12]"
N       -1.89208279      -0.18078356      -0.14648444
C       -0.52131297       0.05217045       0.28081691
C        0.34758391       1.10519797       0.19056391
N        1.58546714       0.52625745       0.11070197
C        1.45653913      -0.83668195      -0.01353126
C        0.13595654      -1.19827931       0.12764120
H       -2.24596220       0.50727750      -0.80087289
H       -2.53591514      -0.23903427       0.63389295
H        0.19171327       2.16763752       0.09723968
H        2.44864303       1.03615378       0.08064209
H        2.32514942      -1.43716373      -0.23873512
H       -1.29577933      -1.50275185      -0.32187500
12
Frame=13 idx=005660 GeodesicLength=0.7012514533070098 rxn_smarts="[N:1]([c:2]1[c:3]([H:9])[n:4]([H:10])[c:5]([H:11])[c:6]1[H:12])([H:7])[H:8]>>[N+:1]([C:2]1=[C:6]=[C:5]([H:11])[N:4]([H:10])[C-:3]1[H:9])([H:7])([H:8])[H:12]"
N       -1.88965403      -0.17535651      -0.15312864
C       -0.52425562       0.05369128       0.29322528
C        0.34591483       1.10476554       0.19029311
N        1.58407308       0.52581940       0.11205981
C        1.45388808      -0.83665724      -0.00774485
C        0.13409075      -1.19761817       0.14135908
H       -2.23995125       0.53389120      -0.78640976
H       -2.53775940      -0.25298067       0.62191553
H        0.18805356       2.16604175       0.08741772
H        2.44672900       1.03572230       0.07140749
H        2.31877609      -1.43850052      -0.24328264
H       -1.27990508      -1.51881836      -0.32711213
12
Frame=14 idx=005660 GeodesicLength=0.755073434202019 rxn_smarts="[N:1]([c:2]1[c:3]([H:9])[n:4]([H:10])[c:5]([H:11])[c:6]1[H:12])([H:7])[H:8]>>[N+:1]([C:2]1=[C:6]=[C:5]([H:11])[N:4]([H:10])[C-:3]1[H:9])([H:7])([H:8])[H:12]"
N       -1.88727526      -0.16950971      -0.15993751
C       -0.52722098       0.05535410       0.30464415
C        0.34425907       1.10435041       0.18958140
N        1.58269299       0.52540475       0.11299734
C        1.45123900      -0.83659115      -0.00239349
C        0.13218967      -1.19680629       0.15414368
H       -2.23477302       0.56030531      -0.77093420
H       -2.53916873      -0.26676374       0.60960692
H        0.18449755       2.16448392       0.07811643
H        2.44483732       1.03516699       0.06263745
H        2.31255309      -1.44000682      -0.24672675
H       -1.26383070      -1.53538778      -0.33173541
12
Frame=15 idx=005660 GeodesicLength=0.8089092943419386 rxn_smarts="[N:1]([c:2]1[c:3]([H:9])[n:4]([H:10])[c:5]([H:11])[c:6]1[H:12])([H:7])[H:8]>>[N+:1]([C:2]1=[C:6]=[C:5]([H:11])[N:4]([H:10])[C-:3]1[H:9])([H:7])([H:8])[H:12]"
N       -1.88489594      -0.16322741      -0.16704599
C       -0.53023850       0.05715376       0.31528219
C        0.34262348       1.10396248       0.18870035
N        1.58133279       0.52499942       0.11383087
C        1.44859905      -0.83651365       0.00293563
C        0.13023745      -1.19587336       0.16637808
H       -2.23022273       0.58655637      -0.75460854
H       -2.54026716      -0.28041444       0.59667135
H        0.18106504       2.16298053       0.06937446
H        2.44292494       1.03452009       0.05380018
H        2.30632289      -1.44160975      -0.24966059
H       -1.24748131      -1.55253404      -0.33565800
12
Frame=16 idx=005660 GeodesicLength=0.8627344269396082 rxn_smarts="[N:1]([c:2]1[c:3]([H:9])[n:4]([H:10])[c:5]([H:11])[c:6]1[H:12])([H:7])[H:8]>>[N+:1]([C:2]1=[C:6]=[C:5]([H:11])[N:4]([H:10])[C-:3]1[H:9])([H:7])([H:8])[H:12]"
N       -1.88245079      -0.15647680      -0.17452813
C       -0.53332421       0.05907674       0.32530930
C        0.34100590       1.10357801       0.18788946
N        1.57997358       0.52458210       0.11477068
C        1.44595155      -0.83643418       0.00850847
C        0.12821763      -1.19481324       0.17829174
H       -2.22611406       0.61264978      -0.73751280
H       -2.54110102      -0.29395774       0.58287933
H        0.17776148       2.16149936       0.06129095
H        2.44088988       1.03377723       0.04432735
H        2.29995608      -1.44323947      -0.25231541
H       -1.23076603      -1.57024181      -0.33891093
