8
Frame=0 idx=000116 GeodesicLength=0.0 rxn_smarts="[O:1]=[c:2]1[o:3][c:4]([H:7])[c:5]([H:8])[o:6]1>>[O:1]=[C:2]1[O+:3]=[C-:4][C:5]([H:7])([H:8])[O:6]1"
O        2.43596182       0.03364177      -0.09944975
C        1.26746248      -0.05706957       0.00234133
O        0.54232512      -1.19744442       0.18499065
C       -0.80517342      -0.93201514       0.36248864
C       -0.85229557       0.44299819       0.12852540
O        0.37832716       0.99171374      -0.06153124
H       -1.28140732      -0.40019723      -0.77592174
H       -1.68520026       1.11837269       0.25855672
8
Frame=1 idx=000116 GeodesicLength=0.03486890393409673 rxn_smarts="[O:1]=[c:2]1[o:3][c:4]([H:7])[c:5]([H:8])[o:6]1>>[O:1]=[C:2]1[O+:3]=[C-:4][C:5]([H:7])([H:8])[O:6]1"
O        2.43932726       0.03428703      -0.08685333
C        1.26946919      -0.05471883       0.00099155
O        0.54341756      -1.19709817       0.18427660
C       -0.80069988      -0.92934332       0.35994570
C       -0.85306328       0.44434037       0.11851014
O        0.38108001       0.99128531      -0.07023812
H       -1.29897077      -0.40967545      -0.78022131
H       -1.68056011       1.12092306       0.27358878
8
Frame=2 idx=000116 GeodesicLength=0.06966170976909473 rxn_smarts="[O:1]=[c:2]1[o:3][c:4]([H:7])[c:5]([H:8])[o:6]1>>[O:1]=[C:2]1[O+:3]=[C-:4][C:5]([H:7])([H:8])[O:6]1"
O        2.44239412       0.03484043      -0.07565792
C        1.27149609      -0.05216838       0.00089130
O        0.54445446      -1.19663042       0.18405871
C       -0.79640376      -0.92665742       0.35695787
C       -0.85393287       0.44567999       0.10826658
O        0.38386528       0.99093442      -0.07820094
H       -1.31638757      -0.41919946      -0.78459771
H       -1.67548576       1.12320083       0.28828211
8
Frame=3 idx=000116 GeodesicLength=0.1045023654033998 rxn_smarts="[O:1]=[c:2]1[o:3][c:4]([H:7])[c:5]([H:8])[o:6]1>>[O:1]=[C:2]1[O+:3]=[C-:4][C:5]([H:7])([H:8])[O:6]1"
O        2.44534954       0.03548151      -0.06468112
C        1.27354514      -0.04953678       0.00119305
O        0.54548958      -1.19613178       0.18390107
C       -0.79218067      -0.92394450       0.35366904
C       -0.85487722       0.44704783       0.09783084
O        0.38665862       0.99060669      -0.08603350
H       -1.33408043      -0.42883189      -0.78877345
H       -1.66990456       1.12530892       0.30289409
8
Frame=4 idx=000116 GeodesicLength=0.13932345427283965 rxn_smarts="[O:1]=[c:2]1[o:3][c:4]([H:7])[c:5]([H:8])[o:6]1>>[O:1]=[C:2]1[O+:3]=[C-:4][C:5]([H:7])([H:8])[O:6]1"
O        2.44821241       0.03636309      -0.05286077
C        1.27557686      -0.04687886       0.00115177
O        0.54651137      -1.19560987       0.18339932
C       -0.78793008      -0.92118335       0.35017027
C       -0.85584041       0.44843893       0.08723674
O        0.38944820       0.99022840      -0.09428739
H       -1.35236856      -0.43858893      -0.79241990
H       -1.66360980       1.12723059       0.31760995
8
Frame=5 idx=000116 GeodesicLength=0.1740951038791584 rxn_smarts="[O:1]=[c:2]1[o:3][c:4]([H:7])[c:5]([H:8])[o:6]1>>[O:1]=[C:2]1[O+:3]=[C-:4][C:5]([H:7])([H:8])[O:6]1"
O        2.45080539       0.03686072      -0.04412416
C        1.27762828      -0.04387858       0.00363639
O        0.54748180      -1.19493999       0.18391684
C       -0.78396766      -0.91848358       0.34607654
C       -0.85694681       0.44983494       0.07655101
O        0.39227429       0.99003378      -0.10099695
H       -1.37004921      -0.44821738      -0.79650860
H       -1.65722609       1.12879010       0.33144893
8
Frame=6 idx=000116 GeodesicLength=0.20887865391301735 rxn_smarts="[O:1]=[c:2]1[o:3][c:4]([H:7])[c:5]([H:8])[o:6]1>>[O:1]=[C:2]1[O+:3]=[C-:4][C:5]([H:7])([H:8])[O:6]1"
O        2.45327213       0.03721526      -0.03675080
C        1.27968508      -0.04065725       0.00743777
O        0.54843226      -1.19418342       0.18481166
C       -0.78013743      -0.91581083       0.34156025
C       -0.85812030       0.45125241       0.06580289
O        0.39512728       0.98992762      -0.10705423
H       -1.38769667      -0.45780711      -0.80059477
H       -1.65056235       1.13006332       0.34478723
8
Frame=7 idx=000116 GeodesicLength=0.24368770216827812 rxn_smarts="[O:1]=[c:2]1[o:3][c:4]([H:7])[c:5]([H:8])[o:6]1>>[O:1]=[C:2]1[O+:3]=[C-:4][C:5]([H:7])([H:8])[O:6]1"
O        2.45572594       0.03765953      -0.02938208
C        1.28172574      -0.03732932       0.01159139
O        0.54938188      -1.19340018       0.18558588
C       -0.77633022      -0.91314787       0.33673455
C       -0.85931522       0.45269819       0.05502563
O        0.39799129       0.98981534      -0.11315031
H       -1.40574955      -0.46740371      -0.80430125
H       -1.64342985       1.13110802       0.35789619
8
Frame=8 idx=000116 GeodesicLength=0.2785080656053098 rxn_smarts="[O:1]=[c:2]1[o:3][c:4]([H:7])[c:5]([H:8])[o:6]1>>[O:1]=[C:2]1[O+:3]=[C-:4][C:5]([H:7])([H:8])[O:6]1"
O        2.45812886       0.03823300      -0.02166266
C        1.28376221      -0.03388473       0.01592970
O        0.55034725      -1.19259830       0.18606224
C       -0.77249809      -0.91051166       0.33160137
C       -0.86049578       0.45414651       0.04423963
O        0.40087104       0.98966893      -0.11951350
H       -1.42434002      -0.47700225      -0.80748169
H       -1.63577547       1.13194850       0.37082492
8
Frame=9 idx=000116 GeodesicLength=0.313417358607382 rxn_smarts="[O:1]=[c:2]1[o:3][c:4]([H:7])[c:5]([H:8])[o:6]1>>[O:1]=[C:2]1[O+:3]=[C-:4][C:5]([H:7])([H:8])[O:6]1"
O        2.46058892       0.03928081      -0.01185091
C        1.28577129      -0.03050792       0.01922247
O        0.55136640      -1.19186596       0.18559855
C       -0.76850490      -0.90787483       0.32627722
C       -0.86161434       0.45561556       0.03347092
O        0.40374117       0.98934983      -0.12699260
H       -1.44402923      -0.48666856      -0.80964015
H       -1.62731932       1.13267107       0.38391451
8
Frame=10 idx=000116 GeodesicLength=0.34829339402673487 rxn_smarts="[O:1]=[c:2]1[o:3][c:4]([H:7])[c:5]([H:8])[o:6]1>>[O:1]=[C:2]1[O+:3]=[C-:4][C:5]([H:7])([H:8])[O:6]1"
O        2.46300800       0.04092698       0.00063426
C        1.28782488      -0.02721902       0.02108930
O        0.55246169      -1.19124031       0.18396546
C       -0.76433809      -0.90528005       0.32072832
C       -0.86269344       0.45706790       0.02274718
O        0.40661859       0.98881516      -0.13587644
H       -1.46497116      -0.49637937      -0.81050462
H       -1.61791048       1.13330871       0.39721655
8
Frame=11 idx=000116 GeodesicLength=0.38321947267054035 rxn_smarts="[O:1]=[c:2]1[o:3][c:4]([H:7])[c:5]([H:8])[o:6]1>>[O:1]=[C:2]1[O+:3]=[C-:4][C:5]([H:7])([H:8])[O:6]1"
O        2.46537246       0.04301311       0.01483290
C        1.28987815      -0.02396014       0.02232896
O        0.55365158      -1.19069174       0.18145760
C       -0.76001317      -0.90272718       0.31485544
C       -0.86372600       0.45852280       0.01202690
O        0.40951697       0.98809724      -0.14573572
H       -1.48692967      -0.50606401      -0.81028482
H       -1.60775031       1.13380993       0.41051874
8
Frame=12 idx=000116 GeodesicLength=0.4182085322436232 rxn_smarts="[O:1]=[c:2]1[o:3][c:4]([H:7])[c:5]([H:8])[o:6]1>>[O:1]=[C:2]1[O+:3]=[C-:4][C:5]([H:7])([H:8])[O:6]1"
O        2.46755916       0.04550093       0.03039520
C        1.29193976      -0.02068305       0.02312205
O        0.55491698      -1.19020833       0.17824942
C       -0.75556989      -0.90027274       0.30857889
C       -0.86469886       0.45995663       0.00136735
O        0.41244151       0.98721572      -0.15635241
H       -1.50974469      -0.51567362      -0.80903887
H       -1.59684397       1.13416445       0.42367838
8
Frame=13 idx=000116 GeodesicLength=0.45321174039515844 rxn_smarts="[O:1]=[c:2]1[o:3][c:4]([H:7])[c:5]([H:8])[o:6]1>>[O:1]=[C:2]1[O+:3]=[C-:4][C:5]([H:7])([H:8])[O:6]1"
O        2.46955601       0.04825446       0.04661545
C        1.29401915      -0.01734349       0.02390465
O        0.55625682      -1.18975556       0.17461483
C       -0.75106995      -0.89792722       0.30182597
C       -0.86563056       0.46137574      -0.00921650
O        0.41542121       0.98622319      -0.16731930
H       -1.53317694      -0.52515251      -0.80691010
H       -1.58537574       1.13432538       0.43648499
8
Frame=14 idx=000116 GeodesicLength=0.4882278555847415 rxn_smarts="[O:1]=[c:2]1[o:3][c:4]([H:7])[c:5]([H:8])[o:6]1>>[O:1]=[C:2]1[O+:3]=[C-:4][C:5]([H:7])([H:8])[O:6]1"
O        2.47137121       0.05120168       0.06315884
C        1.29613326      -0.01393832       0.02484671
O        0.55769224      -1.18932459       0.17070241
C       -0.74653674      -0.89569287       0.29455920
C       -0.86654158       0.46279648      -0.01972036
O        0.41847552       0.98514964      -0.17840813
H       -1.55711527      -0.53446875      -0.80396447
H       -1.57347863       1.13427673       0.44882578
8
Frame=15 idx=000116 GeodesicLength=0.5232577476945405 rxn_smarts="[O:1]=[c:2]1[o:3][c:4]([H:7])[c:5]([H:8])[o:6]1>>[O:1]=[C:2]1[O+:3]=[C-:4][C:5]([H:7])([H:8])[O:6]1"
O        2.47299342       0.05427946       0.07978041
C        1.29825988      -0.01045101       0.02605173
O        0.55921318      -1.18889702       0.16663517
C       -0.74197851      -0.89357575       0.28674233
C       -0.86740736       0.46422438      -0.03015145
O        0.42161734       0.98402964      -0.18943628
H       -1.58145712      -0.54360921      -0.80024428
H       -1.56124083       1.13399950       0.46062237
8
Frame=16 idx=000116 GeodesicLength=0.5582925881090766 rxn_smarts="[O:1]=[c:2]1[o:3][c:4]([H:7])[c:5]([H:8])[o:6]1>>[O:1]=[C:2]1[O+:3]=[C-:4][C:5]([H:7])([H:8])[O:6]1"
O        2.47446978       0.05738711       0.09605001
C        1.30038963      -0.00685786       0.02776342
O        0.56081679      -1.18845181       0.16260146
C       -0.73742510      -0.89157601       0.27833932
C       -0.86823377       0.46567250      -0.04051797
O        0.42486395       0.98290976      -0.20014839
H       -1.60606426      -0.55255127      -0.79585509
H       -1.54881703       1.13346758       0.47176724
