12
Frame=0 idx=011823 GeodesicLength=0.0 rxn_smarts="[O:1]([C@@:2]([C:3]([C:4]#[N:5])([H:10])[H:11])([C:6]#[C:7][H:12])[H:9])[H:8]>>[O:1]([C:2]1=[C:6]([H:9])[C:7]([H:12])=[N+:5]=[C-:4][C:3]1([H:10])[H:11])[H:8]"
O        0.15161391       0.54005762      -2.02073383
C       -0.02096904       0.46910508      -0.67437302
C       -1.24475267      -0.31130828      -0.20269265
C       -0.70902294      -1.34799926       0.71875359
N        0.34937524      -1.46672907       1.30632307
C        1.03633292       0.59574561       0.23669069
C        1.17018090      -0.15112128       1.31615438
H        1.08746236       0.44847720      -2.22296857
H        0.25769232       1.62321200      -0.03893158
H       -1.95203281       0.27307914       0.38601904
H       -1.76735990      -0.71050582      -1.07087383
H        1.64147971       0.03798705       2.26663275
12
Frame=1 idx=011823 GeodesicLength=0.08206732462169648 rxn_smarts="[O:1]([C@@:2]([C:3]([C:4]#[N:5])([H:10])[H:11])([C:6]#[C:7][H:12])[H:9])[H:8]>>[O:1]([C:2]1=[C:6]([H:9])[C:7]([H:12])=[N+:5]=[C-:4][C:3]1([H:10])[H:11])[H:8]"
O        0.14142065       0.55356364      -2.01529487
C       -0.02253231       0.46521340      -0.66803764
C       -1.24779682      -0.31996329      -0.21066291
C       -0.74634722      -1.32107396       0.76478542
N        0.31683353      -1.46764366       1.33658432
C        1.03977373       0.58329797       0.23657187
C        1.18832403      -0.15681004       1.31867568
H        1.07823289       0.49498775      -2.22452648
H        0.26505141       1.62381483      -0.03025018
H       -1.98221901       0.28155488       0.32507136
H       -1.73545644      -0.76007751      -1.08012978
H        1.70471556       0.02313599       2.24721320
12
Frame=2 idx=011823 GeodesicLength=0.16371510855480786 rxn_smarts="[O:1]([C@@:2]([C:3]([C:4]#[N:5])([H:10])[H:11])([C:6]#[C:7][H:12])[H:9])[H:8]>>[O:1]([C:2]1=[C:6]([H:9])[C:7]([H:12])=[N+:5]=[C-:4][C:3]1([H:10])[H:11])[H:8]"
O        0.13048435       0.56820601      -2.00940431
C       -0.02436261       0.46221117      -0.66146599
C       -1.25025989      -0.32902749      -0.21835718
C       -0.78452913      -1.28944344       0.81165450
N        0.28151998      -1.46597782       1.36902775
C        1.04350761       0.57053494       0.23612823
C        1.20767853      -0.16412330       1.31966028
H        1.06715175       0.54253115      -2.22520178
H        0.27313892       1.62464173      -0.02060753
H       -2.01170977       0.28691885       0.26008878
H       -1.69967362      -0.81186426      -1.08648931
H        1.76705388       0.00539245       2.22496656
12
Frame=3 idx=011823 GeodesicLength=0.2446977840635817 rxn_smarts="[O:1]([C@@:2]([C:3]([C:4]#[N:5])([H:10])[H:11])([C:6]#[C:7][H:12])[H:9])[H:8]>>[O:1]([C:2]1=[C:6]([H:9])[C:7]([H:12])=[N+:5]=[C-:4][C:3]1([H:10])[H:11])[H:8]"
O        0.11872360       0.58421117      -2.00310762
C       -0.02651803       0.46041100      -0.65470679
C       -1.25198576      -0.33846638      -0.22566554
C       -0.82270429      -1.25399022       0.85760141
N        0.24360686      -1.46135458       1.40351356
C        1.04753546       0.55756790       0.23522924
C        1.22779153      -0.17297685       1.31903503
H        1.05414663       0.58970787      -2.22510344
H        0.28215685       1.62589560      -0.01009211
H       -2.03955745       0.28835245       0.19244862
H       -1.66043127      -0.86452317      -1.08961227
H        1.82723586      -0.01483480       2.20045990
12
Frame=4 idx=011823 GeodesicLength=0.32546032189745167 rxn_smarts="[O:1]([C@@:2]([C:3]([C:4]#[N:5])([H:10])[H:11])([C:6]#[C:7][H:12])[H:9])[H:8]>>[O:1]([C:2]1=[C:6]([H:9])[C:7]([H:12])=[N+:5]=[C-:4][C:3]1([H:10])[H:11])[H:8]"
O        0.10633075       0.60053961      -1.99648878
C       -0.02906931       0.45942964      -0.64784903
C       -1.25313758      -0.34854173      -0.23288459
C       -0.86189729      -1.21349140       0.90339990
N        0.20144465      -1.45200787       1.44224811
C        1.05160121       0.54402359       0.23389435
C        1.24813567      -0.18365929       1.31688363
H        1.03949403       0.64036819      -2.22386806
H        0.29207978       1.62722972       0.00105883
H       -2.06626578       0.28528156       0.12062003
H       -1.61668804      -0.91960895      -1.08895552
H        1.88797192      -0.03956307       2.17194114
12
Frame=5 idx=011823 GeodesicLength=0.4058519514816394 rxn_smarts="[O:1]([C@@:2]([C:3]([C:4]#[N:5])([H:10])[H:11])([C:6]#[C:7][H:12])[H:9])[H:8]>>[O:1]([C:2]1=[C:6]([H:9])[C:7]([H:12])=[N+:5]=[C-:4][C:3]1([H:10])[H:11])[H:8]"
O        0.09306747       0.61780716      -1.98958139
C       -0.03207290       0.45983422      -0.64086892
C       -1.25347429      -0.35903870      -0.23969307
C       -0.90072467      -1.16990097       0.94667163
N        0.15639489      -1.43799775       1.48395474
C        1.05587402       0.53015329       0.23191106
C        1.26849996      -0.19603331       1.31305066
H        1.02287867       0.69125645      -2.22177382
H        0.30337584       1.62908428       0.01272896
H       -2.09071201       0.27701441       0.04702661
H       -1.56933770      -0.97462084      -1.08443979
H        1.94623071      -0.06755824       2.14101332
12
Frame=6 idx=011823 GeodesicLength=0.48637722170481434 rxn_smarts="[O:1]([C@@:2]([C:3]([C:4]#[N:5])([H:10])[H:11])([C:6]#[C:7][H:12])[H:9])[H:8]>>[O:1]([C:2]1=[C:6]([H:9])[C:7]([H:12])=[N+:5]=[C-:4][C:3]1([H:10])[H:11])[H:8]"
O        0.07918711       0.63550751      -1.98242895
C       -0.03558348       0.46139477      -0.63381242
C       -1.25298580      -0.37033055      -0.24644955
C       -0.94004264      -1.12240999       0.98789536
N        0.10730955      -1.41730271       1.53045117
C        1.06010455       0.51582739       0.22935833
C        1.28851341      -0.21050220       1.30746187
H        1.00436187       0.74512646      -2.21841680
H        0.31581824       1.63120893       0.02488979
H       -2.11293884       0.26289701      -0.02947815
H       -1.51754955      -1.03070545      -1.07552484
H        2.00380558      -0.10071116       2.10605420
12
Frame=7 idx=011823 GeodesicLength=0.5662081655585046 rxn_smarts="[O:1]([C@@:2]([C:3]([C:4]#[N:5])([H:10])[H:11])([C:6]#[C:7][H:12])[H:9])[H:8]>>[O:1]([C:2]1=[C:6]([H:9])[C:7]([H:12])=[N+:5]=[C-:4][C:3]1([H:10])[H:11])[H:8]"
O        0.06457322       0.65361862      -1.97502640
C       -0.03962462       0.46451347      -0.62662730
C       -1.25155944      -0.38181154      -0.25255781
C       -0.97796114      -1.07440589       1.02439209
N        0.05706211      -1.39145779       1.57827028
C        1.06437561       0.50134212       0.22602183
C        1.30756927      -0.22618914       1.30042119
H        0.98409946       0.79753553      -2.21418171
H        0.32993677       1.63402898       0.03693967
H       -2.13175789       0.24333007      -0.10488282
H       -1.46343663      -1.08410073      -1.06272342
H        2.05672328      -0.13640369       2.06995441
12
Frame=8 idx=011823 GeodesicLength=0.6460648189949352 rxn_smarts="[O:1]([C@@:2]([C:3]([C:4]#[N:5])([H:10])[H:11])([C:6]#[C:7][H:12])[H:9])[H:8]>>[O:1]([C:2]1=[C:6]([H:9])[C:7]([H:12])=[N+:5]=[C-:4][C:3]1([H:10])[H:11])[H:8]"
O        0.04981957       0.67123141      -1.96755973
C       -0.04417640       0.46880893      -0.61939249
C       -1.24924321      -0.39386498      -0.25839290
C       -1.01546511      -1.02523153       1.05704315
N        0.00475396      -1.35884179       1.62869701
C        1.06838525       0.48676855       0.22215278
C        1.32519670      -0.24312734       1.29223766
H        0.96227547       0.85159923      -2.20865185
H        0.34528905       1.63735503       0.04873271
H       -2.14732633       0.21806075      -0.18024129
H       -1.40654556      -1.13614992      -1.04562663
H        2.10703662      -0.17660835       2.03100158
12
Frame=9 idx=011823 GeodesicLength=0.7261688621033662 rxn_smarts="[O:1]([C@@:2]([C:3]([C:4]#[N:5])([H:10])[H:11])([C:6]#[C:7][H:12])[H:9])[H:8]>>[O:1]([C:2]1=[C:6]([H:9])[C:7]([H:12])=[N+:5]=[C-:4][C:3]1([H:10])[H:11])[H:8]"
O        0.03472860       0.68887910      -1.95989313
C       -0.04933833       0.47452659      -0.61193543
C       -1.24590296      -0.40654210      -0.26388520
C       -1.05251145      -0.97550668       1.08572737
N       -0.04893826      -1.31904769       1.68087870
C        1.07201285       0.47256103       0.21790608
C        1.34126693      -0.26105936       1.28297584
H        0.93883740       0.90592777      -2.20185825
H        0.36164050       1.64146502       0.06034018
H       -2.15940121       0.18697042      -0.25524055
H       -1.34668453      -1.18627736      -1.02435447
H        2.15429046      -0.22189676       1.98933886
12
Frame=10 idx=011823 GeodesicLength=0.8064539113508092 rxn_smarts="[O:1]([C@@:2]([C:3]([C:4]#[N:5])([H:10])[H:11])([C:6]#[C:7][H:12])[H:9])[H:8]>>[O:1]([C:2]1=[C:6]([H:9])[C:7]([H:12])=[N+:5]=[C-:4][C:3]1([H:10])[H:11])[H:8]"
O        0.01967526       0.70570747      -1.95216965
C       -0.05493863       0.48132222      -0.60432694
C       -1.24150055      -0.41969901      -0.26890068
C       -1.08890042      -0.92595867       1.11032768
N       -0.10325139      -1.27246487       1.73346435
C        1.07535660       0.45850071       0.21315613
C        1.35561127      -0.27999948       1.27271356
H        0.91366620       0.96127538      -2.19377036
H        0.37919581       1.64608289       0.07137639
H       -2.16760724       0.15054155      -0.32880776
H       -1.28461744      -1.23388820      -0.99873066
H        2.19731054      -0.27142000       1.94566794
12
Frame=11 idx=011823 GeodesicLength=0.8872031615361949 rxn_smarts="[O:1]([C@@:2]([C:3]([C:4]#[N:5])([H:10])[H:11])([C:6]#[C:7][H:12])[H:9])[H:8]>>[O:1]([C:2]1=[C:6]([H:9])[C:7]([H:12])=[N+:5]=[C-:4][C:3]1([H:10])[H:11])[H:8]"
O        0.00478863       0.72159417      -1.94448614
C       -0.06086993       0.48903291      -0.59656801
C       -1.23610296      -0.43320214      -0.27332351
C       -1.12434703      -0.87779613       1.13075989
N       -0.15717544      -1.22038416       1.78478003
C        1.07839964       0.44496201       0.20810787
C        1.36798012      -0.29881350       1.26234045
H        0.88695106       1.01645015      -2.18460468
H        0.39769218       1.65134506       0.08153356
H       -2.17169357       0.10962112      -0.39993434
H       -1.22145523      -1.27807957      -0.96928279
H        2.23583252      -0.32472993       1.90067766
12
Frame=12 idx=011823 GeodesicLength=0.9680664784262344 rxn_smarts="[O:1]([C@@:2]([C:3]([C:4]#[N:5])([H:10])[H:11])([C:6]#[C:7][H:12])[H:9])[H:8]>>[O:1]([C:2]1=[C:6]([H:9])[C:7]([H:12])=[N+:5]=[C-:4][C:3]1([H:10])[H:11])[H:8]"
O       -0.01004364       0.73655978      -1.93680318
C       -0.06690118       0.49726056      -0.58868406
C       -1.22986043      -0.44664089      -0.27691826
C       -1.15821785      -0.83249167       1.14696949
N       -0.20929787      -1.16582452       1.83231694
C        1.08122510       0.43200789       0.20276247
C        1.37860716      -0.31643435       1.25247598
H        0.85907242       1.06927830      -2.17479354
H        0.41692292       1.65709143       0.09054567
H       -2.17136375       0.06616558      -0.46698805
H       -1.15907545      -1.31755293      -0.93708971
H        2.26893256      -0.37941919       1.85620624
12
Frame=13 idx=011823 GeodesicLength=1.0493892447575581 rxn_smarts="[O:1]([C@@:2]([C:3]([C:4]#[N:5])([H:10])[H:11])([C:6]#[C:7][H:12])[H:9])[H:8]>>[O:1]([C:2]1=[C:6]([H:9])[C:7]([H:12])=[N+:5]=[C-:4][C:3]1([H:10])[H:11])[H:8]"
O       -0.02424857       0.75019042      -1.92921081
C       -0.07287503       0.50569866      -0.58073362
C       -1.22284337      -0.46005228      -0.27988546
C       -1.19101795      -0.78923063       1.15969501
N       -0.26020056      -1.10902703       1.87626369
C        1.08382293       0.41969236       0.19737970
C        1.38771557      -0.33286094       1.24337479
H        0.83001557       1.12123912      -2.16414591
H        0.43651370       1.66316291       0.09850625
H       -2.16700149       0.02024588      -0.53063690
H       -1.09746458      -1.35319469      -0.90183903
H        2.29758379      -0.43586378       1.81123229
12
Frame=14 idx=011823 GeodesicLength=1.1307354283709763 rxn_smarts="[O:1]([C@@:2]([C:3]([C:4]#[N:5])([H:10])[H:11])([C:6]#[C:7][H:12])[H:9])[H:8]>>[O:1]([C:2]1=[C:6]([H:9])[C:7]([H:12])=[N+:5]=[C-:4][C:3]1([H:10])[H:11])[H:8]"
O       -0.03824311       0.76291015      -1.92162417
C       -0.07866774       0.51411819      -0.57271614
C       -1.21534962      -0.47299001      -0.28200623
C       -1.22216229      -0.74933527       1.16909906
N       -0.30880478      -1.05360766       1.91495833
C        1.08618216       0.40831399       0.19207474
C        1.39596589      -0.34685013       1.23556069
H        0.80065768       1.16929698      -2.15326154
H        0.45602932       1.66965464       0.10529068
H       -2.15866083      -0.02586448      -0.58965035
H       -1.03851537      -1.38395103      -0.86516843
H        2.32156868      -0.49169537       1.76744337
12
Frame=15 idx=011823 GeodesicLength=1.2123675959383362 rxn_smarts="[O:1]([C@@:2]([C:3]([C:4]#[N:5])([H:10])[H:11])([C:6]#[C:7][H:12])[H:9])[H:8]>>[O:1]([C:2]1=[C:6]([H:9])[C:7]([H:12])=[N+:5]=[C-:4][C:3]1([H:10])[H:11])[H:8]"
O       -0.05154756       0.77439548      -1.91415190
C       -0.08416512       0.52231062      -0.56469988
C       -1.20740295      -0.48561717      -0.28351442
C       -1.25226372      -0.71174407       1.17581095
N       -0.35609613      -0.99893795       1.94948783
C        1.08838578       0.39768730       0.18697909
C        1.40379286      -0.35917189       1.22873215
H        0.77071179       1.21545004      -2.14192982
H        0.47536635       1.67633709       0.11113794
H       -2.14680344      -0.07250346      -0.64498052
H       -0.98176898      -1.41091883      -0.82670903
H        2.34179111      -0.54728718       1.72383761
12
Frame=16 idx=011823 GeodesicLength=1.2941572662432632 rxn_smarts="[O:1]([C@@:2]([C:3]([C:4]#[N:5])([H:10])[H:11])([C:6]#[C:7][H:12])[H:9])[H:8]>>[O:1]([C:2]1=[C:6]([H:9])[C:7]([H:12])=[N+:5]=[C-:4][C:3]1([H:10])[H:11])[H:8]"
O       -0.06421393       0.78481512      -1.90675203
C       -0.08934544       0.53022509      -0.55666764
C       -1.19905495      -0.49791265      -0.28442147
C       -1.28139253      -0.67646313       1.18014858
N       -0.40223720      -0.94566406       1.98009882
C        1.09040412       0.38802864       0.18226400
C        1.41163861      -0.36964918       1.22286189
H        0.74048635       1.25917846      -2.13025657
H        0.49416547       1.68332132       0.11617843
H       -2.13162130      -0.11910789      -0.69674142
H       -0.92743096      -1.43429454      -0.78695171
H        2.35860177      -0.60247716       1.68023913
