12
Frame=0 idx=008984 GeodesicLength=0.0 rxn_smarts="[N:1]([c:2]1[c:3]([H:10])[n:4][c:5]([H:11])[n:6][c:7]1[H:12])([H:8])[H:9]>>[N:1](=[C:2]1[C:3]([H:10])=[N:4][C:5]([H:9])([H:11])[N:6]=[C:7]1[H:12])[H:8]"
N       -1.40131236      -0.10770274      -0.74194220
C       -0.89490613       0.02212373       0.48894873
C       -0.06747226       1.21152368       0.72772803
N        1.05779852       1.06898942       0.12536598
C        1.26616277      -0.13553178      -0.53311840
N        0.97551708      -1.28413514       0.19404688
C       -0.16876697      -1.21564368       0.78205765
H       -1.72651485       0.78233250      -1.11665561
H       -0.20597860      -0.20454746      -1.22680326
H       -0.33530324       2.12382518       1.24649348
H        2.11439140      -0.17940853      -1.20299584
H       -0.61361532      -2.08182515       1.25687451
12
Frame=1 idx=008984 GeodesicLength=0.08428854983676644 rxn_smarts="[N:1]([c:2]1[c:3]([H:10])[n:4][c:5]([H:11])[n:6][c:7]1[H:12])([H:8])[H:9]>>[N:1](=[C:2]1[C:3]([H:10])=[N:4][C:5]([H:9])([H:11])[N:6]=[C:7]1[H:12])[H:8]"
N       -1.41698076      -0.10117173      -0.72561537
C       -0.89170498       0.02129056       0.49851082
C       -0.05764578       1.20641595       0.73182401
N        1.06845720       1.06808868       0.12727661
C        1.27215240      -0.13731824      -0.53356378
N        0.98281985      -1.28575172       0.19621148
C       -0.16225851      -1.21574124       0.78507230
H       -1.75419072       0.78988971      -1.08614391
H       -0.21053674      -0.20799662      -1.24490187
H       -0.34831296       2.13730803       1.20384748
H        2.13950607      -0.18257982      -1.17925230
H       -0.62130507      -2.09243357       1.22673453
12
Frame=2 idx=008984 GeodesicLength=0.1685219442733694 rxn_smarts="[N:1]([c:2]1[c:3]([H:10])[n:4][c:5]([H:11])[n:6][c:7]1[H:12])([H:8])[H:9]>>[N:1](=[C:2]1[C:3]([H:10])=[N:4][C:5]([H:9])([H:11])[N:6]=[C:7]1[H:12])[H:8]"
N       -1.43268706      -0.09467464      -0.70958600
C       -0.88875356       0.02067686       0.50748432
C       -0.04842688       1.20183678       0.73503513
N        1.07886699       1.06738312       0.12899101
C        1.27826849      -0.13897844      -0.53399041
N        0.99007471      -1.28702603       0.19869760
C       -0.15611090      -1.21559017       0.78783893
H       -1.78185220       0.79713608      -1.05570279
H       -0.21502814      -0.21165359      -1.26379900
H       -0.36004026       2.14781533       1.16255843
H        2.16412351      -0.18568312      -1.15490756
H       -0.62843471      -2.10124217       1.19738034
12
Frame=3 idx=008984 GeodesicLength=0.25269137008664255 rxn_smarts="[N:1]([c:2]1[c:3]([H:10])[n:4][c:5]([H:11])[n:6][c:7]1[H:12])([H:8])[H:9]>>[N:1](=[C:2]1[C:3]([H:10])=[N:4][C:5]([H:9])([H:11])[N:6]=[C:7]1[H:12])[H:8]"
N       -1.44842863      -0.08820629      -0.69380575
C       -0.88602188       0.02025013       0.51591674
C       -0.03975249       1.19771413       0.73741411
N        1.08908837       1.06683336       0.13056075
C        1.28454191      -0.14053555      -0.53436181
N        0.99729272      -1.28799617       0.20149821
C       -0.15029630      -1.21521682       0.79036750
H       -1.80952819       0.80406963      -1.02522850
H       -0.21938186      -0.21556548      -1.28346839
H       -0.37062231       2.15588078       1.12252213
H        2.18818751      -0.18872331      -1.13004847
H       -0.63507885      -2.10850442       1.16863349
12
Frame=4 idx=008984 GeodesicLength=0.33682623362809566 rxn_smarts="[N:1]([c:2]1[c:3]([H:10])[n:4][c:5]([H:11])[n:6][c:7]1[H:12])([H:8])[H:9]>>[N:1](=[C:2]1[C:3]([H:10])=[N:4][C:5]([H:9])([H:11])[N:6]=[C:7]1[H:12])[H:8]"
N       -1.46422172      -0.08175224      -0.67826019
C       -0.88350266       0.01998865       0.52382156
C       -0.03158937       1.19399167       0.73898472
N        1.09915668       1.06641757       0.13201664
C        1.29100297      -0.14201340      -0.53465126
N        1.00448455      -1.28870224       0.20460210
C       -0.14479964      -1.21464963       0.79264353
H       -1.83723705       0.81070860      -0.99466410
H       -0.22353743      -0.21977466      -1.30393500
H       -0.38015822       2.16187305       1.08373496
H        2.21166829      -0.19170643      -1.10474668
H       -0.64126639      -2.11438093       1.14045372
12
Frame=5 idx=008984 GeodesicLength=0.4209456764873299 rxn_smarts="[N:1]([c:2]1[c:3]([H:10])[n:4][c:5]([H:11])[n:6][c:7]1[H:12])([H:8])[H:9]>>[N:1](=[C:2]1[C:3]([H:10])=[N:4][C:5]([H:9])([H:11])[N:6]=[C:7]1[H:12])[H:8]"
N       -1.48008500      -0.07529685      -0.66291724
C       -0.88118849       0.01987728       0.53122312
C       -0.02390735       1.19062560       0.73978388
N        1.10909444       1.06612402       0.13338788
C        1.29767792      -0.14342935      -0.53483156
N        1.01166124      -1.28917637       0.20800668
C       -0.13960916      -1.21391195       0.79466453
H       -1.86497555       0.81707072      -0.96395578
H       -0.22743934      -0.22430104      -1.32522610
H       -0.38873391       2.16606671       1.04614040
H        2.23453545      -0.19463367      -1.07907240
H       -0.64703024      -2.11901508       1.11279659
12
Frame=6 idx=008984 GeodesicLength=0.5050731892869069 rxn_smarts="[N:1]([c:2]1[c:3]([H:10])[n:4][c:5]([H:11])[n:6][c:7]1[H:12])([H:8])[H:9]>>[N:1](=[C:2]1[C:3]([H:10])=[N:4][C:5]([H:9])([H:11])[N:6]=[C:7]1[H:12])[H:8]"
N       -1.49603812      -0.06881161      -0.64771649
C       -0.87905504       0.01989384       0.53816293
C       -0.01665268       1.18755578       0.73988111
N        1.11894357       1.06592600       0.13472374
C        1.30459282      -0.14480505      -0.53486430
N        1.01882894      -1.28945892       0.21170400
C       -0.13470686      -1.21303767       0.79642672
H       -1.89278029       0.82319061      -0.93296110
H       -0.23102853      -0.22917469      -1.34734685
H       -0.39648713       2.16879938       1.00953285
H        2.25679489      -0.19750644      -1.05307141
H       -0.65241156      -2.12257126       1.08552880
12
Frame=7 idx=008984 GeodesicLength=0.5892112061383274 rxn_smarts="[N:1]([c:2]1[c:3]([H:10])[n:4][c:5]([H:11])[n:6][c:7]1[H:12])([H:8])[H:9]>>[N:1](=[C:2]1[C:3]([H:10])=[N:4][C:5]([H:9])([H:11])[N:6]=[C:7]1[H:12])[H:8]"
N       -1.51210360      -0.06227841      -0.63261917
C       -0.87709907       0.02003133       0.54466466
C       -0.00980306       1.18475408       0.73930891
N        1.12871735       1.06581952       0.13604793
C        1.31176795      -0.14614940      -0.53472154
N        1.02599495      -1.28956833       0.21570041
C       -0.13008572      -1.21204093       0.79793129
H       -1.92065553       0.82908205      -0.90160273
H       -0.23425079      -0.23441208      -1.37032889
H       -0.40347697       2.17023885       0.97381610
H        2.27843293      -0.20032614      -1.02678826
H       -0.65743846      -2.12515052       1.05859127
12
Frame=8 idx=008984 GeodesicLength=0.6733879306447934 rxn_smarts="[N:1]([c:2]1[c:3]([H:10])[n:4][c:5]([H:11])[n:6][c:7]1[H:12])([H:8])[H:9]>>[N:1](=[C:2]1[C:3]([H:10])=[N:4][C:5]([H:9])([H:11])[N:6]=[C:7]1[H:12])[H:8]"
N       -1.52832065      -0.05567254      -0.61755464
C       -0.87530474       0.02027836       0.55076428
C       -0.00332100       1.18218379       0.73811400
N        1.13843871       1.06579139       0.13738874
C        1.31921653      -0.14747712      -0.53437447
N        1.03315855      -1.28952924       0.21999570
C       -0.12573774      -1.21094298       0.79917603
H       -1.94861463       0.83477067      -0.86975996
H       -0.23704564      -0.24004414      -1.39419266
H       -0.40980195       2.17060300       0.93882083
H        2.29947467      -0.20309170      -1.00025073
H       -0.66214211      -2.12686948       1.03187289
12
Frame=9 idx=008984 GeodesicLength=0.7576413783759168 rxn_smarts="[N:1]([c:2]1[c:3]([H:10])[n:4][c:5]([H:11])[n:6][c:7]1[H:12])([H:8])[H:9]>>[N:1](=[C:2]1[C:3]([H:10])=[N:4][C:5]([H:9])([H:11])[N:6]=[C:7]1[H:12])[H:8]"
N       -1.54476310      -0.04898822      -0.60244180
C       -0.87367402       0.02063019       0.55649375
C        0.00280797       1.17982722       0.73629694
N        1.14810256       1.06585448       0.13874209
C        1.32693503      -0.14878445      -0.53380575
N        1.04031772      -1.28935293       0.22457425
C       -0.12164742      -1.20975479       0.80014670
H       -1.97658285       0.84030739      -0.83740752
H       -0.23939730      -0.24609092      -1.41899290
H       -0.41551554       2.16992286       0.90448658
H        2.31995344      -0.20579435      -0.97346318
H       -0.66653651      -2.12777649       1.00537084
12
Frame=10 idx=008984 GeodesicLength=0.8419325397822957 rxn_smarts="[N:1]([c:2]1[c:3]([H:10])[n:4][c:5]([H:11])[n:6][c:7]1[H:12])([H:8])[H:9]>>[N:1](=[C:2]1[C:3]([H:10])=[N:4][C:5]([H:9])([H:11])[N:6]=[C:7]1[H:12])[H:8]"
N       -1.56143285      -0.04218927      -0.58722270
C       -0.87218615       0.02107589       0.56188410
C        0.00862428       1.17764497       0.73393271
N        1.15773898       1.06597987       0.14015479
C        1.33494837      -0.15009176      -0.53298743
N        1.04747517      -1.28906384       0.22945005
C       -0.11781866      -1.20849850       0.80084914
H       -2.00464699       0.84568490      -0.80435479
H       -0.24121488      -0.25257868      -1.44473792
H       -0.42071216       2.16846450       0.87056807
H        2.33988485      -0.20844122      -0.94644420
H       -0.67065995      -2.12798686       0.97890818
12
Frame=11 idx=008984 GeodesicLength=0.9262627914183246 rxn_smarts="[N:1]([c:2]1[c:3]([H:10])[n:4][c:5]([H:11])[n:6][c:7]1[H:12])([H:8])[H:9]>>[N:1](=[C:2]1[C:3]([H:10])=[N:4][C:5]([H:9])([H:11])[N:6]=[C:7]1[H:12])[H:8]"
N       -1.57838188      -0.03525534      -0.57182736
C       -0.87084226       0.02161501       0.56695226
C        0.01413675       1.17562486       0.73102801
N        1.16734677       1.06616977       0.14163007
C        1.34326356      -0.15140344      -0.53190538
N        1.05463050      -1.28866944       0.23462367
C       -0.11424923      -1.20718134       0.80127153
H       -2.03280332       0.85092287      -0.77052575
H       -0.24245355      -0.25954522      -1.47147993
H       -0.42542331       2.16628650       0.83698445
H        2.35930301      -0.21102641      -0.91918504
H       -0.67452705      -2.12753782       0.95243345
12
Frame=12 idx=008984 GeodesicLength=1.0106124916264279 rxn_smarts="[N:1]([c:2]1[c:3]([H:10])[n:4][c:5]([H:11])[n:6][c:7]1[H:12])([H:8])[H:9]>>[N:1](=[C:2]1[C:3]([H:10])=[N:4][C:5]([H:9])([H:11])[N:6]=[C:7]1[H:12])[H:8]"
N       -1.59565290      -0.02816630      -0.55617519
C       -0.86963505       0.02224539       0.57172787
C        0.01936606       1.17374925       0.72760560
N        1.17693293       1.06641920       0.14318473
C        1.35188533      -0.15272653      -0.53053846
N        1.06177947      -1.28818280       0.24009967
C       -0.11093954      -1.20581355       0.80141220
H       -2.06105770       0.85603520      -0.73580125
H       -0.24305953      -0.26701851      -1.49926264
H       -0.42970474       2.16349552       0.80358143
H        2.37824208      -0.21354848      -0.89167501
H       -0.67815642      -2.12648839       0.92584104
12
Frame=13 idx=008984 GeodesicLength=1.0949314295201709 rxn_smarts="[N:1]([c:2]1[c:3]([H:10])[n:4][c:5]([H:11])[n:6][c:7]1[H:12])([H:8])[H:9]>>[N:1](=[C:2]1[C:3]([H:10])=[N:4][C:5]([H:9])([H:11])[N:6]=[C:7]1[H:12])[H:8]"
N       -1.61328928      -0.02090451      -0.54019939
C       -0.86856688       0.02296812       0.57622670
C        0.02431799       1.17200914       0.72366775
N        1.18649246       1.06673253       0.14481929
C        1.36081559      -0.15406231      -0.52887810
N        1.06891823      -1.28760666       0.24587722
C       -0.10789026      -1.20439946       0.80125818
H       -2.08939763       0.86103678      -0.70010174
H       -0.24298973      -0.27503924      -1.52813859
H       -0.43358071       2.16012262       0.77028337
H        2.39673252      -0.21600056      -0.86389480
H       -0.68156230      -2.12485644       0.89908012
12
Frame=14 idx=008984 GeodesicLength=1.1792444285826844 rxn_smarts="[N:1]([c:2]1[c:3]([H:10])[n:4][c:5]([H:11])[n:6][c:7]1[H:12])([H:8])[H:9]>>[N:1](=[C:2]1[C:3]([H:10])=[N:4][C:5]([H:9])([H:11])[N:6]=[C:7]1[H:12])[H:8]"
N       -1.63136311      -0.01344979      -0.52378826
C       -0.86763465       0.02378103       0.58047125
C        0.02900234       1.17039299       0.71921657
N        1.19602319       1.06710929       0.14653553
C        1.37005799      -0.15541656      -0.52690464
N        1.07603948      -1.28694722       0.25196543
C       -0.10510540      -1.20294905       0.80079667
H       -2.11781344       0.86596394      -0.66328619
H       -0.24215907      -0.28365555      -1.55817099
H       -0.43710438       2.15623296       0.73693579
H        2.41481245      -0.21837994      -0.83580980
H       -0.68475541      -2.12268210       0.87203863
12
Frame=15 idx=008984 GeodesicLength=1.2635201789872434 rxn_smarts="[N:1]([c:2]1[c:3]([H:10])[n:4][c:5]([H:11])[n:6][c:7]1[H:12])([H:8])[H:9]>>[N:1](=[C:2]1[C:3]([H:10])=[N:4][C:5]([H:9])([H:11])[N:6]=[C:7]1[H:12])[H:8]"
N       -1.64993773      -0.00578805      -0.50683683
C       -0.86684144       0.02468411       0.58448281
C        0.03342061       1.16889377       0.71424830
N        1.20551404       1.06755543       0.14832833
C        1.37961281      -0.15679008      -0.52460549
N        1.08313728      -1.28620353       0.25837106
C       -0.10258865      -1.20146792       0.80001313
H       -2.14626267       0.87085272      -0.62526507
H       -0.24049799      -0.29292314      -1.58942239
H       -0.44031263       2.15184400       0.70344361
H        2.43250068      -0.22067860      -0.80739547
H       -0.68774430      -2.11997870       0.84463800
12
Frame=16 idx=008984 GeodesicLength=1.3477289334062066 rxn_smarts="[N:1]([c:2]1[c:3]([H:10])[n:4][c:5]([H:11])[n:6][c:7]1[H:12])([H:8])[H:9]>>[N:1](=[C:2]1[C:3]([H:10])=[N:4][C:5]([H:9])([H:11])[N:6]=[C:7]1[H:12])[H:8]"
N       -1.66907579       0.00209727      -0.48923720
C       -0.86619070       0.02567776       0.58827683
C        0.03757119       1.16750636       0.70874826
N        1.21495671       1.06807515       0.15019571
C        1.38948252      -0.15818586      -0.52196534
N        1.09020333      -1.28537704       0.26510292
C       -0.10034717      -1.19996239       0.79888806
H       -2.17472044       0.87574129      -0.58590380
H       -0.23792428      -0.30289901      -1.62196787
H       -0.44324298       2.14696825       0.66968504
H        2.44982413      -0.22288823      -0.77860786
H       -0.69053652      -2.11675358       0.81678524
