11
Frame=0 idx=010687 GeodesicLength=0.0 rxn_smarts="[C:1](#[C:2][c:3]1[c:4]([H:9])[c:5]([H:10])[c:6]([H:11])[o:7]1)[H:8]>>[C:1](#[C:2]/[C:3](=[C:4](/[C:5]#[C:6][H:10])[H:9])[O:7][H:11])[H:8]"
C        2.98217079       0.01588132       0.00971201
C        1.80088549      -0.17220426      -0.02589292
C        0.38811992      -0.38960742      -0.06723729
C       -0.48225292       0.61832002       0.10753012
C       -1.89164314       0.37482993       0.06114631
C       -3.08270079      -0.03090378      -0.01342020
O        0.04802115      -1.67093226      -0.29310802
H        4.03375804       0.18091383       0.04146312
H       -0.11725134       1.61761085       0.28340103
H       -2.76827399       1.22236082       0.20882630
H       -0.91083316      -1.76626905      -0.31242050
11
Frame=1 idx=010687 GeodesicLength=0.13743212289258958 rxn_smarts="[C:1](#[C:2][c:3]1[c:4]([H:9])[c:5]([H:10])[c:6]([H:11])[o:7]1)[H:8]>>[C:1](#[C:2]/[C:3](=[C:4](/[C:5]#[C:6][H:10])[H:9])[O:7][H:11])[H:8]"
C        2.98744307      -0.00788042       0.01399180
C        1.80426137      -0.17763646      -0.04750661
C        0.38809070      -0.37083595      -0.06707605
C       -0.46730972       0.64897976       0.11885895
C       -1.87092340       0.38590461       0.17825017
C       -3.01302814      -0.10442818      -0.03119411
O        0.01214324      -1.63089284      -0.34950575
H        4.03691083       0.16261993       0.07459066
H       -0.09941274       1.65607152       0.22971234
H       -2.81887757       1.18471828       0.17210883
H       -0.95929765      -1.74662027      -0.29223022
11
Frame=2 idx=010687 GeodesicLength=0.2774836087519745 rxn_smarts="[C:1](#[C:2][c:3]1[c:4]([H:9])[c:5]([H:10])[c:6]([H:11])[o:7]1)[H:8]>>[C:1](#[C:2]/[C:3](=[C:4](/[C:5]#[C:6][H:10])[H:9])[O:7][H:11])[H:8]"
C        2.99024796      -0.03618128       0.00417453
C        1.80505203      -0.18913088      -0.06411865
C        0.38648262      -0.35986101      -0.05115868
C       -0.45317554       0.67083318       0.15108227
C       -1.85336238       0.40353157       0.24612774
C       -2.94052747      -0.16276357      -0.05100738
O       -0.02764773      -1.59201997      -0.39800103
H        4.03199022       0.16902623       0.08829420
H       -0.08260932       1.68088055       0.21276518
H       -2.85159676       1.14996612       0.12398018
H       -1.00485362      -1.73428093      -0.26213836
11
Frame=3 idx=010687 GeodesicLength=0.41844902709889276 rxn_smarts="[C:1](#[C:2][c:3]1[c:4]([H:9])[c:5]([H:10])[c:6]([H:11])[o:7]1)[H:8]>>[C:1](#[C:2]/[C:3](=[C:4](/[C:5]#[C:6][H:10])[H:9])[O:7][H:11])[H:8]"
C        2.99110466      -0.05715091      -0.01409363
C        1.80405765      -0.20040321      -0.07366740
C        0.38457215      -0.35242979      -0.02526824
C       -0.44044364       0.68494379       0.20749738
C       -1.84183608       0.41915605       0.28440366
C       -2.86816457      -0.20359604      -0.10420398
O       -0.06644196      -1.55508092      -0.42801330
H        4.02625875       0.17860674       0.07196637
H       -0.06949854       1.69662541       0.22519817
H       -2.87577755       1.11880244       0.07608214
H       -1.04383089      -1.72947357      -0.21990117
11
Frame=4 idx=010687 GeodesicLength=0.5602308097799502 rxn_smarts="[C:1](#[C:2][c:3]1[c:4]([H:9])[c:5]([H:10])[c:6]([H:11])[o:7]1)[H:8]>>[C:1](#[C:2]/[C:3](=[C:4](/[C:5]#[C:6][H:10])[H:9])[O:7][H:11])[H:8]"
C        2.99079122      -0.07069450      -0.03136405
C        1.80226430      -0.20405917      -0.08774707
C        0.38286587      -0.34022719      -0.01121608
C       -0.43064439       0.70124347       0.24836464
C       -1.83243786       0.43458211       0.30953824
C       -2.79940819      -0.24417199      -0.13582387
O       -0.10161677      -1.51691322      -0.45289064
H        4.02380904       0.16951608       0.06682630
H       -0.06044134       1.71327801       0.24302715
H       -2.89951658       1.08364946       0.03226975
H       -1.07566530      -1.72620305      -0.18098437
11
Frame=5 idx=010687 GeodesicLength=0.7024368682304563 rxn_smarts="[C:1](#[C:2][c:3]1[c:4]([H:9])[c:5]([H:10])[c:6]([H:11])[o:7]1)[H:8]>>[C:1](#[C:2]/[C:3](=[C:4](/[C:5]#[C:6][H:10])[H:9])[O:7][H:11])[H:8]"
C        2.98988466      -0.08142954      -0.04506990
C        1.80015290      -0.20536650      -0.10071582
C        0.38133355      -0.32728040      -0.00141891
C       -0.42270742       0.71675226       0.28166122
C       -1.82475265       0.44848708       0.32542904
C       -2.73336234      -0.27840274      -0.16651980
O       -0.13341242      -1.48243107      -0.46777458
H        4.02283458       0.15710795       0.05802511
H       -0.05283665       1.72884387       0.26699366
H       -2.92220831       1.04815202      -0.00490947
H       -1.10492591      -1.72443293      -0.14570055
11
Frame=6 idx=010687 GeodesicLength=0.8449726386378905 rxn_smarts="[C:1](#[C:2][c:3]1[c:4]([H:9])[c:5]([H:10])[c:6]([H:11])[o:7]1)[H:8]>>[C:1](#[C:2]/[C:3](=[C:4](/[C:5]#[C:6][H:10])[H:9])[O:7][H:11])[H:8]"
C        2.98878873      -0.08920960      -0.05800322
C        1.79799829      -0.20469244      -0.11204925
C        0.38006959      -0.31387890       0.00629297
C       -0.41622340       0.73166835       0.30961896
C       -1.81822330       0.46142341       0.33548127
C       -2.67043021      -0.30828354      -0.19289620
O       -0.16194465      -1.45053530      -0.47693403
H        4.02326140       0.14102351       0.04870324
H       -0.04646200       1.74381645       0.29339804
H       -2.94410012       1.01206002      -0.03876443
H       -1.13273433      -1.72339198      -0.11484735
11
Frame=7 idx=010687 GeodesicLength=0.9876956210468683 rxn_smarts="[C:1](#[C:2][c:3]1[c:4]([H:9])[c:5]([H:10])[c:6]([H:11])[o:7]1)[H:8]>>[C:1](#[C:2]/[C:3](=[C:4](/[C:5]#[C:6][H:10])[H:9])[O:7][H:11])[H:8]"
C        2.98789949      -0.09505234      -0.06938595
C        1.79620463      -0.20284992      -0.12197793
C        0.37929486      -0.30039191       0.01217863
C       -0.41063493       0.74615264       0.33244428
C       -1.81215375       0.47288806       0.34193786
C       -2.60992477      -0.33312162      -0.21808955
O       -0.18731864      -1.42119379      -0.48215834
H        4.02468701       0.12265088       0.04105370
H       -0.04136797       1.75853337       0.31647785
H       -2.96664386       0.97513427      -0.06410484
H       -1.16004205      -1.72274964      -0.08837571
11
Frame=8 idx=010687 GeodesicLength=1.130541982158503 rxn_smarts="[C:1](#[C:2][c:3]1[c:4]([H:9])[c:5]([H:10])[c:6]([H:11])[o:7]1)[H:8]>>[C:1](#[C:2]/[C:3](=[C:4](/[C:5]#[C:6][H:10])[H:9])[O:7][H:11])[H:8]"
C        2.98728194      -0.09918096      -0.08045108
C        1.79481241      -0.20082718      -0.13023716
C        0.37896048      -0.28734899       0.01721167
C       -0.40555696       0.75997200       0.35178184
C       -1.80631425       0.48333982       0.34561032
C       -2.55177104      -0.35341039      -0.24234758
O       -0.21010966      -1.39437979      -0.48415013
H        4.02656975       0.10389935       0.03421453
H       -0.03677653       1.77261885       0.33793488
H       -2.98925303       0.93768517      -0.08421316
H       -1.18784312      -1.72236789      -0.06535413
11
Frame=9 idx=010687 GeodesicLength=1.2735345351300986 rxn_smarts="[C:1](#[C:2][c:3]1[c:4]([H:9])[c:5]([H:10])[c:6]([H:11])[o:7]1)[H:8]>>[C:1](#[C:2]/[C:3](=[C:4](/[C:5]#[C:6][H:10])[H:9])[O:7][H:11])[H:8]"
C        2.98709364      -0.10231614      -0.08939570
C        1.79392972      -0.19686072      -0.13902038
C        0.37909703      -0.27309414       0.01915239
C       -0.40108645       0.77429690       0.36679220
C       -1.80066586       0.49336319       0.34708705
C       -2.49624167      -0.37129868      -0.26270506
O       -0.23036729      -1.36861005      -0.48527453
H        4.02945434       0.08124891       0.03002951
H       -0.03315677       1.78731786       0.35758124
H       -3.01297724       0.89782733      -0.09937973
H       -1.21507945      -1.72187447      -0.04486699
11
Frame=10 idx=010687 GeodesicLength=1.416617708797709 rxn_smarts="[C:1](#[C:2][c:3]1[c:4]([H:9])[c:5]([H:10])[c:6]([H:11])[o:7]1)[H:8]>>[C:1](#[C:2]/[C:3](=[C:4](/[C:5]#[C:6][H:10])[H:9])[O:7][H:11])[H:8]"
C        2.98731744      -0.10422554      -0.09735177
C        1.79354642      -0.19286142      -0.14559083
C        0.37963425      -0.25912502       0.02107562
C       -0.39697076       0.78829403       0.37961721
C       -1.79517996       0.50304967       0.34624063
C       -2.44262224      -0.38561222      -0.28312264
O       -0.24840906      -1.34476573      -0.48397134
H        4.03287844       0.05825610       0.02444591
H       -0.02973787       1.80162346       0.37680463
H       -3.03695976       0.85654005      -0.11130124
H       -1.24349689      -1.72117338      -0.02684619
11
Frame=11 idx=010687 GeodesicLength=1.5597634090362806 rxn_smarts="[C:1](#[C:2][c:3]1[c:4]([H:9])[c:5]([H:10])[c:6]([H:11])[o:7]1)[H:8]>>[C:1](#[C:2]/[C:3](=[C:4](/[C:5]#[C:6][H:10])[H:9])[O:7][H:11])[H:8]"
C        2.98801386      -0.10515955      -0.10414689
C        1.79371642      -0.18868995      -0.15070356
C        0.38058621      -0.24511800       0.02233717
C       -0.39305811       0.80229821       0.39006528
C       -1.78968740       0.51260859       0.34357590
C       -2.39088419      -0.39698803      -0.30280467
O       -0.26449199      -1.32233763      -0.48123103
H        4.03672401       0.03443100       0.01879757
H       -0.02648989       1.81587041       0.39484421
H       -3.06127230       0.81310582      -0.11953298
H       -1.27315663      -1.72002088      -0.01120098
11
Frame=12 idx=010687 GeodesicLength=1.7029632819417064 rxn_smarts="[C:1](#[C:2][c:3]1[c:4]([H:9])[c:5]([H:10])[c:6]([H:11])[o:7]1)[H:8]>>[C:1](#[C:2]/[C:3](=[C:4](/[C:5]#[C:6][H:10])[H:9])[O:7][H:11])[H:8]"
C        2.98916266      -0.10510277      -0.10990758
C        1.79440487      -0.18418533      -0.15468511
C        0.38191804      -0.23088936       0.02286441
C       -0.38932658       0.81642901       0.39848714
C       -1.78419404       0.52232986       0.33911642
C       -2.34094498      -0.40597877      -0.32150547
O       -0.27880796      -1.30107441      -0.47727426
H        4.04089187       0.00945080       0.01298923
H       -0.02334906       1.83012827       0.41239936
H       -3.08556823       0.76715273      -0.12496910
H       -1.30418659      -1.71826003       0.00248495
11
Frame=13 idx=010687 GeodesicLength=1.8461869633911494 rxn_smarts="[C:1](#[C:2][c:3]1[c:4]([H:9])[c:5]([H:10])[c:6]([H:11])[o:7]1)[H:8]>>[C:1](#[C:2]/[C:3](=[C:4](/[C:5]#[C:6][H:10])[H:9])[O:7][H:11])[H:8]"
C        2.99087634      -0.10436959      -0.11369793
C        1.79572755      -0.17937727      -0.15745170
C        0.38366141      -0.21620397       0.02229619
C       -0.38566270       0.83106219       0.40442314
C       -1.77856500       0.53214754       0.33341051
C       -2.29265658      -0.41263062      -0.33942277
O       -0.29147160      -1.28047824      -0.47297307
H        4.04537511      -0.01713277       0.00778783
H       -0.02047096       1.84487113       0.42753429
H       -3.11010538       0.71772203      -0.12543520
H       -1.33670818      -1.71561044       0.01352872
11
Frame=14 idx=010687 GeodesicLength=1.9894401959962182 rxn_smarts="[C:1](#[C:2][c:3]1[c:4]([H:9])[c:5]([H:10])[c:6]([H:11])[o:7]1)[H:8]>>[C:1](#[C:2]/[C:3](=[C:4](/[C:5]#[C:6][H:10])[H:9])[O:7][H:11])[H:8]"
C        2.99305742      -0.10354569      -0.11571907
C        1.79755411      -0.17427483      -0.15953135
C        0.38572282      -0.20102009       0.02045536
C       -0.38204290       0.84609077       0.40837482
C       -1.77285693       0.54245101       0.32619213
C       -2.24605752      -0.41748872      -0.35612044
O       -0.30278615      -1.26055644      -0.46820232
H        4.04985167      -0.04446458       0.00269490
H       -0.01759063       1.85985894       0.44191282
H       -3.13395952       0.66496182      -0.12274244
H       -1.37089237      -1.71201219       0.02268560
11
Frame=15 idx=010687 GeodesicLength=2.132683965694112 rxn_smarts="[C:1](#[C:2][c:3]1[c:4]([H:9])[c:5]([H:10])[c:6]([H:11])[o:7]1)[H:8]>>[C:1](#[C:2]/[C:3](=[C:4](/[C:5]#[C:6][H:10])[H:9])[O:7][H:11])[H:8]"
C        2.99571781      -0.10313405      -0.11492068
C        1.79991698      -0.16897563      -0.16096508
C        0.38806054      -0.18512152       0.01669959
C       -0.37839829       0.86173612       0.40995992
C       -1.76701097       0.55312104       0.31803307
C       -2.20124563      -0.42076073      -0.37131163
O       -0.31296151      -1.24087517      -0.46388552
H        4.05429354      -0.07248865      -0.00176010
H       -0.01482978       1.87539239       0.45420634
H       -3.15681793       0.60846540      -0.11548503
H       -1.40672476      -1.70735920       0.02942912
11
Frame=16 idx=010687 GeodesicLength=2.275904315399364 rxn_smarts="[C:1](#[C:2][c:3]1[c:4]([H:9])[c:5]([H:10])[c:6]([H:11])[o:7]1)[H:8]>>[C:1](#[C:2]/[C:3](=[C:4](/[C:5]#[C:6][H:10])[H:9])[O:7][H:11])[H:8]"
C        2.99870317      -0.10280014      -0.11205547
C        1.80267461      -0.16339120      -0.16210662
C        0.39059162      -0.16852294       0.01095260
C       -0.37479688       0.87776943       0.40971809
C       -1.76112949       0.56391373       0.30948590
C       -2.15828170      -0.42300229      -0.38448879
O       -0.32216428      -1.22148259      -0.45991499
H        4.05842101      -0.10108965      -0.00555555
H       -0.01230887       1.89123933       0.46520451
H       -3.17747933       0.54919893      -0.10547143
H       -1.44422984      -1.70183261       0.03423176
