11
Frame=0 idx=004033 GeodesicLength=0.0 rxn_smarts="[O:1]([c:2]1[c:3]([H:8])[n:4]([H:9])[c:5]([H:10])[c:6]1[H:11])[H:7]>>[O:1]([C@:2]1([H:11])[C+:3]([H:8])[N:4]([H:9])[C:5]([H:10])=[C-:6]1)[H:7]"
O        2.20744421       0.14321341      -0.33065705
C        0.87847382       0.10420672      -0.01100094
C        0.03918935      -0.98188757      -0.41036200
N       -1.19640066      -0.55304900      -0.20057122
C       -1.21578162       0.74750259       0.26937438
C        0.05663392       1.29096103       0.35300409
H        2.46983032       1.06453128      -0.23580396
H        0.26904118      -1.96947949      -0.77688173
H       -2.01044449      -1.14210805      -0.29270636
H       -2.17241079       1.19921554       0.48550732
H        0.67442473       0.09689352       1.15009750
11
Frame=1 idx=004033 GeodesicLength=0.06317914571537434 rxn_smarts="[O:1]([c:2]1[c:3]([H:8])[n:4]([H:9])[c:5]([H:10])[c:6]1[H:11])[H:7]>>[O:1]([C@:2]1([H:11])[C+:3]([H:8])[N:4]([H:9])[C:5]([H:10])=[C-:6]1)[H:7]"
O        2.20537097       0.14071083      -0.34082885
C        0.87899865       0.10077115      -0.00889457
C        0.03936621      -0.98811746      -0.39813357
N       -1.19758572      -0.55600751      -0.20073744
C       -1.21742282       0.74804874       0.26171799
C        0.05573215       1.28477008       0.35099360
H        2.47172928       1.05978778      -0.23756731
H        0.26841295      -1.96953716      -0.78149186
H       -2.01376982      -1.13788663      -0.31485877
H       -2.17191018       1.19281187       0.50035866
H        0.68107834       0.12464832       1.16944211
11
Frame=2 idx=004033 GeodesicLength=0.12638087985750082 rxn_smarts="[O:1]([c:2]1[c:3]([H:8])[n:4]([H:9])[c:5]([H:10])[c:6]1[H:11])[H:7]>>[O:1]([C@:2]1([H:11])[C+:3]([H:8])[N:4]([H:9])[C:5]([H:10])=[C-:6]1)[H:7]"
O        2.20304971       0.13801887      -0.35086240
C        0.87942848       0.09711796      -0.00648509
C        0.03937750      -0.99436845      -0.38586706
N       -1.19884911      -0.55917654      -0.20050754
C       -1.21908799       0.74816866       0.25503946
C        0.05473852       1.27839702       0.34919360
H        2.47342977       1.05481198      -0.23972244
H        0.26763502      -1.96921882      -0.78631135
H       -2.01663588      -1.13346979      -0.33767743
H       -2.17114253       1.18639241       0.51452060
H        0.68805651       0.15332671       1.18867968
11
Frame=3 idx=004033 GeodesicLength=0.18957840702973228 rxn_smarts="[O:1]([c:2]1[c:3]([H:8])[n:4]([H:9])[c:5]([H:10])[c:6]1[H:11])[H:7]>>[O:1]([C@:2]1([H:11])[C+:3]([H:8])[N:4]([H:9])[C:5]([H:10])=[C-:6]1)[H:7]"
O        2.20049247       0.13522319      -0.36081458
C        0.87976720       0.09326852      -0.00388413
C        0.03920920      -1.00044988      -0.37409716
N       -1.20020643      -0.56242782      -0.20017724
C       -1.22075719       0.74785844       0.24943296
C        0.05368688       1.27175791       0.34790634
H        2.47493719       1.04966447      -0.24210292
H        0.26672415      -1.96865396      -0.79103542
H       -2.01897337      -1.12896615      -0.36059280
H       -2.17023510       1.18011563       0.52769177
H        0.69535500       0.18260966       1.20767317
11
Frame=4 idx=004033 GeodesicLength=0.25271887409821076 rxn_smarts="[O:1]([c:2]1[c:3]([H:8])[n:4]([H:9])[c:5]([H:10])[c:6]1[H:11])[H:7]>>[O:1]([C@:2]1([H:11])[C+:3]([H:8])[N:4]([H:9])[C:5]([H:10])=[C-:6]1)[H:7]"
O        2.19778114       0.13239980      -0.37058724
C        0.88003249       0.08926691      -0.00121205
C        0.03884522      -1.00620140      -0.36342765
N       -1.20167754      -0.56555847      -0.20033063
C       -1.22241313       0.74724407       0.24469033
C        0.05262534       1.26483669       0.34731034
H        2.47636346       1.04437400      -0.24430454
H        0.26568447      -1.96792003      -0.79577595
H       -2.02079531      -1.12477411      -0.38227065
H       -2.16929275       1.17414438       0.53962434
H        0.70284662       0.21218817       1.22628370
11
Frame=5 idx=004033 GeodesicLength=0.31615306879515304 rxn_smarts="[O:1]([c:2]1[c:3]([H:8])[n:4]([H:9])[c:5]([H:10])[c:6]1[H:11])[H:7]>>[O:1]([C@:2]1([H:11])[C+:3]([H:8])[N:4]([H:9])[C:5]([H:10])=[C-:6]1)[H:7]"
O        2.19492185       0.12959340      -0.38031283
C        0.88026548       0.08511959       0.00147118
C        0.03831989      -1.01161988      -0.35387067
N       -1.20324538      -0.56859675      -0.20088097
C       -1.22403339       0.74630760       0.24085245
C        0.05158936       1.25762110       0.34747622
H        2.47769922       1.03902076      -0.24651414
H        0.26455943      -1.96731592      -0.80004001
H       -2.02223738      -1.12065138      -0.40345394
H       -2.16834172       1.16838324       0.55067211
H        0.71050264       0.24213823       1.24460060
11
Frame=6 idx=004033 GeodesicLength=0.37936524100483504 rxn_smarts="[O:1]([c:2]1[c:3]([H:8])[n:4]([H:9])[c:5]([H:10])[c:6]1[H:11])[H:7]>>[O:1]([C@:2]1([H:11])[C+:3]([H:8])[N:4]([H:9])[C:5]([H:10])=[C-:6]1)[H:7]"
O        2.19205903       0.12671159      -0.38937127
C        0.88044064       0.08080401       0.00423061
C        0.03761012      -1.01622926      -0.34658004
N       -1.20486382      -0.57101454      -0.20312392
C       -1.22556300       0.74524453       0.23725267
C        0.05060876       1.25011894       0.34826480
H        2.47910125       1.03344627      -0.24782415
H        0.26334339      -1.96635756      -0.80506361
H       -2.02341800      -1.11780311      -0.42038080
H       -2.16743353       1.16305773       0.56005280
H        0.71811516       0.27202140       1.26254292
11
Frame=7 idx=004033 GeodesicLength=0.44261233394867133 rxn_smarts="[O:1]([c:2]1[c:3]([H:8])[n:4]([H:9])[c:5]([H:10])[c:6]1[H:11])[H:7]>>[O:1]([C@:2]1([H:11])[C+:3]([H:8])[N:4]([H:9])[C:5]([H:10])=[C-:6]1)[H:7]"
O        2.18923941       0.12377167      -0.39794123
C        0.88063261       0.07631866       0.00707295
C        0.03677494      -1.02043256      -0.34082251
N       -1.20653414      -0.57312360      -0.20633436
C       -1.22702721       0.74406853       0.23407499
C        0.04970525       1.24240132       0.34961323
H        2.48056989       1.02774421      -0.24873351
H        0.26207343      -1.96536367      -0.81048819
H       -2.02457637      -1.11571074      -0.43509196
H       -2.16658520       1.15801719       0.56846080
H        0.72572739       0.30230901       1.28018980
11
Frame=8 idx=004033 GeodesicLength=0.5051381719973314 rxn_smarts="[O:1]([c:2]1[c:3]([H:8])[n:4]([H:9])[c:5]([H:10])[c:6]1[H:11])[H:7]>>[O:1]([C@:2]1([H:11])[C+:3]([H:8])[N:4]([H:9])[C:5]([H:10])=[C-:6]1)[H:7]"
O        2.18648896       0.12071830      -0.40578807
C        0.88084280       0.07161651       0.01018130
C        0.03584065      -1.02421511      -0.33662709
N       -1.20821336      -0.57492187      -0.21049401
C       -1.22840408       0.74279274       0.23122101
C        0.04886409       1.23453011       0.35118595
H        2.48211630       1.02179872      -0.24915063
H        0.26077244      -1.96420142      -0.81659762
H       -2.02579449      -1.11444246      -0.44737237
H       -2.16575328       1.15316778       0.57610014
H        0.73323996       0.33315670       1.29734140
11
Frame=9 idx=004033 GeodesicLength=0.5679002519562761 rxn_smarts="[O:1]([c:2]1[c:3]([H:8])[n:4]([H:9])[c:5]([H:10])[c:6]1[H:11])[H:7]>>[O:1]([C@:2]1([H:11])[C+:3]([H:8])[N:4]([H:9])[C:5]([H:10])=[C-:6]1)[H:7]"
O        2.18378108       0.11750556      -0.41311971
C        0.88105947       0.06669539       0.01342758
C        0.03480619      -1.02776067      -0.33353768
N       -1.20990888      -0.57650263      -0.21539172
C       -1.22971175       0.74137832       0.22867475
C        0.04808696       1.22642652       0.35315013
H        2.48366347       1.01569983      -0.24933792
H        0.25942182      -1.96300795      -0.82313666
H       -2.02711254      -1.11365687      -0.45823399
H       -2.16494250       1.14837366       0.58323094
H        0.74085668       0.36484882       1.31427428
11
Frame=10 idx=004033 GeodesicLength=0.6309094197324685 rxn_smarts="[O:1]([c:2]1[c:3]([H:8])[n:4]([H:9])[c:5]([H:10])[c:6]1[H:11])[H:7]>>[O:1]([C@:2]1([H:11])[C+:3]([H:8])[N:4]([H:9])[C:5]([H:10])=[C-:6]1)[H:7]"
O        2.18108522       0.11413138      -0.42005264
C        0.88126509       0.06153870       0.01678902
C        0.03366789      -1.03123659      -0.33114287
N       -1.21162354      -0.57800340      -0.22068660
C       -1.23095932       0.73978616       0.22653222
C        0.04735197       1.21806021       0.35549639
H        2.48514370       1.00944971      -0.24947900
H        0.25801772      -1.96190961      -0.82980366
H       -2.02849693      -1.11296847      -0.46879105
H       -2.16412350       1.14347803       0.59025052
H        0.74867168       0.39767388       1.33088767
11
Frame=11 idx=004033 GeodesicLength=0.6936526090643035 rxn_smarts="[O:1]([c:2]1[c:3]([H:8])[n:4]([H:9])[c:5]([H:10])[c:6]1[H:11])[H:7]>>[O:1]([C@:2]1([H:11])[C+:3]([H:8])[N:4]([H:9])[C:5]([H:10])=[C-:6]1)[H:7]"
O        2.17846094       0.11045200      -0.42618729
C        0.88148253       0.05606397       0.02052240
C        0.03245916      -1.03443521      -0.32997985
N       -1.21333513      -0.57927717      -0.22673728
C       -1.23213699       0.73804192       0.22464677
C        0.04667262       1.20952107       0.35792210
H        2.48663868       1.00293219      -0.24932667
H        0.25658502      -1.96063552      -0.83728341
H       -2.03004540      -1.11287642      -0.47766352
H       -2.16329992       1.13855991       0.59694392
H        0.75651849       0.43165325       1.34714284
11
Frame=12 idx=004033 GeodesicLength=0.7564020484294196 rxn_smarts="[O:1]([c:2]1[c:3]([H:8])[n:4]([H:9])[c:5]([H:10])[c:6]1[H:11])[H:7]>>[O:1]([C@:2]1([H:11])[C+:3]([H:8])[N:4]([H:9])[C:5]([H:10])=[C-:6]1)[H:7]"
O        2.17593260       0.10649850      -0.43164538
C        0.88170713       0.05026974       0.02452711
C        0.03115725      -1.03750835      -0.32975905
N       -1.21505208      -0.58038115      -0.23343048
C       -1.23323539       0.73615775       0.22300921
C        0.04606278       1.20073152       0.36060597
H        2.48812764       0.99618554      -0.24889763
H        0.25508670      -1.95924099      -0.84549266
H       -2.03176545      -1.11323520      -0.48529284
H       -2.16246270       1.13356836       0.60341943
H        0.76444152       0.46695427       1.36295632
11
Frame=13 idx=004033 GeodesicLength=0.8192304773811184 rxn_smarts="[O:1]([c:2]1[c:3]([H:8])[n:4]([H:9])[c:5]([H:10])[c:6]1[H:11])[H:7]>>[O:1]([C@:2]1([H:11])[C+:3]([H:8])[N:4]([H:9])[C:5]([H:10])=[C-:6]1)[H:7]"
O        2.17346403       0.10218514      -0.43641827
C        0.88192528       0.04410528       0.02888346
C        0.02976660      -1.04052453      -0.33029464
N       -1.21677968      -0.58137980      -0.24061256
C       -1.23427077       0.73406561       0.22172838
C        0.04550537       1.19167534       0.36350607
H        2.48953411       0.98919887      -0.24838632
H        0.25353014      -1.95778354      -0.85427308
H       -2.03361560      -1.11378583      -0.49238999
H       -2.16159888       1.12836971       0.60995693
H        0.77253941       0.50387375       1.37830001
11
Frame=14 idx=004033 GeodesicLength=0.8821235857381021 rxn_smarts="[O:1]([c:2]1[c:3]([H:8])[n:4]([H:9])[c:5]([H:10])[c:6]1[H:11])[H:7]>>[O:1]([C@:2]1([H:11])[C+:3]([H:8])[N:4]([H:9])[C:5]([H:10])=[C-:6]1)[H:7]"
O        2.17101215       0.09744102      -0.44052645
C        0.88212298       0.03752130       0.03368199
C        0.02827815      -1.04357906      -0.33134483
N       -1.21853196      -0.58235630      -0.24808776
C       -1.23526254       0.73169087       0.22095046
C        0.04498361       1.18234769       0.36657971
H        2.49079569       0.98196391      -0.24797546
H        0.25190546      -1.95636847      -0.86338471
H       -2.03554176      -1.11419952      -0.49986547
H       -2.16068559       1.12277730       0.61692419
H        0.78092380       0.54276125       1.39304832
11
Frame=15 idx=004033 GeodesicLength=0.9448999719207701 rxn_smarts="[O:1]([c:2]1[c:3]([H:8])[n:4]([H:9])[c:5]([H:10])[c:6]1[H:11])[H:7]>>[O:1]([C@:2]1([H:11])[C+:3]([H:8])[N:4]([H:9])[C:5]([H:10])=[C-:6]1)[H:7]"
O        2.16867202       0.09219878      -0.44370784
C        0.88230317       0.03047809       0.03896380
C        0.02670467      -1.04656101      -0.33321723
N       -1.22027991      -0.58315610      -0.25619169
C       -1.23618157       0.72910811       0.22049790
C        0.04452128       1.17271727       0.36985736
H        2.49194607       0.97441102      -0.24742430
H        0.25023076      -1.95477679      -0.87329729
H       -2.03760390      -1.11486476      -0.50660141
H       -2.15970465       1.11687394       0.62412104
H        0.78939204       0.58357145       1.40699967
11
Frame=16 idx=004033 GeodesicLength=1.0077061710377762 rxn_smarts="[O:1]([c:2]1[c:3]([H:8])[n:4]([H:9])[c:5]([H:10])[c:6]1[H:11])[H:7]>>[O:1]([C@:2]1([H:11])[C+:3]([H:8])[N:4]([H:9])[C:5]([H:10])=[C-:6]1)[H:7]"
O        2.16639347       0.08638923      -0.44600455
C        0.88244813       0.02292617       0.04479872
C        0.02502598      -1.04957719      -0.33565537
N       -1.22204897      -0.58387373      -0.26471593
C       -1.23705296       0.72622576       0.22054853
C        0.04410874       1.16275504       0.37338127
H        2.49291539       0.96656861      -0.24693316
H        0.24847731      -1.95314125      -0.88373201
H       -2.03975072      -1.11542634      -0.51360062
H       -2.15865139       1.11047633       0.63187391
H        0.79813503       0.62667737       1.42003920
