12
Frame=0 idx=005628 GeodesicLength=0.0 rxn_smarts="[C:1]1([H:7])([H:8])[C@@:2]2([H:9])[C@@:3]3([H:10])[O:4][C@:5]1([H:11])[C@@:6]23[H:12]>>[C:1]1([H:7])([H:8])[C:2]([H:9])=[C:6]([H:12])[C@:5]1([O+:4]=[C-:3][H:10])[H:11]"
C        1.11896744      -0.32460132      -0.48062756
C        0.77167982       0.97767210       0.18601994
C       -1.76443497       0.24256696      -0.23163508
O       -1.19873269      -0.89542410      -0.61711746
C       -0.08610379      -0.92008993       0.28808946
C       -0.24163506       0.46066413       0.95532384
H        2.06473195      -0.76538391      -0.15705960
H        1.03957064      -0.40883488      -1.56944168
H        1.15201267       1.98153047       0.06097642
H       -2.18351881       0.74252891      -1.13485237
H        0.00049486      -1.87210691       0.80845675
H       -0.67303206       0.78147850       1.89186733
12
Frame=1 idx=005628 GeodesicLength=0.03892658383774881 rxn_smarts="[C:1]1([H:7])([H:8])[C@@:2]2([H:9])[C@@:3]3([H:10])[O:4][C@:5]1([H:11])[C@@:6]23[H:12]>>[C:1]1([H:7])([H:8])[C:2]([H:9])=[C:6]([H:12])[C@:5]1([O+:4]=[C-:3][H:10])[H:11]"
C        1.11834752      -0.32641078      -0.47994724
C        0.75287247       0.98031428       0.16976583
C       -1.74939612       0.25886100      -0.23866528
O       -1.20361045      -0.89430678      -0.61317501
C       -0.08642593      -0.92281704       0.28775054
C       -0.23851800       0.45290217       0.96470554
H        2.06670512      -0.75475247      -0.14789497
H        1.04498365      -0.42005159      -1.56819387
H        1.14091436       1.98241829       0.05497699
H       -2.18267603       0.74806822      -1.13938387
H       -0.00091389      -1.87640421       0.80498499
H       -0.66228270       0.77217891       1.90507636
12
Frame=2 idx=005628 GeodesicLength=0.07773808386217723 rxn_smarts="[C:1]1([H:7])([H:8])[C@@:2]2([H:9])[C@@:3]3([H:10])[O:4][C@:5]1([H:11])[C@@:6]23[H:12]>>[C:1]1([H:7])([H:8])[C:2]([H:9])=[C:6]([H:12])[C@:5]1([O+:4]=[C-:3][H:10])[H:11]"
C        1.11798719      -0.32810764      -0.47912943
C        0.73488216       0.98246926       0.15441352
C       -1.73434848       0.27463509      -0.24599710
O       -1.20823067      -0.89294635      -0.60965584
C       -0.08675192      -0.92529130       0.28728276
C       -0.23554716       0.44572760       0.97320495
H        2.06858431      -0.74446517      -0.13883930
H        1.05078215      -0.43054294      -1.56675778
H        1.13071516       1.98262570       0.04945027
H       -2.18390130       0.75280615      -1.14297788
H       -0.00253194      -1.88032241       0.80162710
H       -0.65163949       0.76341200       1.91737872
12
Frame=3 idx=005628 GeodesicLength=0.11643976968448273 rxn_smarts="[C:1]1([H:7])([H:8])[C@@:2]2([H:9])[C@@:3]3([H:10])[O:4][C@:5]1([H:11])[C@@:6]23[H:12]>>[C:1]1([H:7])([H:8])[C:2]([H:9])=[C:6]([H:12])[C@:5]1([O+:4]=[C-:3][H:10])[H:11]"
C        1.11789727      -0.32972655      -0.47815499
C        0.71776097       0.98416583       0.13995444
C       -1.71924483       0.28994763      -0.25368684
O       -1.21257411      -0.89134389      -0.60658028
C       -0.08707765      -0.92753719       0.28668709
C       -0.23273364       0.43907457       0.98091208
H        2.07038759      -0.73457588      -0.12985055
H        1.05697390      -0.44034360      -1.56512596
H        1.12122284       1.98226294       0.04420103
H       -2.18709859       0.75685110      -1.14555609
H       -0.00437185      -1.88390008       0.79835829
H       -0.64114192       0.75512513       1.92884179
12
Frame=4 idx=005628 GeodesicLength=0.15506051090792955 rxn_smarts="[C:1]1([H:7])([H:8])[C@@:2]2([H:9])[C@@:3]3([H:10])[O:4][C@:5]1([H:11])[C@@:6]23[H:12]>>[C:1]1([H:7])([H:8])[C:2]([H:9])=[C:6]([H:12])[C@:5]1([O+:4]=[C-:3][H:10])[H:11]"
C        1.11811526      -0.33130820      -0.47699563
C        0.70154228       0.98544038       0.12634025
C       -1.70404271       0.30487257      -0.26179262
O       -1.21661545      -0.88947116      -0.60401115
C       -0.08740703      -0.92957635       0.28594264
C       -0.23008639       0.43288726       0.98789227
H        2.07215431      -0.72512010      -0.12082646
H        1.06364058      -0.44954047      -1.56328043
H        1.11227718       1.98144947       0.03903671
H       -2.19229362       0.76029282      -1.14696183
H       -0.00647461      -1.88718307       0.79512729
H       -0.63080979       0.74725685       1.93952895
12
Frame=5 idx=005628 GeodesicLength=0.19360338921358403 rxn_smarts="[C:1]1([H:7])([H:8])[C@@:2]2([H:9])[C@@:3]3([H:10])[O:4][C@:5]1([H:11])[C@@:6]23[H:12]>>[C:1]1([H:7])([H:8])[C:2]([H:9])=[C:6]([H:12])[C@:5]1([O+:4]=[C-:3][H:10])[H:11]"
C        1.11863733      -0.33287431      -0.47565533
C        0.68622398       0.98633398       0.11350693
C       -1.68871373       0.31943643      -0.27037646
O       -1.22035056      -0.88735859      -0.60195510
C       -0.08773676      -0.93142733       0.28504966
C       -0.22762892       0.42712644       0.99419063
H        2.07389591      -0.71611433      -0.11174770
H        1.07076883      -0.45817980      -1.56123016
H        1.10383742       1.98026516       0.03392029
H       -2.19940332       0.76319131      -1.14709447
H       -0.00883080      -1.89019221       0.79193137
H       -0.62069938       0.73979324       1.94946034
12
Frame=6 idx=005628 GeodesicLength=0.2320820846721141 rxn_smarts="[C:1]1([H:7])([H:8])[C@@:2]2([H:9])[C@@:3]3([H:10])[O:4][C@:5]1([H:11])[C@@:6]23[H:12]>>[C:1]1([H:7])([H:8])[C:2]([H:9])=[C:6]([H:12])[C@:5]1([O+:4]=[C-:3][H:10])[H:11]"
C        1.11946087      -0.33444327      -0.47414208
C        0.67178551       0.98688239       0.10137354
C       -1.67323353       0.33364914      -0.27950303
O       -1.22376990      -0.88503632      -0.60042869
C       -0.08806549      -0.93310199       0.28400346
C       -0.22539101       0.42175998       0.99983757
H        2.07562187      -0.70755582      -0.10259101
H        1.07835992      -0.46631875      -1.55898794
H        1.09588659       1.97876326       0.02883393
H       -2.20834290       0.76560563      -1.14580907
H       -0.01143370      -1.89293330       0.78876826
H       -0.61087820       0.73272904       1.95864506
12
Frame=7 idx=005628 GeodesicLength=0.2705209584890807 rxn_smarts="[C:1]1([H:7])([H:8])[C@@:2]2([H:9])[C@@:3]3([H:10])[O:4][C@:5]1([H:11])[C@@:6]23[H:12]>>[C:1]1([H:7])([H:8])[C:2]([H:9])=[C:6]([H:12])[C@:5]1([O+:4]=[C-:3][H:10])[H:11]"
C        1.12061755      -0.33604436      -0.47243716
C        0.65822469       0.98712717       0.08984945
C       -1.65755301       0.34756447      -0.28926702
O       -1.22684079      -0.88248966      -0.59951175
C       -0.08839502      -0.93460597       0.28276808
C       -0.22338835       0.41677487       1.00482988
H        2.07735525      -0.69945384      -0.09325429
H        1.08649949      -0.47404773      -1.55653196
H        1.08843476       1.97700396       0.02375143
H       -2.21925812       0.76753624      -1.14285967
H       -0.01431610      -1.89542147       0.78559370
H       -0.60138034       0.72605631       1.96706933
12
Frame=8 idx=005628 GeodesicLength=0.3089377941371808 rxn_smarts="[C:1]1([H:7])([H:8])[C@@:2]2([H:9])[C@@:3]3([H:10])[O:4][C@:5]1([H:11])[C@@:6]23[H:12]>>[C:1]1([H:7])([H:8])[C:2]([H:9])=[C:6]([H:12])[C@:5]1([O+:4]=[C-:3][H:10])[H:11]"
C        1.12215306      -0.33770032      -0.47052366
C        0.64555935       0.98711335       0.07883778
C       -1.64162447       0.36124496      -0.29981484
O       -1.22953829      -0.87969445      -0.59931714
C       -0.08873586      -0.93593517       0.28130212
C       -0.22164340       0.41217272       1.00914920
H        2.07913087      -0.69181528      -0.08362150
H        1.09529395      -0.48144809      -1.55385289
H        1.08157107       1.97503174       0.01868412
H       -2.23237953       0.76890762      -1.13792336
H       -0.01753295      -1.89766221       0.78236865
H       -0.59225378       0.71978514       1.97471152
12
Frame=9 idx=005628 GeodesicLength=0.3472901592372726 rxn_smarts="[C:1]1([H:7])([H:8])[C@@:2]2([H:9])[C@@:3]3([H:10])[O:4][C@:5]1([H:11])[C@@:6]23[H:12]>>[C:1]1([H:7])([H:8])[C:2]([H:9])=[C:6]([H:12])[C@:5]1([O+:4]=[C-:3][H:10])[H:11]"
C        1.12396623      -0.33939187      -0.46845293
C        0.63362774       0.98684657       0.06823437
C       -1.62553428       0.37453353      -0.31105633
O       -1.23191158      -0.87680037      -0.59969681
C       -0.08908396      -0.93712584       0.27965484
C       -0.22021805       0.40788540       1.01283212
H        2.08090133      -0.68452936      -0.07381510
H        1.10457474      -0.48853076      -1.55097296
H        1.07513683       1.97284186       0.01357954
H       -2.24688186       0.77003874      -1.13102764
H       -0.02097841      -1.89965119       0.77915354
H       -0.58359871       0.71388329       1.98156737
12
Frame=10 idx=005628 GeodesicLength=0.3856230217680634 rxn_smarts="[C:1]1([H:7])([H:8])[C@@:2]2([H:9])[C@@:3]3([H:10])[O:4][C@:5]1([H:11])[C@@:6]23[H:12]>>[C:1]1([H:7])([H:8])[C:2]([H:9])=[C:6]([H:12])[C@:5]1([O+:4]=[C-:3][H:10])[H:11]"
C        1.12613939      -0.34115707      -0.46619028
C        0.62250278       0.98638255       0.05796761
C       -1.60917383       0.38756414      -0.32324750
O       -1.23389449      -0.87374280      -0.60085743
C       -0.08944710      -0.93816394       0.27775294
C       -0.21913350       0.40395855       1.01582450
H        2.08270753      -0.67766673      -0.06366789
H        1.11451616      -0.49538251      -1.54787693
H        1.06929996       1.97048607       0.00849012
H       -2.26327804       0.77070568      -1.12165376
H       -0.02474418      -1.90140257       0.77588083
H       -0.57549470       0.70841864       1.98757779
12
Frame=11 idx=005628 GeodesicLength=0.42396590692206015 rxn_smarts="[C:1]1([H:7])([H:8])[C@@:2]2([H:9])[C@@:3]3([H:10])[O:4][C@:5]1([H:11])[C@@:6]23[H:12]>>[C:1]1([H:7])([H:8])[C:2]([H:9])=[C:6]([H:12])[C@:5]1([O+:4]=[C-:3][H:10])[H:11]"
C        1.12875674      -0.34302676      -0.46369223
C        0.61221762       0.98573294       0.04792163
C       -1.59245207       0.40038686      -0.33661599
O       -1.23540398      -0.87047951      -0.60300082
C       -0.08983795      -0.93903048       0.27551486
C       -0.21843666       0.40040583       1.01803401
H        2.08458256      -0.67123546      -0.05299373
H        1.12533757      -0.50210772      -1.54450397
H        1.06413197       1.96796016       0.00336373
H       -2.28189819       0.77085636      -1.10912317
H       -0.02892536      -1.90288833       0.77247866
H       -0.56807226       0.70342611       1.99261702
12
Frame=12 idx=005628 GeodesicLength=0.4622735191593436 rxn_smarts="[C:1]1([H:7])([H:8])[C@@:2]2([H:9])[C@@:3]3([H:10])[O:4][C@:5]1([H:11])[C@@:6]23[H:12]>>[C:1]1([H:7])([H:8])[C:2]([H:9])=[C:6]([H:12])[C@:5]1([O+:4]=[C-:3][H:10])[H:11]"
C        1.13169615      -0.34498278      -0.46100916
C        0.60256573       0.98491833       0.03799731
C       -1.57550802       0.41284722      -0.35104232
O       -1.23651328      -0.86716469      -0.60600061
C       -0.09026154      -0.93978051       0.27298243
C       -0.21818495       0.39717573       1.01950849
H        2.08645813      -0.66511136      -0.04188855
H        1.13685664      -0.50875392      -1.54088674
H        1.05936021       1.96531748      -0.00189995
H       -2.30170268       0.77082817      -1.09350285
H       -0.03341614      -1.90415064       0.76898865
H       -0.56135025       0.69885696       1.99675329
12
Frame=13 idx=005628 GeodesicLength=0.5005503380855821 rxn_smarts="[C:1]1([H:7])([H:8])[C@@:2]2([H:9])[C@@:3]3([H:10])[O:4][C@:5]1([H:11])[C@@:6]23[H:12]>>[C:1]1([H:7])([H:8])[C:2]([H:9])=[C:6]([H:12])[C@:5]1([O+:4]=[C-:3][H:10])[H:11]"
C        1.13493637      -0.34701431      -0.45814300
C        0.59348456       0.98395835       0.02809222
C       -1.55836029       0.42491007      -0.36660653
O       -1.23723023      -0.86383996      -0.60989496
C       -0.09074343      -0.94042531       0.27013722
C       -0.21843317       0.39425095       1.02020954
H        2.08830626      -0.65923251      -0.03031287
H        1.14909020      -0.51535384      -1.53700705
H        1.05494570       1.96257949      -0.00736282
H       -2.32233338       0.77066571      -1.07444789
H       -0.03824718      -1.90519700       0.76540192
H       -0.55541541       0.69469835       1.99993421
12
Frame=14 idx=005628 GeodesicLength=0.5389288491627109 rxn_smarts="[C:1]1([H:7])([H:8])[C@@:2]2([H:9])[C@@:3]3([H:10])[O:4][C@:5]1([H:11])[C@@:6]23[H:12]>>[C:1]1([H:7])([H:8])[C:2]([H:9])=[C:6]([H:12])[C@:5]1([O+:4]=[C-:3][H:10])[H:11]"
C        1.13900764      -0.34928429      -0.45481392
C        0.58556237       0.98287987       0.01802531
C       -1.54030940       0.43709770      -0.38468531
O       -1.23706978      -0.86009280      -0.61582170
C       -0.09133192      -0.94079167       0.26653823
C       -0.21929722       0.39187934       1.01957566
H        2.09032003      -0.65394857      -0.01737476
H        1.16316761      -0.52217379      -1.53254784
H        1.05177799       1.95966204      -0.01294107
H       -2.34692198       0.76928650      -1.04867739
H       -0.04401457      -1.90585595       0.76133874
H       -0.55089077       0.69134163       2.00138404
12
Frame=15 idx=005628 GeodesicLength=0.577119115962976 rxn_smarts="[C:1]1([H:7])([H:8])[C@@:2]2([H:9])[C@@:3]3([H:10])[O:4][C@:5]1([H:11])[C@@:6]23[H:12]>>[C:1]1([H:7])([H:8])[C:2]([H:9])=[C:6]([H:12])[C@:5]1([O+:4]=[C-:3][H:10])[H:11]"
C        1.14204834      -0.35125549      -0.45194381
C        0.57649027       0.98164353       0.00800371
C       -1.52378315       0.44744438      -0.40104170
O       -1.23759745      -0.85755441      -0.62028328
C       -0.09191812      -0.94152626       0.26351055
C       -0.22060839       0.38921191       1.01930543
H        2.09170714      -0.64784324      -0.00581444
H        1.17542125      -0.52858969      -1.52846668
H        1.04655169       1.95691929      -0.01913250
H       -2.36344228       0.77069759      -1.02549690
H       -0.04875493      -1.90673257       0.75792440
H       -0.54611437       0.68758495       2.00343524
12
Frame=16 idx=005628 GeodesicLength=0.6152344042130615 rxn_smarts="[C:1]1([H:7])([H:8])[C@@:2]2([H:9])[C@@:3]3([H:10])[O:4][C@:5]1([H:11])[C@@:6]23[H:12]>>[C:1]1([H:7])([H:8])[C:2]([H:9])=[C:6]([H:12])[C@:5]1([O+:4]=[C-:3][H:10])[H:11]"
C        1.14455330      -0.35302443      -0.44929638
C        0.56693943       0.98029651      -0.00194982
C       -1.50822959       0.45656923      -0.41653111
O       -1.23853060      -0.85573307      -0.62404113
C       -0.09253393      -0.94247045       0.26079017
C       -0.22226423       0.38642561       1.01911602
H        2.09274523      -0.64129173       0.00501676
H        1.18671749      -0.53465177      -1.52455527
H        1.04030888       1.95430549      -0.02568753
H       -2.37550349       0.77369158      -1.00348494
H       -0.05298828      -1.90774203       0.75491991
H       -0.54121421       0.68362508       2.00570329
