19
Frame=0 idx=010053 GeodesicLength=0.0 rxn_smarts="[C:1]([C:2]([C@@:3]1([H:13])[C:4]([H:14])([H:15])[C@:5]1([C:6]([O:7][H:19])([H:17])[H:18])[H:16])([H:11])[H:12])([H:8])([H:9])[H:10]>>[C:1]([C:2]([C@@:3]1([H:13])[C:4]([H:14])([H:15])[C@:5]1([O:7][H:19])[H:16])([H:11])[H:12])([H:8])([H:9])[H:10].[C:6]([H:17])[H:18]"
C       -2.25579901      -0.16956714       0.68108777
C       -1.20346048       0.81802334       0.19462087
C       -0.37250294       0.25097545      -0.91467103
C        0.97035264       0.85386575      -1.27637862
C        0.91165536      -0.54473141      -0.79601564
C        1.27969409      -0.54231586       1.25326216
O        2.11790889      -1.25192802       0.12974988
H       -2.94160096      -0.45157820      -0.12209034
H       -2.85060653       0.25444891       1.49204861
H       -1.77988250      -1.07922721       1.05248496
H       -0.52649735       1.07687197       1.01071691
H       -1.67811104       1.74049374      -0.15500349
H       -0.95682918      -0.12819238      -1.75166838
H        1.24006012       1.04285210      -2.30890130
H        1.31412356       1.60211641      -0.57527592
H        0.97477862      -1.30916652      -1.56755078
H        2.01616237      -0.07108092       1.91497595
H        0.85878097      -1.39684362       1.78769608
H        2.88177329      -0.69501637      -0.04908771
19
Frame=1 idx=010053 GeodesicLength=0.03400054795826936 rxn_smarts="[C:1]([C:2]([C@@:3]1([H:13])[C:4]([H:14])([H:15])[C@:5]1([C:6]([O:7][H:19])([H:17])[H:18])[H:16])([H:11])[H:12])([H:8])([H:9])[H:10]>>[C:1]([C:2]([C@@:3]1([H:13])[C:4]([H:14])([H:15])[C@:5]1([O:7][H:19])[H:16])([H:11])[H:12])([H:8])([H:9])[H:10].[C:6]([H:17])[H:18]"
C       -2.25463102      -0.17430242       0.67980788
C       -1.20664164       0.81827790       0.19394491
C       -0.37303801       0.25640848      -0.91684841
C        0.97276832       0.85593360      -1.26953635
C        0.90627797      -0.54429267      -0.79190169
C        1.28246824      -0.54106728       1.24785358
O        2.11118309      -1.26853238       0.13548887
H       -2.93894717      -0.45874758      -0.12377661
H       -2.85140962       0.24648520       1.49099092
H       -1.77518479      -1.08244661       1.05047448
H       -0.53234804       1.08197500       1.01071539
H       -1.68567690       1.73876088      -0.15480601
H       -0.95649877      -0.11303890      -1.75865114
H        1.24662832       1.04661851      -2.30053718
H        1.31889495       1.59914914      -0.56405439
H        0.96803686      -1.30571770      -1.56692511
H        2.01754116      -0.04234210       1.89021880
H        0.86766171      -1.38684586       1.80050412
H        2.88291535      -0.72627521      -0.05296206
19
Frame=2 idx=010053 GeodesicLength=0.06794521378078855 rxn_smarts="[C:1]([C:2]([C@@:3]1([H:13])[C:4]([H:14])([H:15])[C@:5]1([C:6]([O:7][H:19])([H:17])[H:18])[H:16])([H:11])[H:12])([H:8])([H:9])[H:10]>>[C:1]([C:2]([C@@:3]1([H:13])[C:4]([H:14])([H:15])[C@:5]1([O:7][H:19])[H:16])([H:11])[H:12])([H:8])([H:9])[H:10].[C:6]([H:17])[H:18]"
C       -2.25341916      -0.17896596       0.67855658
C       -1.20977935       0.81853033       0.19326098
C       -0.37350561       0.26175892      -0.91894668
C        0.97507535       0.85803802      -1.26280461
C        0.90104586      -0.54371875      -0.78774447
C        1.28536186      -0.53976916       1.24254727
O        2.10449433      -1.28474804       0.14145348
H       -2.93623101      -0.46585254      -0.12543124
H       -2.85214648       0.23864111       1.48993303
H       -1.77048616      -1.08557972       1.04853826
H       -0.53818825       1.08709559       1.01068492
H       -1.69318731       1.73697393      -0.15469987
H       -0.95603309      -0.09814629      -1.76537906
H        1.25297963       1.05029950      -2.29230858
H        1.32344013       1.59632955      -0.55307816
H        0.96162603      -1.30222602      -1.56611193
H        2.01888363      -0.01498299       1.86514399
H        0.87641522      -1.37652622       1.81286786
H        2.88365438      -0.75715127      -0.05648178
19
Frame=3 idx=010053 GeodesicLength=0.10184848214517725 rxn_smarts="[C:1]([C:2]([C@@:3]1([H:13])[C:4]([H:14])([H:15])[C@:5]1([C:6]([O:7][H:19])([H:17])[H:18])[H:16])([H:11])[H:12])([H:8])([H:9])[H:10]>>[C:1]([C:2]([C@@:3]1([H:13])[C:4]([H:14])([H:15])[C@:5]1([O:7][H:19])[H:16])([H:11])[H:12])([H:8])([H:9])[H:10].[C:6]([H:17])[H:18]"
C       -2.25216612      -0.18358344       0.67732998
C       -1.21288433       0.81878289       0.19256861
C       -0.37391238       0.26705033      -0.92098139
C        0.97729011       0.86019240      -1.25617900
C        0.89593801      -0.54301073      -0.78355091
C        1.28838322      -0.53839240       1.23734442
O        2.09779561      -1.30062931       0.14764452
H       -2.93345189      -0.47292885      -0.12706599
H       -2.85282856       0.23087279       1.48887879
H       -1.76577645      -1.08865021       1.04666547
H       -0.54402773       1.09224088       1.01063115
H       -1.70066158       1.73513436      -0.15467906
H       -0.95544277      -0.08346296      -1.77189395
H        1.25915624       1.05391700      -2.28421248
H        1.32778449       1.59366769      -0.54232839
H        0.95550454      -1.29868865      -1.56513423
H        2.02026537       0.01107851       1.83978911
H        0.88504981      -1.36584829       1.82485860
H        2.88398440      -0.78774202      -0.05968526
19
Frame=4 idx=010053 GeodesicLength=0.13574696498473232 rxn_smarts="[C:1]([C:2]([C@@:3]1([H:13])[C:4]([H:14])([H:15])[C@:5]1([C:6]([O:7][H:19])([H:17])[H:18])[H:16])([H:11])[H:12])([H:8])([H:9])[H:10]>>[C:1]([C:2]([C@@:3]1([H:13])[C:4]([H:14])([H:15])[C@:5]1([O:7][H:19])[H:16])([H:11])[H:12])([H:8])([H:9])[H:10].[C:6]([H:17])[H:18]"
C       -2.25086320      -0.18817500       0.67611797
C       -1.21597030       0.81903969       0.19186717
C       -0.37426637       0.27231032      -0.92295934
C        0.97941929       0.86240609      -1.24964382
C        0.89093322      -0.54216631      -0.77932084
C        1.29154371      -0.53690571       1.23223255
O        2.09103700      -1.31622772       0.15406399
H       -2.93057779      -0.48002955      -0.12869618
H       -2.85347573       0.22314757       1.48780218
H       -1.76102280      -1.09166034       1.04485933
H       -0.54988242       1.09741855       1.01055082
H       -1.70813165       1.73323956      -0.15473509
H       -0.95473671      -0.06893021      -1.77821968
H        1.26518945       1.05748520      -2.27622391
H        1.33193857       1.59116635      -0.53178172
H        0.94963072      -1.29509886      -1.56399987
H        2.02175913       0.03589578       1.81416274
H        0.89358390      -1.35475892       1.83652412
H        2.88389199      -0.81815650      -0.06260042
19
Frame=5 idx=010053 GeodesicLength=0.16967169270572857 rxn_smarts="[C:1]([C:2]([C@@:3]1([H:13])[C:4]([H:14])([H:15])[C@:5]1([C:6]([O:7][H:19])([H:17])[H:18])[H:16])([H:11])[H:12])([H:8])([H:9])[H:10]>>[C:1]([C:2]([C@@:3]1([H:13])[C:4]([H:14])([H:15])[C@:5]1([O:7][H:19])[H:16])([H:11])[H:12])([H:8])([H:9])[H:10].[C:6]([H:17])[H:18]"
C       -2.24950141      -0.19276501       0.67491108
C       -1.21905085       0.81930552       0.19115540
C       -0.37457381       0.27756983      -0.92489003
C        0.98147393       0.86468926      -1.24318843
C        0.88600930      -0.54118106      -0.77505488
C        1.29485289      -0.53527670       1.22720413
O        2.08416108      -1.33159227       0.16071914
H       -2.92758870      -0.48719521      -0.13033517
H       -2.85409342       0.21541659       1.48669586
H       -1.75619309      -1.09462497       1.04310289
H       -0.55576745       1.10263892       1.01044213
H       -1.71562989       1.73128598      -0.15486177
H       -0.95392149      -0.05448711      -1.78438309
H        1.27111723       1.06101540      -2.26832616
H        1.33591805       1.58882949      -0.52141867
H        0.94396012      -1.29145058      -1.56271657
H        2.02343665       0.05952891       1.78827371
H        0.90203860      -1.34320041       1.84792369
H        2.88335228      -0.84850657      -0.06525326
19
Frame=6 idx=010053 GeodesicLength=0.2036607166116558 rxn_smarts="[C:1]([C:2]([C@@:3]1([H:13])[C:4]([H:14])([H:15])[C@:5]1([C:6]([O:7][H:19])([H:17])[H:18])[H:16])([H:11])[H:12])([H:8])([H:9])[H:10]>>[C:1]([C:2]([C@@:3]1([H:13])[C:4]([H:14])([H:15])[C@:5]1([O:7][H:19])[H:16])([H:11])[H:12])([H:8])([H:9])[H:10].[C:6]([H:17])[H:18]"
C       -2.24806940      -0.19737679       0.67369713
C       -1.22213825       0.81958218       0.19043407
C       -0.37483911       0.28285728      -0.92677662
C        0.98346469       0.86705047      -1.23679355
C        0.88114686      -0.54005166      -0.77074859
C        1.29832319      -0.53348281       1.22224644
O        2.07710191      -1.34678484       0.16761535
H       -2.92445264      -0.49446955      -0.13199979
H       -2.85469016       0.20763727       1.48553903
H       -1.75125402      -1.09755570       1.04138162
H       -0.56170009       1.10790229       1.01030552
H       -1.72318428       1.72926826      -0.15505070
H       -0.95300005      -0.04006937      -1.79040489
H        1.27697211       1.06452371      -2.26049139
H        1.33973540       1.58665922      -0.51121271
H        0.93845288      -1.28773293      -1.56128788
H        2.02535919       0.08208133       1.76211447
H        0.91044198      -1.33111600       1.85911991
H        2.88232979      -0.87892237      -0.06768742
19
Frame=7 idx=010053 GeodesicLength=0.23767987798218004 rxn_smarts="[C:1]([C:2]([C@@:3]1([H:13])[C:4]([H:14])([H:15])[C@:5]1([C:6]([O:7][H:19])([H:17])[H:18])[H:16])([H:11])[H:12])([H:8])([H:9])[H:10]>>[C:1]([C:2]([C@@:3]1([H:13])[C:4]([H:14])([H:15])[C@:5]1([O:7][H:19])[H:16])([H:11])[H:12])([H:8])([H:9])[H:10].[C:6]([H:17])[H:18]"
C       -2.24656274      -0.20199033       0.67249464
C       -1.22522061       0.81986842       0.18969094
C       -0.37506418       0.28814787      -0.92863231
C        0.98537692       0.86949200      -1.23048945
C        0.87636246      -0.53877715      -0.76642064
C        1.30192181      -0.53155099       1.21734898
O        2.06991194      -1.36173967       0.17475264
H       -2.92120072      -0.50180126      -0.13365482
H       -2.85522164       0.19983974       1.48437661
H       -1.74621536      -1.10044514       1.03970197
H       -0.56766206       1.11321739       1.01012218
H       -1.73077682       1.72718402      -0.15532506
H       -0.95198175      -0.02574304      -1.79628137
H        1.28271834       1.06801132      -2.25275708
H        1.34337696       1.58466312      -0.50119443
H        0.93314194      -1.28395512      -1.55972607
H        2.02748716       0.10344830       1.73580551
H        0.91876324      -1.31859168       1.87002541
H        2.88084510      -0.90927779      -0.06983766
19
Frame=8 idx=010053 GeodesicLength=0.2717539023488598 rxn_smarts="[C:1]([C:2]([C@@:3]1([H:13])[C:4]([H:14])([H:15])[C@:5]1([C:6]([O:7][H:19])([H:17])[H:18])[H:16])([H:11])[H:12])([H:8])([H:9])[H:10]>>[C:1]([C:2]([C@@:3]1([H:13])[C:4]([H:14])([H:15])[C@:5]1([O:7][H:19])[H:16])([H:11])[H:12])([H:8])([H:9])[H:10].[C:6]([H:17])[H:18]"
C       -2.24497292      -0.20663039       0.67129482
C       -1.22831144       0.82016609       0.18892567
C       -0.37525336       0.29347032      -0.93046394
C        0.98722251       0.87202671      -1.22426256
C        0.87163909      -0.53735051      -0.76207273
C        1.30565739      -0.52945357       1.21250216
O        2.06252286      -1.37651144       0.18214010
H       -2.91780141      -0.50924859      -0.13531508
H       -2.85570443       0.19198133       1.48318970
H       -1.74104461      -1.10329881       1.03806712
H       -0.57367044       1.11859157       1.00989134
H       -1.73843811       1.72502593      -0.15567811
H       -0.95086934      -0.01144669      -1.80203655
H        1.28838834       1.07149801      -2.24510392
H        1.34685849       1.58284774      -0.49134138
H        0.92799578      -1.28010293      -1.55804334
H        2.02990680       0.12369980       1.70933914
H        0.92701686      -1.30556312       1.88070037
H        2.87885794      -0.93970144      -0.07173282
19
Frame=9 idx=010053 GeodesicLength=0.30591452028613375 rxn_smarts="[C:1]([C:2]([C@@:3]1([H:13])[C:4]([H:14])([H:15])[C@:5]1([C:6]([O:7][H:19])([H:17])[H:18])[H:16])([H:11])[H:12])([H:8])([H:9])[H:10]>>[C:1]([C:2]([C@@:3]1([H:13])[C:4]([H:14])([H:15])[C@:5]1([O:7][H:19])[H:16])([H:11])[H:12])([H:8])([H:9])[H:10].[C:6]([H:17])[H:18]"
C       -2.24328811      -0.21131912       0.67008805
C       -1.23142156       0.82047751       0.18813705
C       -0.37541074       0.29884991      -0.93227770
C        0.98900735       0.87466665      -1.21810235
C        0.86696144      -0.53576441      -0.75770475
C        1.30954148      -0.52716169       1.20769592
O        2.05487288      -1.39113765       0.18979398
H       -2.91422566      -0.51685425      -0.13699534
H       -2.85614412       0.18402222       1.48196288
H       -1.73570727      -1.10612424       1.03647124
H       -0.57973943       1.12403088       1.00961198
H       -1.74619712       1.72278697      -0.15610563
H       -0.94966504       0.00287107      -1.80768971
H        1.29400506       1.07499965      -2.23751525
H        1.35018862       1.58122102      -0.48163653
H        0.92298537      -1.27616629      -1.55624526
H        2.03268799       0.14285957       1.68270154
H        0.93522963      -1.29195884       1.89119394
H        2.87631925      -0.97029895      -0.07338409
19
Frame=10 idx=010053 GeodesicLength=0.3402085210359437 rxn_smarts="[C:1]([C:2]([C@@:3]1([H:13])[C:4]([H:14])([H:15])[C@:5]1([C:6]([O:7][H:19])([H:17])[H:18])[H:16])([H:11])[H:12])([H:8])([H:9])[H:10]>>[C:1]([C:2]([C@@:3]1([H:13])[C:4]([H:14])([H:15])[C@:5]1([O:7][H:19])[H:16])([H:11])[H:12])([H:8])([H:9])[H:10].[C:6]([H:17])[H:18]"
C       -2.24149895      -0.21608452       0.66886315
C       -1.23456076       0.82080427       0.18732718
C       -0.37554067       0.30431519      -0.93408093
C        0.99074700       0.87743254      -1.21199546
C        0.86231430      -0.53401159      -0.75330994
C        1.31358061      -0.52466274       1.20293256
O        2.04688054      -1.40567761       0.19774231
H       -2.91044206      -0.52466778      -0.13871790
H       -2.85655036       0.17591469       1.48068044
H       -1.73017264      -1.10893744       1.03490602
H       -0.58588146       1.12953530       1.00929069
H       -1.75407663       1.72046616      -0.15659685
H       -0.94837525       0.01726505      -1.81326851
H        1.29960530       1.07854421      -2.22997845
H        1.35338567       1.57980447      -0.47205550
H        0.91807708      -1.27213914      -1.55433472
H        2.03589460       0.16100306       1.65582921
H        0.94345203      -1.27770936       1.90157396
H        2.87316166      -1.00119474      -0.07480723
19
Frame=11 idx=010053 GeodesicLength=0.37463078507407743 rxn_smarts="[C:1]([C:2]([C@@:3]1([H:13])[C:4]([H:14])([H:15])[C@:5]1([C:6]([O:7][H:19])([H:17])[H:18])[H:16])([H:11])[H:12])([H:8])([H:9])[H:10]>>[C:1]([C:2]([C@@:3]1([H:13])[C:4]([H:14])([H:15])[C@:5]1([O:7][H:19])[H:16])([H:11])[H:12])([H:8])([H:9])[H:10].[C:6]([H:17])[H:18]"
C       -2.23957484      -0.22093266       0.66761885
C       -1.23772608       0.82114612       0.18649967
C       -0.37563188       0.30988688      -0.93586488
C        0.99244077       0.88029735      -1.20592898
C        0.85768936      -0.53209080      -0.74890739
C        1.31779428      -0.52196484       1.19817093
O        2.03849466      -1.42017861       0.20593899
H       -2.90641044      -0.53270686      -0.14047417
H       -2.85689230       0.16763144       1.47934390
H       -1.72438791      -1.11172830       1.03335612
H       -0.59209675       1.13510307       1.00892160
H       -1.76209263       1.71804278      -0.15713554
H       -0.94697729       0.03180093      -1.81875615
H        1.30519351       1.08209898      -2.22245348
H        1.35643708       1.57855466      -0.46259630
H        0.91325249      -1.26798912      -1.55233521
H        2.03945075       0.17838277       1.62882575
H        0.95165672      -1.26284431       1.91181081
H        2.86938049      -1.03250949      -0.07603451
19
Frame=12 idx=010053 GeodesicLength=0.40917659313234733 rxn_smarts="[C:1]([C:2]([C@@:3]1([H:13])[C:4]([H:14])([H:15])[C@:5]1([C:6]([O:7][H:19])([H:17])[H:18])[H:16])([H:11])[H:12])([H:8])([H:9])[H:10]>>[C:1]([C:2]([C@@:3]1([H:13])[C:4]([H:14])([H:15])[C@:5]1([O:7][H:19])[H:16])([H:11])[H:12])([H:8])([H:9])[H:10].[C:6]([H:17])[H:18]"
C       -2.23753818      -0.22585934       0.66635783
C       -1.24092461       0.82150191       0.18564203
C       -0.37569918       0.31554405      -0.93764508
C        0.99408189       0.88330117      -1.19992167
C        0.85309872      -0.52999292      -0.74448950
C        1.32216049      -0.51906178       1.19343090
O        2.02974017      -1.43457228       0.21444430
H       -2.90215963      -0.54096269      -0.14226633
H       -2.85718417       0.15919458       1.47795799
H       -1.71839085      -1.11450086       1.03183837
H       -0.59838970       1.14073755       1.00849852
H       -1.77023736       1.71552600      -0.15775082
H       -0.94549901       0.04640528      -1.82417104
H        1.31075067       1.08571570      -2.21498548
H        1.35934811       1.57752581      -0.45326069
H        0.90854329      -1.26373694      -1.55023578
H        2.04349630       0.19471178       1.60165420
H        0.95988047      -1.24733950       1.92190381
H        2.86492258      -1.06413753      -0.07700157
19
Frame=13 idx=010053 GeodesicLength=0.44381561793351 rxn_smarts="[C:1]([C:2]([C@@:3]1([H:13])[C:4]([H:14])([H:15])[C@:5]1([C:6]([O:7][H:19])([H:17])[H:18])[H:16])([H:11])[H:12])([H:8])([H:9])[H:10]>>[C:1]([C:2]([C@@:3]1([H:13])[C:4]([H:14])([H:15])[C@:5]1([O:7][H:19])[H:16])([H:11])[H:12])([H:8])([H:9])[H:10].[C:6]([H:17])[H:18]"
C       -2.23539398      -0.23084346       0.66508688
C       -1.24414646       0.82186510       0.18475341
C       -0.37574251       0.32126281      -0.93941939
C        0.99565703       0.88643247      -1.19398330
C        0.84855430      -0.52772620      -0.74007132
C        1.32667021      -0.51598974       1.18869071
O        2.02066168      -1.44881784       0.22323934
H       -2.89770658      -0.54939460      -0.14408013
H       -2.85741653       0.15064229       1.47652987
H       -1.71220376      -1.11724041       1.03035901
H       -0.60474767       1.14642243       1.00801781
H       -1.77848468       1.71291441      -0.15844216
H       -0.94394444       0.06103940      -1.82949717
H        1.31624235       1.08938666      -2.20758338
H        1.36210796       1.57669986      -0.44405893
H        0.90397724      -1.25938649      -1.54805014
H        2.04798401       0.21000715       1.57440870
H        0.96812348      -1.23127794       1.93178704
H        2.85980834      -1.09599588      -0.07768686
19
Frame=14 idx=010053 GeodesicLength=0.4785287138610316 rxn_smarts="[C:1]([C:2]([C@@:3]1([H:13])[C:4]([H:14])([H:15])[C@:5]1([C:6]([O:7][H:19])([H:17])[H:18])[H:16])([H:11])[H:12])([H:8])([H:9])[H:10]>>[C:1]([C:2]([C@@:3]1([H:13])[C:4]([H:14])([H:15])[C@:5]1([O:7][H:19])[H:16])([H:11])[H:12])([H:8])([H:9])[H:10].[C:6]([H:17])[H:18]"
C       -2.23315101      -0.23586680       0.66381236
C       -1.24738194       0.82222913       0.18383447
C       -0.37576199       0.32701900      -0.94118503
C        0.99715946       0.88968634      -1.18812031
C        0.84406971      -0.52529918      -0.73565906
C        1.33131423      -0.51278789       1.18393960
O        2.01130484      -1.46288150       0.23231283
H       -2.89307228      -0.55796305      -0.14590434
H       -2.85758393       0.14200928       1.47506757
H       -1.70585505      -1.11993847       1.02892337
H       -0.61115784       1.15214110       1.00747961
H       -1.78680647       1.71021022      -0.15920918
H       -0.94232139       0.07566067      -1.83472317
H        1.32164289       1.09311374      -2.20025818
H        1.36471525       1.57606911      -0.43499512
H        0.89958064      -1.25494617      -1.54578438
H        2.05286170       0.22429215       1.54713774
H        0.97638583      -1.21474248       1.94140891
H        2.85405735      -1.12800520      -0.07807770
19
Frame=15 idx=010053 GeodesicLength=0.5132879679185758 rxn_smarts="[C:1]([C:2]([C@@:3]1([H:13])[C:4]([H:14])([H:15])[C@:5]1([C:6]([O:7][H:19])([H:17])[H:18])[H:16])([H:11])[H:12])([H:8])([H:9])[H:10]>>[C:1]([C:2]([C@@:3]1([H:13])[C:4]([H:14])([H:15])[C@:5]1([O:7][H:19])[H:16])([H:11])[H:12])([H:8])([H:9])[H:10].[C:6]([H:17])[H:18]"
C       -2.23081889      -0.24091217       0.66254015
C       -1.25062244       0.82258800       0.18288536
C       -0.37575849       0.33279016      -0.94294077
C        0.99858216       0.89305580      -1.18233958
C        0.83965517      -0.52272146      -0.73126158
C        1.33608269      -0.50949111       1.17916628
O        2.00171450      -1.47673050       0.24165026
H       -2.88827838      -0.56663145      -0.14772857
H       -2.85768320       0.13332892       1.47357847
H       -1.69937306      -1.12258717       1.02753702
H       -0.61760869       1.15787822       1.00688401
H       -1.79517628       1.70741588      -0.16005164
H       -0.94063760       0.09023149      -1.83984019
H        1.32692837       1.09689721      -2.19302020
H        1.36716855       1.57562096      -0.42607333
H        0.89537558      -1.25042331      -1.54344752
H        2.05808918       0.23758950       1.51990116
H        0.98466789      -1.19781165       1.95072318
H        2.84769293      -1.16008730      -0.07816250
19
Frame=16 idx=010053 GeodesicLength=0.5480678672839563 rxn_smarts="[C:1]([C:2]([C@@:3]1([H:13])[C:4]([H:14])([H:15])[C@:5]1([C:6]([O:7][H:19])([H:17])[H:18])[H:16])([H:11])[H:12])([H:8])([H:9])[H:10]>>[C:1]([C:2]([C@@:3]1([H:13])[C:4]([H:14])([H:15])[C@:5]1([O:7][H:19])[H:16])([H:11])[H:12])([H:8])([H:9])[H:10].[C:6]([H:17])[H:18]"
C       -2.22841040      -0.24596311       0.66127595
C       -1.25385963       0.82293617       0.18190727
C       -0.37573320       0.33855362      -0.94468590
C        0.99991972       0.89653457      -1.17664712
C        0.83531999      -0.52000488      -0.72688634
C        1.34096809      -0.50613370       1.17436265
O        1.99194053      -1.49033464       0.25123746
H       -2.88335022      -0.57536329      -0.14954441
H       -2.85771519       0.12463455       1.47207024
H       -1.69279084      -1.12518152       1.02620561
H       -0.62408862       1.16361832       1.00623390
H       -1.80356648       1.70453685      -0.16096833
H       -0.93890157       0.10471477      -1.84484287
H        1.33207774       1.10073937      -2.18588037
H        1.36946952       1.57534412      -0.41729507
H        0.89138108      -1.24582919      -1.54104850
H        2.06362371       0.24992505       1.49274897
H        0.99297067      -1.18056342       1.95969041
H        2.84074510      -1.19216361      -0.07793355
