13
Frame=0 idx=011285 GeodesicLength=0.0 rxn_smarts="[C:1]([C:2]([O:3]/[C:4](=[N:5]/[H:13])[C:6]#[N:7])([H:11])[H:12])([H:8])([H:9])[H:10]>>[C:1]([C@@:2]1([H:11])[O:3][C:4]([N-:5][H:13])=[C+:6][N:7]1[H:12])([H:8])([H:9])[H:10]"
C       -1.51032847       0.70069643      -0.44285610
C       -0.80122711      -0.55597217      -0.04541991
O        0.31949032      -0.86169579      -0.71751156
C        1.52831555      -0.35978974      -0.28866685
N        2.49577795      -0.28565676      -1.07212038
C        1.45213819       0.01967955       1.18010783
N        0.33079663      -0.00637566       1.66989496
H       -1.93017815       0.60794731      -1.44908821
H       -2.33148498       0.91306078       0.24408073
H       -0.82696903       1.55183591      -0.44062448
H       -1.41161583      -1.44260674       0.12474315
H       -0.62361877      -0.32317299       1.79844174
H        3.30890376       0.04204992      -0.56098097
13
Frame=1 idx=011285 GeodesicLength=0.1338517364479525 rxn_smarts="[C:1]([C:2]([O:3]/[C:4](=[N:5]/[H:13])[C:6]#[N:7])([H:11])[H:12])([H:8])([H:9])[H:10]>>[C:1]([C@@:2]1([H:11])[O:3][C:4]([N-:5][H:13])=[C+:6][N:7]1[H:12])([H:8])([H:9])[H:10]"
C       -1.54849760       0.70040114      -0.42863824
C       -0.79364018      -0.53484801      -0.04518306
O        0.32543921      -0.79048291      -0.74623650
C        1.54146069      -0.33612488      -0.29630378
N        2.53681997      -0.36324490      -1.04829738
C        1.46225364       0.10244096       1.15220052
N        0.35784002       0.01643509       1.67065379
H       -1.96004978       0.60989871      -1.43828521
H       -2.38226726       0.86901884       0.25537625
H       -0.89985964       1.57789417      -0.40835123
H       -1.37876638      -1.44483783       0.08988527
H       -0.61552540      -0.34345352       1.77133775
H        3.35479272      -0.06309686      -0.52815817
13
Frame=2 idx=011285 GeodesicLength=0.26654471160296633 rxn_smarts="[C:1]([C:2]([O:3]/[C:4](=[N:5]/[H:13])[C:6]#[N:7])([H:11])[H:12])([H:8])([H:9])[H:10]>>[C:1]([C@@:2]1([H:11])[O:3][C:4]([N-:5][H:13])=[C+:6][N:7]1[H:12])([H:8])([H:9])[H:10]"
C       -1.58703828       0.69881985      -0.41368710
C       -0.78378757      -0.51205366      -0.04741384
O        0.33195124      -0.71124952      -0.77786697
C        1.55569836      -0.31446004      -0.30469580
N        2.57137469      -0.44575883      -1.01857713
C        1.47257343       0.18541051       1.12044112
N        0.38888484       0.04377043       1.66827511
H       -1.99146810       0.61229738      -1.42631975
H       -2.43112749       0.81969219       0.26787092
H       -0.97659664       1.60246602      -0.37384927
H       -1.34016309      -1.44499880       0.05144258
H       -0.60189090      -0.36170020       1.74188021
H        3.39158950      -0.17223532      -0.48750007
13
Frame=3 idx=011285 GeodesicLength=0.3983690129841823 rxn_smarts="[C:1]([C:2]([O:3]/[C:4](=[N:5]/[H:13])[C:6]#[N:7])([H:11])[H:12])([H:8])([H:9])[H:10]>>[C:1]([C@@:2]1([H:11])[O:3][C:4]([N-:5][H:13])=[C+:6][N:7]1[H:12])([H:8])([H:9])[H:10]"
C       -1.62498019       0.69560257      -0.39921025
C       -0.77161842      -0.48732526      -0.05121098
O        0.33937182      -0.62541810      -0.80947614
C        1.57020197      -0.29285937      -0.31375194
N        2.59647443      -0.52979918      -0.98491034
C        1.48694959       0.25673603       1.09024219
N        0.42274361       0.07707192       1.66384251
H       -2.02258090       0.61379390      -1.41470197
H       -2.47733830       0.76592322       0.27924536
H       -1.05581414       1.62450832      -0.33849786
H       -1.29644398      -1.44205118       0.01075899
H       -0.58451546      -0.37552761       1.71099293
H        3.41754998      -0.28065529      -0.44332249
13
Frame=4 idx=011285 GeodesicLength=0.5298930282974024 rxn_smarts="[C:1]([C:2]([O:3]/[C:4](=[N:5]/[H:13])[C:6]#[N:7])([H:11])[H:12])([H:8])([H:9])[H:10]>>[C:1]([C@@:2]1([H:11])[O:3][C:4]([N-:5][H:13])=[C+:6][N:7]1[H:12])([H:8])([H:9])[H:10]"
C       -1.66150451       0.69040046      -0.38591108
C       -0.75720605      -0.46067698      -0.05555523
O        0.34814370      -0.53430023      -0.83816023
C        1.58481063      -0.26941425      -0.32320711
N        2.60990691      -0.61163254      -0.95031829
C        1.50735602       0.31395443       1.06497701
N        0.45778909       0.11651617       1.65889244
H       -2.05106752       0.61383086      -1.40468729
H       -2.52071683       0.70767284       0.28740447
H       -1.13663429       1.64316941      -0.30245352
H       -1.24804591      -1.43557197      -0.03139694
H       -0.56525264      -0.38473839       1.67978035
H        3.43242140      -0.38920981      -0.39936459
13
Frame=5 idx=011285 GeodesicLength=0.6613380575070031 rxn_smarts="[C:1]([C:2]([O:3]/[C:4](=[N:5]/[H:13])[C:6]#[N:7])([H:11])[H:12])([H:8])([H:9])[H:10]>>[C:1]([C@@:2]1([H:11])[O:3][C:4]([N-:5][H:13])=[C+:6][N:7]1[H:12])([H:8])([H:9])[H:10]"
C       -1.69511611       0.68324163      -0.37447218
C       -0.74129510      -0.43300521      -0.05916513
O        0.35812028      -0.44123968      -0.86114674
C        1.59920761      -0.24615386      -0.33137707
N        2.61100214      -0.68724126      -0.91816691
C        1.53329171       0.35800295       1.04605892
N        0.49275155       0.16031767       1.65515880
H       -2.07436529       0.61246429      -1.39730494
H       -2.56008003       0.64661554       0.29072921
H       -1.21625204       1.65740168      -0.26656621
H       -1.19707676      -1.42557382      -0.07365646
H       -0.54629097      -0.38977585       1.64965051
H        3.43610302      -0.49505408      -0.35974182
13
Frame=6 idx=011285 GeodesicLength=0.7926052933730344 rxn_smarts="[C:1]([C:2]([O:3]/[C:4](=[N:5]/[H:13])[C:6]#[N:7])([H:11])[H:12])([H:8])([H:9])[H:10]>>[C:1]([C@@:2]1([H:11])[O:3][C:4]([N-:5][H:13])=[C+:6][N:7]1[H:12])([H:8])([H:9])[H:10]"
C       -1.72501923       0.67439522      -0.36493169
C       -0.72474308      -0.40540233      -0.06143138
O        0.36884234      -0.34949806      -0.87752455
C        1.61280551      -0.22355483      -0.33818550
N        2.60122565      -0.75583446      -0.88938631
C        1.56278728       0.39277269       1.03220392
N        0.52753309       0.20622768       1.65326762
H       -2.09155925       0.61042954      -1.39259117
H       -2.59475952       0.58449022       0.28894376
H       -1.29250518       1.66673046      -0.23126669
H       -1.14558477      -1.41259916      -0.11487171
H       -0.52861147      -0.39205000       1.62132867
H        3.42958863      -0.59610698      -0.32555497
13
Frame=7 idx=011285 GeodesicLength=0.9236233350494766 rxn_smarts="[C:1]([C:2]([O:3]/[C:4](=[N:5]/[H:13])[C:6]#[N:7])([H:11])[H:12])([H:8])([H:9])[H:10]>>[C:1]([C@@:2]1([H:11])[O:3][C:4]([N-:5][H:13])=[C+:6][N:7]1[H:12])([H:8])([H:9])[H:10]"
C       -1.75094932       0.66422626      -0.35715769
C       -0.70821928      -0.37869193      -0.06201245
O        0.37977821      -0.26140530      -0.88746157
C        1.62521174      -0.20181527      -0.34389879
N        2.58233213      -0.81780215      -0.86371597
C        1.59418021       0.42123789       1.02178792
N        0.56236004       0.25288648       1.65321002
H       -2.10251520       0.60850923      -1.39026855
H       -2.62462869       0.52253082       0.28219033
H       -1.36418036       1.67123276      -0.19671735
H       -1.09510499      -1.39729918      -0.15421030
H       -0.51259155      -0.39285605       1.59515356
H        3.41432707      -0.69075355      -0.29689916
13
Frame=8 idx=011285 GeodesicLength=1.0543907097084961 rxn_smarts="[C:1]([C:2]([O:3]/[C:4](=[N:5]/[H:13])[C:6]#[N:7])([H:11])[H:12])([H:8])([H:9])[H:10]>>[C:1]([C@@:2]1([H:11])[O:3][C:4]([N-:5][H:13])=[C+:6][N:7]1[H:12])([H:8])([H:9])[H:10]"
C       -1.77307370       0.65308758      -0.35093376
C       -0.69217442      -0.35340388      -0.06080694
O        0.39048797      -0.17832236      -0.89171744
C        1.63623171      -0.18122960      -0.34879560
N        2.55633397      -0.87300249      -0.84102571
C        1.62638263       0.44542873       1.01342844
N        0.59749248       0.29968882       1.65466784
H       -2.10783779       0.60719420      -1.38984767
H       -2.64987269       0.46166338       0.27099985
H       -1.43083428       1.67130276      -0.16319955
H       -1.04659376      -1.38031513      -0.19113679
H       -0.49833079      -0.39326724       1.57120259
H        3.39178866      -0.77882476      -0.27283525
13
Frame=9 idx=011285 GeodesicLength=1.1849686792709009 rxn_smarts="[C:1]([C:2]([O:3]/[C:4](=[N:5]/[H:13])[C:6]#[N:7])([H:11])[H:12])([H:8])([H:9])[H:10]>>[C:1]([C@@:2]1([H:11])[O:3][C:4]([N-:5][H:13])=[C+:6][N:7]1[H:12])([H:8])([H:9])[H:10]"
C       -1.79179568       0.64123135      -0.34599899
C       -0.67682423      -0.32977252      -0.05787861
O        0.40070896      -0.10064695      -0.89123066
C        1.64584689      -0.16191054      -0.35311696
N        2.52511107      -0.92151378      -0.82118368
C        1.65883075       0.46666834       1.00610445
N        0.63312726       0.34670303       1.65714956
H       -2.10837737       0.60675718      -1.39078294
H       -2.67088899       0.40233058       0.25598994
H       -1.49261905       1.66740500      -0.13078866
H       -1.00045707      -1.36212822      -0.22551237
H       -0.48573822      -0.39411965       1.54934653
H        3.36307570      -0.86100382      -0.25209761
13
Frame=10 idx=011285 GeodesicLength=1.3153340235292699 rxn_smarts="[C:1]([C:2]([O:3]/[C:4](=[N:5]/[H:13])[C:6]#[N:7])([H:11])[H:12])([H:8])([H:9])[H:10]>>[C:1]([C@@:2]1([H:11])[O:3][C:4]([N-:5][H:13])=[C+:6][N:7]1[H:12])([H:8])([H:9])[H:10]"
C       -1.80744925       0.62908873      -0.34216921
C       -0.66249155      -0.30803398      -0.05335716
O        0.41020308      -0.02901338      -0.88686014
C        1.65392677      -0.14451112      -0.35685740
N        2.49017473      -0.96455924      -0.80318228
C        1.69099674       0.48547932       0.99922363
N        0.66922345       0.39369455       1.66033005
H       -2.10501915       0.60745051      -1.39261801
H       -2.68799859       0.34549359       0.23792876
H       -1.54940317       1.66025752      -0.09992283
H       -0.95736537      -1.34322469      -0.25721481
H       -0.47505543      -0.39638493       1.52941430
H        3.33025775      -0.93573686      -0.23471488
13
Frame=11 idx=011285 GeodesicLength=1.4455536172994974 rxn_smarts="[C:1]([C:2]([O:3]/[C:4](=[N:5]/[H:13])[C:6]#[N:7])([H:11])[H:12])([H:8])([H:9])[H:10]>>[C:1]([C@@:2]1([H:11])[O:3][C:4]([N-:5][H:13])=[C+:6][N:7]1[H:12])([H:8])([H:9])[H:10]"
C       -1.82051118       0.61685862      -0.33918292
C       -0.64921313      -0.28816413      -0.04747534
O        0.41891526       0.03688596      -0.87947438
C        1.66053170      -0.12901226      -0.36019026
N        2.45260742      -1.00299433      -0.78634306
C        1.72271017       0.50251927       0.99223097
N        0.70586726       0.44109658       1.66368807
H       -2.09857892       0.60945384      -1.39490584
H       -2.70171443       0.29122690       0.21739571
H       -1.60169969       1.65039277      -0.07042349
H       -0.91731472      -1.32388579      -0.28651663
H       -0.46613470      -0.40078907       1.51106353
H        3.29453495      -1.00358837      -0.21986636
13
Frame=12 idx=011285 GeodesicLength=1.5756791664855883 rxn_smarts="[C:1]([C:2]([O:3]/[C:4](=[N:5]/[H:13])[C:6]#[N:7])([H:11])[H:12])([H:8])([H:9])[H:10]>>[C:1]([C@@:2]1([H:11])[O:3][C:4]([N-:5][H:13])=[C+:6][N:7]1[H:12])([H:8])([H:9])[H:10]"
C       -1.83139371       0.60469086      -0.33677763
C       -0.63696101      -0.27009625      -0.04049167
O        0.42683911       0.09747751      -0.86983675
C        1.66574388      -0.11528396      -0.36330811
N        2.41323195      -1.03750936      -0.77007507
C        1.75388312       0.51835900       0.98466953
N        0.74315397       0.48937922       1.66670161
H       -2.08977936       0.61290381      -1.39723186
H       -2.71246034       0.23950274       0.19493102
H       -1.65000914       1.63825849      -0.04205948
H       -0.88018344      -1.30430550      -0.31378745
H       -0.45879576      -0.40806201       1.49388864
H        3.25673074      -1.06531455      -0.20662278
13
Frame=13 idx=011285 GeodesicLength=1.7057727720626676 rxn_smarts="[C:1]([C:2]([O:3]/[C:4](=[N:5]/[H:13])[C:6]#[N:7])([H:11])[H:12])([H:8])([H:9])[H:10]>>[C:1]([C@@:2]1([H:11])[O:3][C:4]([N-:5][H:13])=[C+:6][N:7]1[H:12])([H:8])([H:9])[H:10]"
C       -1.84044761       0.59267511      -0.33474530
C       -0.62566559      -0.25373080      -0.03261168
O        0.43401784       0.15328335      -0.85850212
C        1.66966586      -0.10317473      -0.36629758
N        2.37264756      -1.06862177      -0.75398445
C        1.78453125       0.53329759       0.97630997
N        0.78115784       0.53914178       1.66888837
H       -2.07920535       0.61785116      -1.39927196
H       -2.72060238       0.19022059       0.17094695
H       -1.69480008       1.62418799      -0.01458907
H       -0.84577800      -1.28458217      -0.33941211
H       -0.45291027      -0.41882590       1.47749764
H        3.21738894      -1.12172220      -0.19422865
13
Frame=14 idx=011285 GeodesicLength=1.8358462850197144 rxn_smarts="[C:1]([C:2]([O:3]/[C:4](=[N:5]/[H:13])[C:6]#[N:7])([H:11])[H:12])([H:8])([H:9])[H:10]>>[C:1]([C@@:2]1([H:11])[O:3][C:4]([N-:5][H:13])=[C+:6][N:7]1[H:12])([H:8])([H:9])[H:10]"
C       -1.84793566       0.58096044      -0.33288017
C       -0.61532198      -0.23904218      -0.02401997
O        0.44047015       0.20452711      -0.84595947
C        1.67234324      -0.09270336      -0.36919229
N        2.33130095      -1.09702201      -0.73740482
C        1.81457583       0.54758540       0.96694293
N        0.81989949       0.59087068       1.66976828
H       -2.06730532       0.62446301      -1.40073011
H       -2.72647727       0.14346003       0.14579474
H       -1.73633872       1.60851896       0.01223841
H       -0.81410121      -1.26481954      -0.36372983
H       -0.44845541      -0.43383806       1.46145573
H        3.17734589      -1.17296048      -0.18228342
13
Frame=15 idx=011285 GeodesicLength=1.9659191339874718 rxn_smarts="[C:1]([C:2]([O:3]/[C:4](=[N:5]/[H:13])[C:6]#[N:7])([H:11])[H:12])([H:8])([H:9])[H:10]>>[C:1]([C@@:2]1([H:11])[O:3][C:4]([N-:5][H:13])=[C+:6][N:7]1[H:12])([H:8])([H:9])[H:10]"
C       -1.85408761       0.56965224      -0.33099416
C       -0.60589277      -0.22599460      -0.01486427
O        0.44624363       0.25149651      -0.83257850
C        1.67383925      -0.08384034      -0.37196584
N        2.28954659      -1.12319500      -0.71983082
C        1.84398339       0.56136437       0.95647948
N        0.85940730       0.64519215       1.66883046
H       -2.05445905       0.63285617      -1.40133957
H       -2.73038803       0.09924424       0.11976485
H       -1.77487906       1.59150680       0.03870094
H       -0.78509780      -1.24505771      -0.38710229
H       -0.44543612      -0.45383642       1.44528408
H        3.13722029      -1.21938842      -0.17038435
13
Frame=16 idx=011285 GeodesicLength=2.0959965885637932 rxn_smarts="[C:1]([C:2]([O:3]/[C:4](=[N:5]/[H:13])[C:6]#[N:7])([H:11])[H:12])([H:8])([H:9])[H:10]>>[C:1]([C@@:2]1([H:11])[O:3][C:4]([N-:5][H:13])=[C+:6][N:7]1[H:12])([H:8])([H:9])[H:10]"
C       -1.85908823       0.55885518      -0.32888912
C       -0.59733837      -0.21458478      -0.00527687
O        0.45138717       0.29441907      -0.81867259
C        1.67421227      -0.07656085      -0.37455630
N        2.24770299      -1.14752793      -0.70076802
C        1.87269273       0.57477328       0.94486948
N        0.89971660       0.70277849       1.66550463
H       -2.04100406       0.64314566      -1.40082646
H       -2.73260094       0.05764407       0.09315920
H       -1.81058582       1.57337574       0.06509150
H       -0.75874060      -1.22530248      -0.40992444
H       -0.44389953      -0.47966781       1.42839877
H        3.09754579      -1.26134764      -0.15810979
