17
Frame=0 idx=010893 GeodesicLength=0.0 rxn_smarts="[C:1]1([H:8])([H:9])[C@@:2]2([H:10])[C:3]([H:11])([H:12])[C@:4]3([H:13])[C:5]([H:14])([H:15])[C@@:6]2([H:16])[C@:7]13[H:17]>>[C:1]1([H:8])([H:9])[C@:2]2([H:10])[C:3]([H:11])([H:12])[C:4]([H:13])([H:15])[C@@:7]1([H:17])[C@:6]2([C:5][H:14])[H:16]"
C        1.42132157      -0.71249877      -0.17702138
C        0.88687279       0.69547797       0.15847214
C       -0.11382378       0.90912591      -0.97871717
C       -0.95278965      -0.35273707      -0.73234570
C       -1.51038547       0.31861030       1.30178903
C       -0.05015988      -0.00819728       1.22428451
C        0.00058545      -1.15013335       0.19149886
H        1.78874090      -0.88857794      -1.19091347
H        2.14586888      -1.07413505       0.55305470
H        1.55227317       1.51744085       0.41352297
H        0.37647490       0.88149389      -1.95428918
H       -0.69016675       1.83138017      -0.91774026
H       -1.40761153      -0.82942852      -1.60174908
H       -1.69087202       1.39052543       1.10500752
H       -1.89184239      -0.17611252      -0.02806190
H        0.41665458      -0.18178056       2.19440470
H       -0.28114082      -2.17045343       0.43880370
17
Frame=1 idx=010893 GeodesicLength=0.06021154759588067 rxn_smarts="[C:1]1([H:8])([H:9])[C@@:2]2([H:10])[C:3]([H:11])([H:12])[C@:4]3([H:13])[C:5]([H:14])([H:15])[C@@:6]2([H:16])[C@:7]13[H:17]>>[C:1]1([H:8])([H:9])[C@:2]2([H:10])[C:3]([H:11])([H:12])[C:4]([H:13])([H:15])[C@@:7]1([H:17])[C@:6]2([C:5][H:14])[H:16]"
C        1.42077514      -0.71287343      -0.17701648
C        0.88863363       0.69579339       0.15834662
C       -0.11294545       0.91080168      -0.97798314
C       -0.95444055      -0.34869408      -0.72921089
C       -1.50478317       0.32082067       1.29628661
C       -0.04671764      -0.00497638       1.22643532
C       -0.00029680      -1.14868158       0.19206036
H        1.78557945      -0.89091823      -1.19158368
H        2.14539350      -1.07498715       0.55280741
H        1.55569036       1.51661592       0.41318590
H        0.37657334       0.88560837      -1.95415176
H       -0.68736441       1.83413798      -0.91513842
H       -1.39722937      -0.82886500      -1.60400267
H       -1.69435606       1.39020412       1.09759508
H       -1.91456576      -0.19114382      -0.02274927
H        0.42218442      -0.18426578       2.19429485
H       -0.28213064      -2.16857669       0.44082415
17
Frame=2 idx=010893 GeodesicLength=0.11978751249972941 rxn_smarts="[C:1]1([H:8])([H:9])[C@@:2]2([H:10])[C:3]([H:11])([H:12])[C@:4]3([H:13])[C:5]([H:14])([H:15])[C@@:6]2([H:16])[C@:7]13[H:17]>>[C:1]1([H:8])([H:9])[C@:2]2([H:10])[C:3]([H:11])([H:12])[C:4]([H:13])([H:15])[C@@:7]1([H:17])[C@:6]2([C:5][H:14])[H:16]"
C        1.42026070      -0.71323197      -0.17702279
C        0.89048827       0.69613905       0.15823445
C       -0.11192131       0.91254711      -0.97729499
C       -0.95620341      -0.34452821      -0.72599711
C       -1.49939765       0.32290369       1.29030777
C       -0.04325419      -0.00166467       1.22858907
C       -0.00116613      -1.14716994       0.19259725
H        1.78234576      -0.89332973      -1.19225930
H        2.14491172      -1.07583614       0.55252608
H        1.55919950       1.51578579       0.41288529
H        0.37674484       0.88969990      -1.95404729
H       -0.68435826       1.83700032      -0.91253847
H       -1.38723479      -0.82797434      -1.60581172
H       -1.69803100       1.38961874       1.08992552
H       -1.93690748      -0.20660969      -0.01706169
H        0.42762448      -0.18669465       2.19416009
H       -0.28310105      -2.16665525       0.44280782
17
Frame=3 idx=010893 GeodesicLength=0.1786185755035947 rxn_smarts="[C:1]1([H:8])([H:9])[C@@:2]2([H:10])[C:3]([H:11])([H:12])[C@:4]3([H:13])[C:5]([H:14])([H:15])[C@@:6]2([H:16])[C@:7]13[H:17]>>[C:1]1([H:8])([H:9])[C@:2]2([H:10])[C:3]([H:11])([H:12])[C:4]([H:13])([H:15])[C@@:7]1([H:17])[C@:6]2([C:5][H:14])[H:16]"
C        1.41976800      -0.71359430      -0.17705978
C        0.89241574       0.69649267       0.15812249
C       -0.11079899       0.91433403      -0.97663079
C       -0.95810004      -0.34026001      -0.72270219
C       -1.49415116       0.32490851       1.28405601
C       -0.03978496       0.00170916       1.23073623
C       -0.00202247      -1.14561479       0.19312265
H        1.77903960      -0.89578484      -1.19292072
H        2.14442040      -1.07669609       0.55226151
H        1.56278163       1.51495767       0.41260266
H        0.37694561       0.89378844      -1.95396810
H       -0.68123585       1.83993381      -0.90990892
H       -1.37748406      -0.82685526      -1.60723114
H       -1.70181866       1.38886581       1.08210695
H       -1.95898618      -0.22239650      -0.01136689
H        0.43304798      -0.18909649       2.19398412
H       -0.28403659      -2.16469183       0.44479592
17
Frame=4 idx=010893 GeodesicLength=0.23717951452426128 rxn_smarts="[C:1]1([H:8])([H:9])[C@@:2]2([H:10])[C:3]([H:11])([H:12])[C@:4]3([H:13])[C:5]([H:14])([H:15])[C@@:6]2([H:16])[C@:7]13[H:17]>>[C:1]1([H:8])([H:9])[C@:2]2([H:10])[C:3]([H:11])([H:12])[C:4]([H:13])([H:15])[C@@:7]1([H:17])[C@:6]2([C:5][H:14])[H:16]"
C        1.41932010      -0.71392981      -0.17708289
C        0.89444256       0.69688085       0.15800682
C       -0.10950003       0.91619176      -0.97604820
C       -0.96000521      -0.33591750      -0.71942400
C       -1.48919394       0.32669494       1.27728431
C       -0.03632775       0.00517125       1.23286687
C       -0.00283372      -1.14401785       0.19360676
H        1.77577074      -0.89817119      -1.19356692
H        2.14392187      -1.07758151       0.55198338
H        1.56642913       1.51411895       0.41237653
H        0.37720487       0.89775887      -1.95396058
H       -0.67792091       1.84295024      -0.90731840
H       -1.36826896      -0.82543372      -1.60813229
H       -1.70569150       1.38787146       1.07413746
H       -1.98069721      -0.23845954      -0.00522987
H        0.43832326      -0.19144333       2.19378623
H       -0.28497330      -2.16268388       0.44671477
17
Frame=5 idx=010893 GeodesicLength=0.2949649970485804 rxn_smarts="[C:1]1([H:8])([H:9])[C@@:2]2([H:10])[C:3]([H:11])([H:12])[C@:4]3([H:13])[C:5]([H:14])([H:15])[C@@:6]2([H:16])[C@:7]13[H:17]>>[C:1]1([H:8])([H:9])[C@:2]2([H:10])[C:3]([H:11])([H:12])[C:4]([H:13])([H:15])[C@@:7]1([H:17])[C@:6]2([C:5][H:14])[H:16]"
C        1.41886462      -0.71426339      -0.17711001
C        0.89650292       0.69727981       0.15788695
C       -0.10809058       0.91808983      -0.97552172
C       -0.96196880      -0.33159226      -0.71614623
C       -1.48444051       0.32827346       1.27035499
C       -0.03289942       0.00868329       1.23499913
C       -0.00366396      -1.14240229       0.19407325
H        1.77247681      -0.90055750      -1.19421905
H        2.14341757      -1.07842322       0.55175210
H        1.57012433       1.51328227       0.41214635
H        0.37751231       0.90168974      -1.95399307
H       -0.67444295       1.84606982      -0.90473137
H       -1.35938865      -0.82384010      -1.60880922
H       -1.70965907       1.38674415       1.06601999
H       -2.00196387      -0.25463100       0.00117873
H        0.44351704      -0.19372801       2.19354262
H       -0.28589778      -2.16067460       0.44857656
17
Frame=6 idx=010893 GeodesicLength=0.35221051346024024 rxn_smarts="[C:1]1([H:8])([H:9])[C@@:2]2([H:10])[C:3]([H:11])([H:12])[C@:4]3([H:13])[C:5]([H:14])([H:15])[C@@:6]2([H:16])[C@:7]13[H:17]>>[C:1]1([H:8])([H:9])[C@:2]2([H:10])[C:3]([H:11])([H:12])[C:4]([H:13])([H:15])[C@@:7]1([H:17])[C@:6]2([C:5][H:14])[H:16]"
C        1.41842615      -0.71457318      -0.17712528
C        0.89859955       0.69770031       0.15777039
C       -0.10660200       0.92001144      -0.97503152
C       -0.96398108      -0.32721283      -0.71288958
C       -1.47989410       0.32969627       1.26311480
C       -0.02949682       0.01224695       1.23710147
C       -0.00446398      -1.14073672       0.19449719
H        1.76922391      -0.90293099      -1.19483970
H        2.14290132      -1.07926086       0.55155973
H        1.57385058       1.51245204       0.41192654
H        0.37784878       0.90553568      -1.95408825
H       -0.67082121       1.84922097      -0.90216801
H       -1.35086070      -0.82204720      -1.60909726
H       -1.71363560       1.38544959       1.05785408
H       -2.02289009      -0.27093950       0.00780590
H        0.44860454      -0.19599752       2.19325073
H       -0.28680927      -2.15861446       0.45035877
17
Frame=7 idx=010893 GeodesicLength=0.4090875793223787 rxn_smarts="[C:1]1([H:8])([H:9])[C@@:2]2([H:10])[C:3]([H:11])([H:12])[C@:4]3([H:13])[C:5]([H:14])([H:15])[C@@:6]2([H:16])[C@:7]13[H:17]>>[C:1]1([H:8])([H:9])[C@:2]2([H:10])[C:3]([H:11])([H:12])[C:4]([H:13])([H:15])[C@@:7]1([H:17])[C@:6]2([C:5][H:14])[H:16]"
C        1.41800188      -0.71487308      -0.17716566
C        0.90079318       0.69814604       0.15766111
C       -0.10492833       0.92204020      -0.97461450
C       -0.96600786      -0.32273862      -0.70965265
C       -1.47562146       0.33082640       1.25544400
C       -0.02613081       0.01591682       1.23921176
C       -0.00526252      -1.13902128       0.19487635
H        1.76593393      -0.90529614      -1.19543843
H        2.14238012      -1.08008346       0.55140140
H        1.57765175       1.51160178       0.41174923
H        0.37826468       0.90933592      -1.95425424
H       -0.66698880       1.85250217      -0.89961289
H       -1.34283120      -0.82001931      -1.60896563
H       -1.71772943       1.38395596       1.04945280
H       -2.04339630      -0.28756733       0.01489641
H        0.45361755      -0.19821240       2.19291583
H       -0.28774637      -2.15651369       0.45209511
17
Frame=8 idx=010893 GeodesicLength=0.4654205333493658 rxn_smarts="[C:1]1([H:8])([H:9])[C@@:2]2([H:10])[C:3]([H:11])([H:12])[C@:4]3([H:13])[C:5]([H:14])([H:15])[C@@:6]2([H:16])[C@:7]13[H:17]>>[C:1]1([H:8])([H:9])[C@:2]2([H:10])[C:3]([H:11])([H:12])[C:4]([H:13])([H:15])[C@@:7]1([H:17])[C@:6]2([C:5][H:14])[H:16]"
C        1.41759460      -0.71515977      -0.17719694
C        0.90302308       0.69860220       0.15756139
C       -0.10312359       0.92409336      -0.97427036
C       -0.96808249      -0.31823013      -0.70641715
C       -1.47149338       0.33181965       1.24749540
C       -0.02283138       0.01962692       1.24130446
C       -0.00603515      -1.13727639       0.19520938
H        1.76265243      -0.90765001      -1.19601434
H        2.14183976      -1.08086105       0.55127554
H        1.58143662       1.51076890       0.41160540
H        0.37874102       0.91307985      -1.95447305
H       -0.66298447       1.85584795      -0.89707847
H       -1.33521929      -0.81781820      -1.60844927
H       -1.72186926       1.38229877       1.04090016
H       -2.06350959      -0.30430733       0.02229387
H        0.45850860      -0.20043180       2.19253870
H       -0.28864751      -2.15440293       0.45371529
17
Frame=9 idx=010893 GeodesicLength=0.5213830895359977 rxn_smarts="[C:1]1([H:8])([H:9])[C@@:2]2([H:10])[C:3]([H:11])([H:12])[C@:4]3([H:13])[C:5]([H:14])([H:15])[C@@:6]2([H:16])[C@:7]13[H:17]>>[C:1]1([H:8])([H:9])[C@:2]2([H:10])[C:3]([H:11])([H:12])[C:4]([H:13])([H:15])[C@@:7]1([H:17])[C@:6]2([C:5][H:14])[H:16]"
C        1.41718006      -0.71543694      -0.17723080
C        0.90520596       0.69907140       0.15743570
C       -0.10128812       0.92620158      -0.97394607
C       -0.97002678      -0.31384441      -0.70343347
C       -1.46760017       0.33257216       1.23955144
C       -0.01964417       0.02341115       1.24332314
C       -0.00683683      -1.13550696       0.19552104
H        1.75937002      -0.91002212      -1.19661139
H        2.14126455      -1.08166400       0.55115749
H        1.58524913       1.50989365       0.41145295
H        0.37926340       0.91694539      -1.95470635
H       -0.65896980       1.85921742      -0.89449920
H       -1.32764434      -0.81573461      -1.60791009
H       -1.72604478       1.38046887       1.03223766
H       -2.08320267      -0.32070514       0.03017170
H        0.46337432      -0.20260353       2.19208558
H       -0.28964978      -2.15226391       0.45540068
17
Frame=10 idx=010893 GeodesicLength=0.5768370136689334 rxn_smarts="[C:1]1([H:8])([H:9])[C@@:2]2([H:10])[C:3]([H:11])([H:12])[C@:4]3([H:13])[C:5]([H:14])([H:15])[C@@:6]2([H:16])[C@:7]13[H:17]>>[C:1]1([H:8])([H:9])[C@:2]2([H:10])[C:3]([H:11])([H:12])[C:4]([H:13])([H:15])[C@@:7]1([H:17])[C@:6]2([C:5][H:14])[H:16]"
C        1.41677500      -0.71568209      -0.17724837
C        0.90743131       0.69956173       0.15733972
C       -0.09934119       0.92832358      -0.97369511
C       -0.97199255      -0.30942051      -0.70048326
C       -1.46396074       0.33317059       1.23127016
C       -0.01650997       0.02721116       1.24531381
C       -0.00763780      -1.13371493       0.19579446
H        1.75611245      -0.91231279      -1.19716648
H        2.14066954      -1.08245607       0.55106286
H        1.58907186       1.50901742       0.41129878
H        0.37984227       0.92069853      -1.95498708
H       -0.65481333       1.86264190      -0.89196671
H       -1.32042381      -0.81347310      -1.60709183
H       -1.73020064       1.37848772       1.02349518
H       -2.10250063      -0.33719394       0.03849243
H        0.46810864      -0.20476817       2.19159807
H       -0.29063041      -2.15009102       0.45697338
17
Frame=11 idx=010893 GeodesicLength=0.6317959524641079 rxn_smarts="[C:1]1([H:8])([H:9])[C@@:2]2([H:10])[C:3]([H:11])([H:12])[C@:4]3([H:13])[C:5]([H:14])([H:15])[C@@:6]2([H:16])[C@:7]13[H:17]>>[C:1]1([H:8])([H:9])[C@:2]2([H:10])[C:3]([H:11])([H:12])[C:4]([H:13])([H:15])[C@@:7]1([H:17])[C@:6]2([C:5][H:14])[H:16]"
C        1.41637569      -0.71590345      -0.17726135
C        0.90972744       0.70005964       0.15723441
C       -0.09727590       0.93051147      -0.97349018
C       -0.97398752      -0.30494981      -0.69752940
C       -1.46049215       0.33359814       1.22273113
C       -0.01342453       0.03112973       1.24730341
C       -0.00844028      -1.13188029       0.19604870
H        1.75278919      -0.91462749      -1.19774818
H        2.14005065      -1.08325542       0.55097202
H        1.59295430       1.50813928       0.41118972
H        0.38046708       0.92447819      -1.95531154
H       -0.65048901       1.86615637      -0.88940118
H       -1.31349752      -0.81107926      -1.60601672
H       -1.73445079       1.37633287       1.01455509
H       -2.12143098      -0.35392202       0.04710166
H        0.47279531      -0.20689950       2.19107854
H       -0.29167099      -2.14788844       0.45854389
17
Frame=12 idx=010893 GeodesicLength=0.6865241685517353 rxn_smarts="[C:1]1([H:8])([H:9])[C@@:2]2([H:10])[C:3]([H:11])([H:12])[C@:4]3([H:13])[C:5]([H:14])([H:15])[C@@:6]2([H:16])[C@:7]13[H:17]>>[C:1]1([H:8])([H:9])[C@:2]2([H:10])[C:3]([H:11])([H:12])[C:4]([H:13])([H:15])[C@@:7]1([H:17])[C@:6]2([C:5][H:14])[H:16]"
C        1.41598943      -0.71611647      -0.17727501
C        0.91203393       0.70058237       0.15713513
C       -0.09511042       0.93274296      -0.97334738
C       -0.97594176      -0.30044451      -0.69465955
C       -1.45718865       0.33386766       1.21392936
C       -0.01037959       0.03507437       1.24927384
C       -0.00922825      -1.13002702       0.19623636
H        1.74951238      -0.91691226      -1.19827375
H        2.13942032      -1.08404835       0.55092163
H        1.59684443       1.50727550       0.41112029
H        0.38115697       0.92819828      -1.95567930
H       -0.64605877       1.86969867      -0.88686774
H       -1.30696816      -0.80851847      -1.60466673
H       -1.73866856       1.37399926       1.00549560
H       -2.14005286      -0.37072375       0.05610668
H        0.47735060      -0.20899616       2.19051869
H       -0.29271103      -2.14565207       0.46003186
17
Frame=13 idx=010893 GeodesicLength=0.7407763178431722 rxn_smarts="[C:1]1([H:8])([H:9])[C@@:2]2([H:10])[C:3]([H:11])([H:12])[C@:4]3([H:13])[C:5]([H:14])([H:15])[C@@:6]2([H:16])[C@:7]13[H:17]>>[C:1]1([H:8])([H:9])[C@:2]2([H:10])[C:3]([H:11])([H:12])[C:4]([H:13])([H:15])[C@@:7]1([H:17])[C@:6]2([C:5][H:14])[H:16]"
C        1.41559775      -0.71631317      -0.17730061
C        0.91438160       0.70110949       0.15704323
C       -0.09288237       0.93505934      -0.97323041
C       -0.97790571      -0.29591691      -0.69182484
C       -1.45405870       0.33393002       1.20495429
C       -0.00740146       0.03910546       1.25122746
C       -0.01002353      -1.12812181       0.19642196
H        1.74617792      -0.91926040      -1.19883234
H        2.13876492      -1.08483121       0.55087793
H        1.60077977       1.50639180       0.41104985
H        0.38190240       0.93191978      -1.95609284
H       -0.64148921       1.87332966      -0.88428547
H       -1.30058160      -0.80590663      -1.60320443
H       -1.74298551       1.37153086       0.99633998
H       -2.15833742      -0.38759706       0.06542048
H        0.48185336      -0.21104308       2.18990218
H       -0.29379223      -2.14338613       0.46153356
17
Frame=14 idx=010893 GeodesicLength=0.7946878511229044 rxn_smarts="[C:1]1([H:8])([H:9])[C@@:2]2([H:10])[C:3]([H:11])([H:12])[C@:4]3([H:13])[C:5]([H:14])([H:15])[C@@:6]2([H:16])[C@:7]13[H:17]>>[C:1]1([H:8])([H:9])[C@:2]2([H:10])[C:3]([H:11])([H:12])[C:4]([H:13])([H:15])[C@@:7]1([H:17])[C@:6]2([C:5][H:14])[H:16]"
C        1.41522400      -0.71648629      -0.17731309
C        0.91673695       0.70164391       0.15694798
C       -0.09052986       0.93739036      -0.97319444
C       -0.97983877      -0.29138830      -0.68909419
C       -1.45112567       0.33385440       1.19571405
C       -0.00451214       0.04316992       1.25314192
C       -0.01080782      -1.12619663       0.19654959
H        1.74286740      -0.92154404      -1.19936106
H        2.13808150      -1.08561519       0.55086301
H        1.60470886       1.50549863       0.41103092
H        0.38269397       0.93564244      -1.95653158
H       -0.63681624       1.87698843      -0.88175689
H       -1.29450046      -0.80319172      -1.60151328
H       -1.74728314       1.36892110       0.98704550
H       -2.17621621      -0.40447973       0.07528787
H        0.48620842      -0.21310270       2.18923768
H       -0.29489077      -2.14110460       0.46294599
17
Frame=15 idx=010893 GeodesicLength=0.848449353900598 rxn_smarts="[C:1]1([H:8])([H:9])[C@@:2]2([H:10])[C:3]([H:11])([H:12])[C@:4]3([H:13])[C:5]([H:14])([H:15])[C@@:6]2([H:16])[C@:7]13[H:17]>>[C:1]1([H:8])([H:9])[C@:2]2([H:10])[C:3]([H:11])([H:12])[C:4]([H:13])([H:15])[C@@:7]1([H:17])[C@:6]2([C:5][H:14])[H:16]"
C        1.41483597      -0.71663334      -0.17732956
C        0.91913565       0.70218899       0.15687420
C       -0.08805381       0.93976739      -0.97321066
C       -0.98174682      -0.28681497      -0.68642519
C       -1.44839188       0.33357214       1.18617206
C       -0.00170029       0.04730312       1.25504211
C       -0.01163708      -1.12425517       0.19665685
H        1.73955108      -0.92379820      -1.19990465
H        2.13735975      -1.08639848       0.55086299
H        1.60865644       1.50458489       0.41103732
H        0.38358399       0.93931346      -1.95703367
H       -0.63194834       1.88077300      -0.87918589
H       -1.28872647      -0.80031016      -1.59970538
H       -1.75166049       1.36617813       0.97752089
H       -2.19370962      -0.42157690       0.08579375
H        0.49046874      -0.21510006       2.18854256
H       -0.29601681      -2.13879385       0.46429228
17
Frame=16 idx=010893 GeodesicLength=0.9018887675334949 rxn_smarts="[C:1]1([H:8])([H:9])[C@@:2]2([H:10])[C:3]([H:11])([H:12])[C@:4]3([H:13])[C:5]([H:14])([H:15])[C@@:6]2([H:16])[C@:7]13[H:17]>>[C:1]1([H:8])([H:9])[C@:2]2([H:10])[C:3]([H:11])([H:12])[C:4]([H:13])([H:15])[C@@:7]1([H:17])[C@:6]2([C:5][H:14])[H:16]"
C        1.41446066      -0.71677967      -0.17732090
C        0.92155920       0.70274011       0.15680342
C       -0.08548602       0.94220871      -0.97329126
C       -0.98362659      -0.28223934      -0.68388318
C       -1.44582901       0.33311819       1.17639979
C        0.00102853       0.05147275       1.25690203
C       -0.01245271      -1.12229144       0.19668629
H        1.73627312      -0.92599641      -1.20039230
H        2.13661634      -1.08715512       0.55092342
H        1.61260169       1.50366018       0.41107425
H        0.38453620       0.94295390      -1.95757213
H       -0.62698834       1.88453524      -0.87665204
H       -1.28328974      -0.79732709      -1.59762507
H       -1.75600895       1.36329071       0.96789988
H       -2.21084214      -0.43865439       0.09673561
H        0.49461424      -0.21708859       2.18779959
H       -0.29716650      -2.13644774       0.46551260
