11
Frame=0 idx=006334 GeodesicLength=0.0 rxn_smarts="[O:1]=[c:2]1[o:3][c:4]([H:8])[c:5]([H:9])[c:6]([H:10])[c:7]1[H:11]>>[O:1]=[C:2]1[O:3][C@@:5]([C:4][H:8])([H:9])[C:6]([H:10])=[C:7]1[H:11]"
O        2.22776723      -1.51808049       0.83109439
C        1.71590868      -0.62350820       0.31307727
O       -0.92782039      -1.10805991       0.81760219
C       -1.50580300      -0.96543028      -0.34421665
C       -1.26446542       0.35522449       0.29273871
C       -0.08562133       1.00878184      -0.03215154
C        1.21183303       0.42845487      -0.30988177
H       -1.02661246      -1.42732312      -1.21788950
H       -2.09429097       0.86629197       0.75976516
H       -0.14197350       2.09072189      -0.09394404
H        1.89107810       0.89292691      -1.01619424
11
Frame=1 idx=006334 GeodesicLength=0.1557238259866573 rxn_smarts="[O:1]=[c:2]1[o:3][c:4]([H:8])[c:5]([H:9])[c:6]([H:10])[c:7]1[H:11]>>[O:1]=[C:2]1[O:3][C@@:5]([C:4][H:8])([H:9])[C:6]([H:10])=[C:7]1[H:11]"
O        2.21804802      -1.51431531       0.83257595
C        1.65015541      -0.64629764       0.32384380
O       -0.84660150      -1.11371520       0.80717028
C       -1.50585225      -0.97270329      -0.32835042
C       -1.25466146       0.34901704       0.28934349
C       -0.09262447       1.02008768      -0.07758736
C        1.20793885       0.44149359      -0.30192379
H       -1.07415357      -1.42123885      -1.23217512
H       -2.07369044       0.85174698       0.78410227
H       -0.15423676       2.10203125      -0.12722878
H        1.92567817       0.90389375      -0.96977034
11
Frame=2 idx=006334 GeodesicLength=0.31140278590110804 rxn_smarts="[O:1]=[c:2]1[o:3][c:4]([H:8])[c:5]([H:9])[c:6]([H:10])[c:7]1[H:11]>>[O:1]=[C:2]1[O:3][C@@:5]([C:4][H:8])([H:9])[C:6]([H:10])=[C:7]1[H:11]"
O        2.20723296      -1.51152307       0.82733400
C        1.59150660      -0.66538020       0.33285724
O       -0.77333097      -1.11830465       0.79648941
C       -1.50509886      -0.97945252      -0.31259788
C       -1.24496656       0.34319154       0.28596823
C       -0.09764449       1.02884309      -0.11672614
C        1.20364381       0.45274756      -0.29371734
H       -1.11773690      -1.41757015      -1.24030553
H       -2.05425469       0.84049788       0.80222719
H       -0.16512540       2.11049040      -0.16052347
H        1.95577451       0.91646012      -0.92100570
11
Frame=3 idx=006334 GeodesicLength=0.46700738266150543 rxn_smarts="[O:1]=[c:2]1[o:3][c:4]([H:8])[c:5]([H:9])[c:6]([H:10])[c:7]1[H:11]>>[O:1]=[C:2]1[O:3][C@@:5]([C:4][H:8])([H:9])[C:6]([H:10])=[C:7]1[H:11]"
O        2.19545046      -1.51101014       0.81573637
C        1.53900672      -0.68122246       0.34098929
O       -0.70663247      -1.12205018       0.78634382
C       -1.50369031      -0.98567917      -0.29677817
C       -1.23552321       0.33776389       0.28277809
C       -0.10100372       1.03568522      -0.15062172
C        1.19895423       0.46239429      -0.28619406
H       -1.15754033      -1.41585557      -1.24333569
H       -2.03633412       0.83202953       0.81541783
H       -0.17512686       2.11670317      -0.19498552
H        1.98243961       0.93124143      -0.86935023
11
Frame=4 idx=006334 GeodesicLength=0.6225522267499224 rxn_smarts="[O:1]=[c:2]1[o:3][c:4]([H:8])[c:5]([H:9])[c:6]([H:10])[c:7]1[H:11]>>[O:1]=[C:2]1[O:3][C@@:5]([C:4][H:8])([H:9])[C:6]([H:10])=[C:7]1[H:11]"
O        2.18306076      -1.51273053       0.79886722
C        1.49177309      -0.69430184       0.34887337
O       -0.64542120      -1.12517576       0.77704668
C       -1.50161090      -0.99134069      -0.28109500
C       -1.22637559       0.33272532       0.27981295
C       -0.10301123       1.04126019      -0.18012723
C        1.19404286       0.47089192      -0.27942305
H       -1.19354002      -1.41554415      -1.24245503
H       -2.02014726       0.82580455       0.82447569
H       -0.18431646       2.12140536      -0.22996943
H        2.00554596       0.94700562      -0.81600616
11
Frame=5 idx=006334 GeodesicLength=0.7780129821949757 rxn_smarts="[O:1]=[c:2]1[o:3][c:4]([H:8])[c:5]([H:9])[c:6]([H:10])[c:7]1[H:11]>>[O:1]=[C:2]1[O:3][C@@:5]([C:4][H:8])([H:9])[C:6]([H:10])=[C:7]1[H:11]"
O        2.17046832      -1.51584983       0.77833317
C        1.44898199      -0.70540445       0.35602772
O       -0.58885531      -1.12786806       0.76867937
C       -1.49910932      -0.99643582      -0.26560750
C       -1.21749014       0.32801167       0.27705152
C       -0.10388822       1.04586344      -0.20623788
C        1.18898293       0.47827124      -0.27399197
H       -1.22638236      -1.41628859      -1.23855619
H       -2.00551871       0.82140304       0.83021172
H       -0.19252023       2.12487645      -0.26484661
H        2.02533107       0.96342091      -0.76106335
11
Frame=6 idx=006334 GeodesicLength=0.933486539066598 rxn_smarts="[O:1]=[c:2]1[o:3][c:4]([H:8])[c:5]([H:9])[c:6]([H:10])[c:7]1[H:11]>>[O:1]=[C:2]1[O:3][C@@:5]([C:4][H:8])([H:9])[C:6]([H:10])=[C:7]1[H:11]"
O        2.15799079      -1.51957244       0.75588023
C        1.40996723      -0.71532973       0.36202270
O       -0.53626738      -1.13036738       0.76116414
C       -1.49636177      -1.00090840      -0.25047560
C       -1.20881987       0.32359102       0.27449340
C       -0.10381260       1.04961367      -0.22958628
C        1.18386208       0.48455705      -0.27022625
H       -1.25662218      -1.41773550      -1.23245100
H       -1.99222830       0.81854060       0.83333735
H       -0.19961672       2.12727387      -0.29894358
H        2.04190871       0.98033725      -0.70521510
11
Frame=7 idx=006334 GeodesicLength=1.088926101531472 rxn_smarts="[O:1]=[c:2]1[o:3][c:4]([H:8])[c:5]([H:9])[c:6]([H:10])[c:7]1[H:11]>>[O:1]=[C:2]1[O:3][C@@:5]([C:4][H:8])([H:9])[C:6]([H:10])=[C:7]1[H:11]"
O        2.14581247      -1.52340708       0.73254594
C        1.37423849      -0.72442938       0.36681299
O       -0.48711856      -1.13282218       0.75444935
C       -1.49336276      -1.00472581      -0.23592242
C       -1.20033228       0.31941144       0.27219895
C       -0.10292353       1.05286088      -0.25041741
C        1.17885662       0.49014948      -0.26752495
H       -1.28438543      -1.41943707      -1.22487699
H       -1.98020069       0.81679076       0.83436790
H       -0.20572095       2.12891786      -0.33193569
H        2.05513662       0.99669111      -0.64969767
11
Frame=8 idx=006334 GeodesicLength=1.2443677329832188 rxn_smarts="[O:1]=[c:2]1[o:3][c:4]([H:8])[c:5]([H:9])[c:6]([H:10])[c:7]1[H:11]>>[O:1]=[C:2]1[O:3][C@@:5]([C:4][H:8])([H:9])[C:6]([H:10])=[C:7]1[H:11]"
O        2.13406774      -1.52700867       0.70916689
C        1.34137419      -0.73313287       0.37020926
O       -0.44095876      -1.13534489       0.74849885
C       -1.49016104      -1.00786478      -0.22207387
C       -1.19200115       0.31544313       0.27020495
C       -0.10134600       1.05574687      -0.26899458
C        1.17407617       0.49535231      -0.26534588
H       -1.30993381      -1.42110924      -1.21635596
H       -1.96931413       0.81589695       0.83373523
H       -0.21096653       2.12994431      -0.36371282
H        2.06516332       1.01207688      -0.59533206
11
Frame=9 idx=006334 GeodesicLength=1.3997765060152798 rxn_smarts="[O:1]=[c:2]1[o:3][c:4]([H:8])[c:5]([H:9])[c:6]([H:10])[c:7]1[H:11]>>[O:1]=[C:2]1[O:3][C@@:5]([C:4][H:8])([H:9])[C:6]([H:10])=[C:7]1[H:11]"
O        2.12283517      -1.53007114       0.68642065
C        1.31104414      -0.74183723       0.37187020
O       -0.39740925      -1.13802748       0.74327598
C       -1.48684306      -1.01033654      -0.20898132
C       -1.18379806       0.31164733       0.26854977
C       -0.09918223       1.05836369      -0.28557806
C        1.16957526       0.50042122      -0.26319902
H       -1.33360687      -1.42254513      -1.20727161
H       -1.95940737       0.81564873       0.83182809
H       -0.21549490       2.13042427      -0.39435402
H        2.07228717       1.02631227      -0.54256065
11
Frame=10 idx=006334 GeodesicLength=1.5552032397629805 rxn_smarts="[O:1]=[c:2]1[o:3][c:4]([H:8])[c:5]([H:9])[c:6]([H:10])[c:7]1[H:11]>>[O:1]=[C:2]1[O:3][C@@:5]([C:4][H:8])([H:9])[C:6]([H:10])=[C:7]1[H:11]"
O        2.11218546      -1.53260359       0.66446291
C        1.28291784      -0.75069611       0.37174452
O       -0.35614655      -1.14086291       0.73883394
C       -1.48345095      -1.01219301      -0.19663102
C       -1.17573025       0.30800879       0.26722807
C       -0.09655826       1.06081988      -0.30043271
C        1.16535564       0.50558000      -0.26064134
H       -1.35560733      -1.42368925      -1.19783054
H       -1.95041544       0.81590334       0.82885455
H       -0.21944959       2.13045013      -0.42396011
H        2.07689943       1.03928273      -0.49162827
11
Frame=11 idx=006334 GeodesicLength=1.7106245283961163 rxn_smarts="[O:1]=[c:2]1[o:3][c:4]([H:8])[c:5]([H:9])[c:6]([H:10])[c:7]1[H:11]>>[O:1]=[C:2]1[O:3][C@@:5]([C:4][H:8])([H:9])[C:6]([H:10])=[C:7]1[H:11]"
O        2.10217315      -1.53465424       0.64333135
C        1.25671713      -0.75983286       0.36963741
O       -0.31688700      -1.14382078       0.73522691
C       -1.48006415      -1.01350948      -0.18492766
C       -1.16779244       0.30451299       0.26622487
C       -0.09357673       1.06317087      -0.31387540
C        1.16138599       0.51094308      -0.25746843
H       -1.37622532      -1.42456832      -1.18811620
H       -1.94221883       0.81657915       0.82500004
H       -0.22293926       2.13005946      -0.45275925
H        2.07942745       1.05112012      -0.44227364
11
Frame=12 idx=006334 GeodesicLength=1.866094950285657 rxn_smarts="[O:1]=[c:2]1[o:3][c:4]([H:8])[c:5]([H:9])[c:6]([H:10])[c:7]1[H:11]>>[O:1]=[C:2]1[O:3][C@@:5]([C:4][H:8])([H:9])[C:6]([H:10])=[C:7]1[H:11]"
O        2.09284143      -1.53629725       0.62291433
C        1.23218889      -0.76932621       0.36552388
O       -0.27937883      -1.14686099       0.73251666
C       -1.47673247      -1.01432957      -0.17377617
C       -1.15998093       0.30115741       0.26550350
C       -0.09032458       1.06541391      -0.32617187
C        1.15762225       0.51656422      -0.25358711
H       -1.39568444      -1.42520247      -1.17815427
H       -1.93471666       0.81763936       0.82036661
H       -0.22603484       2.12923815      -0.48092951
H        2.08020017       1.06200345      -0.39420606
11
Frame=13 idx=006334 GeodesicLength=2.02156629618207 rxn_smarts="[O:1]=[c:2]1[o:3][c:4]([H:8])[c:5]([H:9])[c:6]([H:10])[c:7]1[H:11]>>[O:1]=[C:2]1[O:3][C@@:5]([C:4][H:8])([H:9])[C:6]([H:10])=[C:7]1[H:11]"
O        2.08420462      -1.53761042       0.60303555
C        1.20913587      -0.77923692       0.35919468
O       -0.24336556      -1.14991957       0.73073489
C       -1.47352592      -1.01472545      -0.16302587
C       -1.15227002       0.29794279       0.26503446
C       -0.08684989       1.06754269      -0.33764068
C        1.15403684       0.52247635      -0.24896736
H       -1.41428764      -1.42568460      -1.16789913
H       -1.92776189       0.81908236       0.81508172
H       -0.22878161       2.12795641      -0.50879639
H        2.07946520       1.07217636      -0.34675186
11
Frame=14 idx=006334 GeodesicLength=2.1770916533286817 rxn_smarts="[O:1]=[c:2]1[o:3][c:4]([H:8])[c:5]([H:9])[c:6]([H:10])[c:7]1[H:11]>>[O:1]=[C:2]1[O:3][C@@:5]([C:4][H:8])([H:9])[C:6]([H:10])=[C:7]1[H:11]"
O        2.07625243      -1.53858470       0.58363513
C        1.18735046      -0.78954747       0.35075851
O       -0.20863368      -1.15295703       0.72989340
C       -1.47044556      -1.01473189      -0.15263019
C       -1.14466189       0.29486160       0.26476710
C       -0.08320699       1.06955996      -0.34842563
C        1.15056878       0.52866597      -0.24359168
H       -1.43214542      -1.42600980      -1.15737976
H       -1.92129388       0.82085854       0.80918200
H       -0.23117931       2.12622666      -0.53633299
H        2.07739505       1.08165816      -0.29987591
11
Frame=15 idx=006334 GeodesicLength=2.332607223531919 rxn_smarts="[O:1]=[c:2]1[o:3][c:4]([H:8])[c:5]([H:9])[c:6]([H:10])[c:7]1[H:11]>>[O:1]=[C:2]1[O:3][C@@:5]([C:4][H:8])([H:9])[C:6]([H:10])=[C:7]1[H:11]"
O        2.06895318      -1.53924813       0.56447335
C        1.16668398      -0.80025097       0.34009387
O       -0.17493333      -1.15589900       0.72998101
C       -1.46753005      -1.01441430      -0.14244584
C       -1.13712753       0.29191853       0.26465963
C       -0.07940041       1.07144333      -0.35878528
C        1.14719878       0.53512332      -0.23747424
H       -1.44950545      -1.42627683      -1.14651517
H       -1.91518464       0.82298591       0.80274516
H       -0.23320731       2.12401597      -0.56379958
H        2.07405277       1.09060216      -0.25293290
11
Frame=16 idx=006334 GeodesicLength=2.4881485890324098 rxn_smarts="[O:1]=[c:2]1[o:3][c:4]([H:8])[c:5]([H:9])[c:6]([H:10])[c:7]1[H:11]>>[O:1]=[C:2]1[O:3][C@@:5]([C:4][H:8])([H:9])[C:6]([H:10])=[C:7]1[H:11]"
O        2.06222485      -1.53956564       0.54545543
C        1.14696364      -0.81118979       0.32760031
O       -0.14208740      -1.15868536       0.73100216
C       -1.46473071      -1.01380928      -0.13248971
C       -1.12969632       0.28910058       0.26464930
C       -0.07545822       1.07322770      -0.36872075
C        1.14384541       0.54177649      -0.23063640
H       -1.46630423      -1.42647503      -1.13537132
H       -1.90946295       0.82538553       0.79572999
H       -0.23480717       2.12140111      -0.59094821
H        2.06951309       1.09883369      -0.20627079
