12
Frame=0 idx=005300 GeodesicLength=0.0 rxn_smarts="[O:1]([C@:2]12[C:3]([H:8])([H:9])[C@@:4]1([H:10])[O:5][C:6]2([H:11])[H:12])[H:7]>>[O:1]([C:2][C:3]([C@@:4]1([H:10])[O:5][C:6]1([H:11])[H:12])([H:8])[H:9])[H:7]"
O       -0.24932589      -1.43327488      -1.11240551
C       -0.06538821      -0.96624655       0.16867811
C       -1.22098187      -0.06259309       0.54548825
C       -0.32245342       0.87750362      -0.12595378
O        0.56307604       1.71018814       0.52681617
C        1.23899613       0.48359191       0.26715577
H        0.42207673      -2.09984635      -1.26173127
H       -2.14427352      -0.25265533       0.00880938
H       -1.35478090       0.07940368       1.61320209
H       -0.45307856       1.05126399      -1.18908803
H        1.70139023       0.10425372       1.16715278
H        1.88474320       0.50841110      -0.60812391
12
Frame=1 idx=005300 GeodesicLength=0.057791493853461474 rxn_smarts="[O:1]([C@:2]12[C:3]([H:8])([H:9])[C@@:4]1([H:10])[O:5][C:6]2([H:11])[H:12])[H:7]>>[O:1]([C:2][C:3]([C@@:4]1([H:10])[O:5][C:6]1([H:11])[H:12])([H:8])[H:9])[H:7]"
O       -0.25581210      -1.44924274      -1.12269416
C       -0.05787977      -0.96144041       0.14553131
C       -1.21291065      -0.06655543       0.53813947
C       -0.32001916       0.88279333      -0.13188546
O        0.55504461       1.71662659       0.53693814
C        1.24354683       0.49727965       0.27363645
H        0.37677059      -2.15726636      -1.25014124
H       -2.13991500      -0.25320304       0.00643644
H       -1.33495450       0.06172330       1.60930304
H       -0.45737578       1.07556387      -1.19070856
H        1.70105465       0.11761407       1.17684718
H        1.90245029       0.53610717      -0.59140261
12
Frame=2 idx=005300 GeodesicLength=0.11417522535085459 rxn_smarts="[O:1]([C@:2]12[C:3]([H:8])([H:9])[C@@:4]1([H:10])[O:5][C:6]2([H:11])[H:12])[H:7]>>[O:1]([C:2][C:3]([C@@:4]1([H:10])[O:5][C:6]1([H:11])[H:12])([H:8])[H:9])[H:7]"
O       -0.26248919      -1.46647020      -1.13259176
C       -0.05004377      -0.95651230       0.12151962
C       -1.20444197      -0.07077808       0.53035199
C       -0.31734981       0.88797130      -0.13815979
O        0.54697496       1.72268630       0.54690119
C        1.24815058       0.51080971       0.28001397
H        0.33024167      -2.21202964      -1.23662191
H       -2.13522795      -0.25401802       0.00384101
H       -1.31461014       0.04351813       1.60468928
H       -0.46201922       1.10012897      -1.19212155
H        1.70061731       0.13060531       1.18639231
H        1.92019754       0.56408852      -0.57421437
12
Frame=3 idx=005300 GeodesicLength=0.169101554435525 rxn_smarts="[O:1]([C@:2]12[C:3]([H:8])([H:9])[C@@:4]1([H:10])[O:5][C:6]2([H:11])[H:12])[H:7]>>[O:1]([C:2][C:3]([C@@:4]1([H:10])[O:5][C:6]1([H:11])[H:12])([H:8])[H:9])[H:7]"
O       -0.26975927      -1.48517800      -1.14179691
C       -0.04220632      -0.95149898       0.09672637
C       -1.19573003      -0.07512031       0.52221254
C       -0.31449508       0.89301054      -0.14478756
O        0.53899335       1.72822293       0.55659772
C        1.25272761       0.52392380       0.28618132
H        0.28397975      -2.26323287      -1.22137667
H       -2.13040702      -0.25488997       0.00116708
H       -1.29383626       0.02502955       1.59943195
H       -0.46711459       1.12486935      -1.19330352
H        1.70002235       0.14292448       1.19564739
H        1.93782550       0.59193947      -0.55669971
12
Frame=4 idx=005300 GeodesicLength=0.22287468173615105 rxn_smarts="[O:1]([C@:2]12[C:3]([H:8])([H:9])[C@@:4]1([H:10])[O:5][C:6]2([H:11])[H:12])[H:7]>>[O:1]([C:2][C:3]([C@@:4]1([H:10])[O:5][C:6]1([H:11])[H:12])([H:8])[H:9])[H:7]"
O       -0.27759325      -1.50525437      -1.15033735
C       -0.03436949      -0.94633069       0.07098510
C       -1.18676537      -0.07957513       0.51367387
C       -0.31146969       0.89800453      -0.15172409
O        0.53109770       1.73325354       0.56614274
C        1.25727746       0.53666203       0.29212170
H        0.23802097      -2.31141270      -1.20425035
H       -2.12544245      -0.25578129      -0.00163723
H       -1.27262408       0.00616952       1.59348428
H       -0.47271514       1.14997170      -1.19414537
H        1.69928375       0.15452333       1.20455408
H        1.95529958       0.61976952      -0.53886737
12
Frame=5 idx=005300 GeodesicLength=0.27545010058345787 rxn_smarts="[O:1]([C@:2]12[C:3]([H:8])([H:9])[C@@:4]1([H:10])[O:5][C:6]2([H:11])[H:12])[H:7]>>[O:1]([C:2][C:3]([C@@:4]1([H:10])[O:5][C:6]1([H:11])[H:12])([H:8])[H:9])[H:7]"
O       -0.28647454      -1.52687634      -1.15785656
C       -0.02692677      -0.94101491       0.04437213
C       -1.17774299      -0.08395578       0.50483644
C       -0.30833833       0.90296490      -0.15895662
O        0.52344394       1.73764461       0.57544751
C        1.26171588       0.54875364       0.29771987
H        0.19411808      -2.35588685      -1.18555644
H       -2.12056917      -0.25641422      -0.00441210
H       -1.25110292      -0.01278604       1.58692905
H       -0.47892121       1.17539304      -1.19459041
H        1.69834138       0.16506911       1.21295477
H        1.97245665       0.64710884      -0.52088764
12
Frame=6 idx=005300 GeodesicLength=0.32708122752590374 rxn_smarts="[O:1]([C@:2]12[C:3]([H:8])([H:9])[C@@:4]1([H:10])[O:5][C:6]2([H:11])[H:12])[H:7]>>[O:1]([C:2][C:3]([C@@:4]1([H:10])[O:5][C:6]1([H:11])[H:12])([H:8])[H:9])[H:7]"
O       -0.29621130      -1.54981492      -1.16442022
C       -0.01978794      -0.93545282       0.01666332
C       -1.16859434      -0.08830557       0.49560420
C       -0.30509017       0.90799433      -0.16644279
O        0.51600302       1.74145798       0.58463684
C        1.26606645       0.56031908       0.30299549
H        0.15179899      -2.39751049      -1.16507032
H       -2.11569819      -0.25682598      -0.00726678
H       -1.22921760      -0.03202860       1.57965511
H       -0.48577171       1.20137579      -1.19448705
H        1.69719651       0.17462620       1.22084516
H        1.98930628       0.67416500      -0.50271295
12
Frame=7 idx=005300 GeodesicLength=0.37791344791728815 rxn_smarts="[O:1]([C@:2]12[C:3]([H:8])([H:9])[C@@:4]1([H:10])[O:5][C:6]2([H:11])[H:12])[H:7]>>[O:1]([C:2][C:3]([C@@:4]1([H:10])[O:5][C:6]1([H:11])[H:12])([H:8])[H:9])[H:7]"
O       -0.30690389      -1.57410234      -1.16991633
C       -0.01313466      -0.92955051      -0.01230330
C       -1.15941247      -0.09253113       0.48594333
C       -0.30177771       0.91320824      -0.17413475
O        0.50882942       1.74463450       0.59384140
C        1.27030218       0.57127888       0.30786112
H        0.11170638      -2.43644702      -1.14259135
H       -2.11093091      -0.25686148      -0.01023215
H       -1.20702727      -0.05156797       1.57162528
H       -0.49332619       1.22810401      -1.19370688
H        1.69588307       0.18294240       1.22804562
H        2.00579207       0.70089243      -0.48443198
12
Frame=8 idx=005300 GeodesicLength=0.42800130832817956 rxn_smarts="[O:1]([C@:2]12[C:3]([H:8])([H:9])[C@@:4]1([H:10])[O:5][C:6]2([H:11])[H:12])[H:7]>>[O:1]([C:2][C:3]([C@@:4]1([H:10])[O:5][C:6]1([H:11])[H:12])([H:8])[H:9])[H:7]"
O       -0.31874991      -1.59976852      -1.17408888
C       -0.00719246      -0.92324006      -0.04261885
C       -1.15030182      -0.09652352       0.47585049
C       -0.29844220       0.91868272      -0.18200630
O        0.50201016       1.74711616       0.60308831
C        1.27438785       0.58151365       0.31224575
H        0.07469358      -2.47270574      -1.11818129
H       -2.10638243      -0.25634659      -0.01329005
H       -1.18460037      -0.07133757       1.56281077
H       -0.50164670       1.25569214      -1.19212448
H        1.69437624       0.18981298       1.23443906
H        2.02184807       0.72710434      -0.46612452
12
Frame=9 idx=005300 GeodesicLength=0.4775183473410722 rxn_smarts="[O:1]([C@:2]12[C:3]([H:8])([H:9])[C@@:4]1([H:10])[O:5][C:6]2([H:11])[H:12])[H:7]>>[O:1]([C:2][C:3]([C@@:4]1([H:10])[O:5][C:6]1([H:11])[H:12])([H:8])[H:9])[H:7]"
O       -0.33113807      -1.62653398      -1.17714421
C       -0.00174310      -0.91635466      -0.07467228
C       -1.14112719      -0.10041623       0.46511584
C       -0.29507041       0.92454545      -0.19001095
O        0.49544458       1.74893696       0.61261335
C        1.27837737       0.59121925       0.31615338
H        0.03944168      -2.50716428      -1.09104694
H       -2.10186676      -0.25546304      -0.01670301
H       -1.16182932      -0.09174586       1.55297015
H       -0.51076073       1.28446544      -1.18951629
H        1.69274403       0.19529915       1.23995442
H        2.03752792       0.75321181      -0.44771346
12
Frame=10 idx=005300 GeodesicLength=0.5264028058602271 rxn_smarts="[O:1]([C@:2]12[C:3]([H:8])([H:9])[C@@:4]1([H:10])[O:5][C:6]2([H:11])[H:12])[H:7]>>[O:1]([C:2][C:3]([C@@:4]1([H:10])[O:5][C:6]1([H:11])[H:12])([H:8])[H:9])[H:7]"
O       -0.34480592      -1.65471824      -1.17837547
C        0.00255571      -0.90882787      -0.10842873
C       -1.13222701      -0.10388672       0.45384960
C       -0.29177081       0.93088167      -0.19811207
O        0.48938335       1.74990665       0.62235633
C        1.28215326       0.59999116       0.31939913
H        0.00859707      -2.53905704      -1.06167154
H       -2.09776602      -0.25372325      -0.02029953
H       -1.13896686      -0.11240367       1.54217075
H       -0.52072765       1.31444206      -1.18576078
H        1.69090465       0.19883906       1.24431220
H        2.05267024       0.77855618      -0.42943988
12
Frame=11 idx=005300 GeodesicLength=0.5747425737244648 rxn_smarts="[O:1]([C@:2]12[C:3]([H:8])([H:9])[C@@:4]1([H:10])[O:5][C:6]2([H:11])[H:12])[H:7]>>[O:1]([C:2][C:3]([C@@:4]1([H:10])[O:5][C:6]1([H:11])[H:12])([H:8])[H:9])[H:7]"
O       -0.35902398      -1.68400252      -1.17793618
C        0.00589313      -0.90050022      -0.14427634
C       -1.12347090      -0.10707688       0.44184052
C       -0.28853857       0.93779401      -0.20627994
O        0.48373150       1.75003868       0.63249636
C        1.28576163       0.60798675       0.32198169
H       -0.01916636      -2.56901053      -1.02924025
H       -2.09390107      -0.25134432      -0.02433333
H       -1.11590613      -0.13371053       1.53014981
H       -0.53159400       1.34590812      -1.18061066
H        1.68889798       0.20048962       1.24745491
H        2.06731678       0.80342782      -0.41124659
12
Frame=12 idx=005300 GeodesicLength=0.6225426198730736 rxn_smarts="[O:1]([C@:2]12[C:3]([H:8])([H:9])[C@@:4]1([H:10])[O:5][C:6]2([H:11])[H:12])[H:7]>>[O:1]([C:2][C:3]([C@@:4]1([H:10])[O:5][C:6]1([H:11])[H:12])([H:8])[H:9])[H:7]"
O       -0.37407048      -1.71454991      -1.17522510
C        0.00772908      -0.89124118      -0.18233895
C       -1.11513625      -0.10974687       0.42909679
C       -0.28547667       0.94540244      -0.21446153
O        0.47867475       1.74915139       0.64307485
C        1.28911729       0.61489513       0.32371900
H       -0.04205116      -2.59659623      -0.99383402
H       -2.09056225      -0.24797534      -0.02878213
H       -1.09287124      -0.15546174       1.51685658
H       -0.54340359       1.37900447      -1.17385778
H        1.68667710       0.19973501       1.24907427
H        2.08137342       0.82738282      -0.39332198
12
Frame=13 idx=005300 GeodesicLength=0.6699092969096341 rxn_smarts="[O:1]([C@:2]12[C:3]([H:8])([H:9])[C@@:4]1([H:10])[O:5][C:6]2([H:11])[H:12])[H:7]>>[O:1]([C:2][C:3]([C@@:4]1([H:10])[O:5][C:6]1([H:11])[H:12])([H:8])[H:9])[H:7]"
O       -0.38942397      -1.74624285      -1.17005097
C        0.00794941      -0.88083730      -0.22304752
C       -1.10725161      -0.11191620       0.41542237
C       -0.28263275       0.95384047      -0.22260404
O        0.47421676       1.74711886       0.65428197
C        1.29221209       0.62068102       0.32449611
H       -0.06033617      -2.62187887      -0.95464604
H       -2.08774436      -0.24364426      -0.03387867
H       -1.06987523      -0.17793948       1.50200971
H       -0.55620138       1.41402953      -1.16518195
H        1.68425291       0.19631430       1.24891102
H        2.09483430       0.85047479      -0.37571199
12
Frame=14 idx=005300 GeodesicLength=0.7168796430388034 rxn_smarts="[O:1]([C@:2]12[C:3]([H:8])([H:9])[C@@:4]1([H:10])[O:5][C:6]2([H:11])[H:12])[H:7]>>[O:1]([C:2][C:3]([C@@:4]1([H:10])[O:5][C:6]1([H:11])[H:12])([H:8])[H:9])[H:7]"
O       -0.40510409      -1.77918781      -1.16162832
C        0.00588491      -0.86908340      -0.26665345
C       -1.10015191      -0.11333056       0.40077207
C       -0.28012154       0.96324764      -0.23063825
O        0.47057333       1.74366832       0.66617549
C        1.29493461       0.62495529       0.32406861
H       -0.07212528      -2.64423773      -0.91152724
H       -2.08577493      -0.23798361      -0.03967251
H       -1.04721037      -0.20098780       1.48546441
H       -0.57002890       1.45121161      -1.15425322
H        1.68151842       0.18956042       1.24653693
H        2.10760574       0.87216762      -0.35864451
12
Frame=15 idx=005300 GeodesicLength=0.7633978926369227 rxn_smarts="[O:1]([C@:2]12[C:3]([H:8])([H:9])[C@@:4]1([H:10])[O:5][C:6]2([H:11])[H:12])[H:7]>>[O:1]([C:2][C:3]([C@@:4]1([H:10])[O:5][C:6]1([H:11])[H:12])([H:8])[H:9])[H:7]"
O       -0.42001819      -1.81286728      -1.14987009
C        0.00138751      -0.85585148      -0.31342135
C       -1.09386753      -0.11407307       0.38500434
C       -0.27800979       0.97362687      -0.23852893
O        0.46770970       1.73860344       0.67880957
C        1.29724129       0.62762821       0.32230363
H       -0.07808117      -2.66324243      -0.86364058
H       -2.08462641      -0.23120238      -0.04634552
H       -1.02494466      -0.22482251       1.46696660
H       -0.58486089       1.49061064      -1.14075410
H        1.67842325       0.17927360       1.24169528
H        2.11964689       0.89231639      -0.34221884
12
Frame=16 idx=005300 GeodesicLength=0.8096449293288512 rxn_smarts="[O:1]([C@:2]12[C:3]([H:8])([H:9])[C@@:4]1([H:10])[O:5][C:6]2([H:11])[H:12])[H:7]>>[O:1]([C:2][C:3]([C@@:4]1([H:10])[O:5][C:6]1([H:11])[H:12])([H:8])[H:9])[H:7]"
O       -0.43417215      -1.84733144      -1.13352228
C       -0.00667202      -0.84099068      -0.36341672
C       -1.08899134      -0.11371634       0.36818407
C       -0.27645438       0.98506040      -0.24621667
O        0.46599024       1.73151790       0.69208345
C        1.29893823       0.62801179       0.31886049
H       -0.07493738      -2.67762200      -0.81132359
H       -2.08489358      -0.22269739      -0.05385831
H       -1.00366199      -0.24894415       1.44647197
H       -0.60070807       1.53235327      -1.12432234
H        1.67471879       0.16450168       1.23384639
H        2.13084365       0.90985697      -0.32678647
