13
Frame=0 idx=003310 GeodesicLength=0.0 rxn_smarts="[C:1]([C:2]#[C:3][C@@:4]1([H:10])[C:5]([H:11])([H:12])[N:6]1[H:13])([H:7])([H:8])[H:9]>>[C:1]([C:2](=[C:3])[C@@:4]1([H:10])[C:5]([H:11])([H:12])[N:6]1[H:13])([H:7])([H:8])[H:9]"
C       -2.00332172      -0.37358592      -0.07875169
C       -0.93659407       0.53191211      -0.49401217
C       -0.12774244       1.37135301      -0.95367460
C        0.79274873       0.01951273      -0.53941692
C        1.95132549       0.36688120       0.31753408
N        0.99811720      -0.61494162       0.78298057
H       -2.95002845       0.15728502      -0.18805601
H       -1.90042493      -0.67901023       0.96341608
H       -2.03196395      -1.26445146      -0.70777481
H        0.95632343      -0.65618090      -1.36818835
H        1.94382269       1.35823920       0.75340272
H        2.92524287      -0.02214882       0.04234245
H        0.38249519      -0.19486432       1.47019870
13
Frame=1 idx=003310 GeodesicLength=0.05393356097457553 rxn_smarts="[C:1]([C:2]#[C:3][C@@:4]1([H:10])[C:5]([H:11])([H:12])[N:6]1[H:13])([H:7])([H:8])[H:9]>>[C:1]([C:2](=[C:3])[C@@:4]1([H:10])[C:5]([H:11])([H:12])[N:6]1[H:13])([H:7])([H:8])[H:9]"
C       -2.02210602      -0.36988628      -0.08196823
C       -0.93826497       0.51742526      -0.49322562
C       -0.13098979       1.36175823      -0.94309705
C        0.80120722       0.01027253      -0.53544423
C        1.95965060       0.37491694       0.31512336
N        1.02353061      -0.62257463       0.78347937
H       -2.96128524       0.17197297      -0.20148679
H       -1.92939185      -0.66995481       0.96278186
H       -2.05735311      -1.26470271      -0.70504322
H        0.97237217      -0.66183362      -1.36604249
H        1.93904757       1.36445430       0.75480246
H        2.93829688       0.00175472       0.03512290
H        0.40528593      -0.21360291       1.47499766
13
Frame=2 idx=003310 GeodesicLength=0.1075945632871736 rxn_smarts="[C:1]([C:2]#[C:3][C@@:4]1([H:10])[C:5]([H:11])([H:12])[N:6]1[H:13])([H:7])([H:8])[H:9]>>[C:1]([C:2](=[C:3])[C@@:4]1([H:10])[C:5]([H:11])([H:12])[N:6]1[H:13])([H:7])([H:8])[H:9]"
C       -2.04110746      -0.36600198      -0.08518425
C       -0.94001193       0.50250568      -0.49194160
C       -0.13455726       1.35204752      -0.93164454
C        0.80977819       0.00105157      -0.53141951
C        1.96796824       0.38291417       0.31257686
N        1.04961711      -0.63043025       0.78359776
H       -2.97253377       0.18628678      -0.21694387
H       -1.95989144      -0.65907769       0.96261549
H       -2.08205448      -1.26554468      -0.70111485
H        0.98845752      -0.66695000      -1.36420229
H        1.93424793       1.37020046       0.75659915
H        2.95107575       0.02606619       0.02731411
H        0.42901162      -0.23306775       1.47974754
13
Frame=3 idx=003310 GeodesicLength=0.16101064330196085 rxn_smarts="[C:1]([C:2]#[C:3][C@@:4]1([H:10])[C:5]([H:11])([H:12])[N:6]1[H:13])([H:7])([H:8])[H:9]>>[C:1]([C:2](=[C:3])[C@@:4]1([H:10])[C:5]([H:11])([H:12])[N:6]1[H:13])([H:7])([H:8])[H:9]"
C       -2.06033358      -0.36193591      -0.08842290
C       -0.94183175       0.48712098      -0.49010745
C       -0.13845088       1.34216432      -0.91929935
C        0.81846872      -0.00816911      -0.52732264
C        1.97628081       0.39089347       0.30990052
N        1.07641855      -0.63848249       0.78334544
H       -2.98371327       0.20022869      -0.23439534
H       -1.99193239      -0.64640027       0.96279980
H       -2.10620446      -1.26693510      -0.69602309
H        1.00456690      -0.67155216      -1.36263976
H        1.92942965       1.37549219       0.75879081
H        2.96356372       0.05082178       0.01892373
H        0.45373796      -0.25324641       1.48445022
13
Frame=4 idx=003310 GeodesicLength=0.2142051157318163 rxn_smarts="[C:1]([C:2]#[C:3][C@@:4]1([H:10])[C:5]([H:11])([H:12])[N:6]1[H:13])([H:7])([H:8])[H:9]>>[C:1]([C:2](=[C:3])[C@@:4]1([H:10])[C:5]([H:11])([H:12])[N:6]1[H:13])([H:7])([H:8])[H:9]"
C       -2.07979073      -0.35769033      -0.09170716
C       -0.94372748       0.47125185      -0.48764808
C       -0.14268272       1.33205740      -0.90602358
C        0.82727863      -0.01740665      -0.52313047
C        1.98459057       0.39886790       0.30709739
N        1.10397790      -0.64670887       0.78272489
H       -2.99474021       0.21376417      -0.25384700
H       -2.02554828      -0.63190585       0.96319745
H       -2.12991245      -1.26883557      -0.68976589
H        1.02066871      -0.67565745      -1.36133065
H        1.92460957       1.38033130       0.76138453
H        2.97573558       0.07605915       0.00994059
H        0.47954091      -0.27412707       1.48910797
13
Frame=5 idx=003310 GeodesicLength=0.26719389405610844 rxn_smarts="[C:1]([C:2]#[C:3][C@@:4]1([H:10])[C:5]([H:11])([H:12])[N:6]1[H:13])([H:7])([H:8])[H:9]>>[C:1]([C:2](=[C:3])[C@@:4]1([H:10])[C:5]([H:11])([H:12])[N:6]1[H:13])([H:7])([H:8])[H:9]"
C       -2.09948299      -0.35327859      -0.09508258
C       -0.94569802       0.45487052      -0.48449464
C       -0.14725531       1.32166539      -0.89180726
C        0.83621033      -0.02668523      -0.51880732
C        1.99289796       0.40686174       0.30416871
N        1.13233262      -0.65505321       0.78177821
H       -3.00558718       0.22692723      -0.27520287
H       -2.06069734      -0.61571324       0.96368329
H       -2.15332457      -1.27116706      -0.68248053
H        1.03673062      -0.67931531      -1.36021556
H        1.91980637       1.38474602       0.76433856
H        2.98757162       0.10177824       0.00037132
H        0.50649589      -0.29563649       1.49375067
13
Frame=6 idx=003310 GeodesicLength=0.31998685633690926 rxn_smarts="[C:1]([C:2]#[C:3][C@@:4]1([H:10])[C:5]([H:11])([H:12])[N:6]1[H:13])([H:7])([H:8])[H:9]>>[C:1]([C:2](=[C:3])[C@@:4]1([H:10])[C:5]([H:11])([H:12])[N:6]1[H:13])([H:7])([H:8])[H:9]"
C       -2.11941637      -0.34870442      -0.09856673
C       -0.94776082       0.43798826      -0.48051756
C       -0.15218213       1.31095132      -0.87657201
C        0.84524501      -0.03601607      -0.51431347
C        2.00121040       0.41487205       0.30110277
N        1.16152297      -0.66348454       0.78050988
H       -3.01613070       0.23961970      -0.29852098
H       -2.09745145      -0.59778591       0.96407174
H       -2.17650922      -1.27388588      -0.67414987
H        1.05267153      -0.68254403      -1.35925882
H        1.91507198       1.38872638       0.76765610
H        2.99902549       0.12800217      -0.00983307
H        0.53470332      -0.31773902       1.49839202
13
Frame=7 idx=003310 GeodesicLength=0.3725800676529934 rxn_smarts="[C:1]([C:2]#[C:3][C@@:4]1([H:10])[C:5]([H:11])([H:12])[N:6]1[H:13])([H:7])([H:8])[H:9]>>[C:1]([C:2](=[C:3])[C@@:4]1([H:10])[C:5]([H:11])([H:12])[N:6]1[H:13])([H:7])([H:8])[H:9]"
C       -2.13959331      -0.34398279      -0.10221225
C       -0.94992920       0.42061016      -0.47557273
C       -0.15746819       1.29987208      -0.86025061
C        0.85436260      -0.04541724      -0.50959337
C        2.00953075       0.42290875       0.29788565
N        1.19158199      -0.67193825       0.77896058
H       -3.02631014       0.25182085      -0.32376598
H       -2.13581897      -0.57821706       0.96418801
H       -2.19953572      -1.27692059      -0.66489565
H        1.06839749      -0.68539173      -1.35838414
H        1.91046577       1.39228811       0.77127906
H        3.01005101       0.15470658      -0.02071580
H        0.56426593      -0.34033889       1.50307722
13
Frame=8 idx=003310 GeodesicLength=0.42496358670502066 rxn_smarts="[C:1]([C:2]#[C:3][C@@:4]1([H:10])[C:5]([H:11])([H:12])[N:6]1[H:13])([H:7])([H:8])[H:9]>>[C:1]([C:2](=[C:3])[C@@:4]1([H:10])[C:5]([H:11])([H:12])[N:6]1[H:13])([H:7])([H:8])[H:9]"
C       -2.16001206      -0.33912940      -0.10605914
C       -0.95222103       0.40275682      -0.46950104
C       -0.16311817       1.28839950      -0.84274831
C        0.86353664      -0.05489447      -0.50459698
C        2.01786131       0.43097259       0.29449823
N        1.22254118      -0.68036961       0.77713797
H       -3.03601129       0.26343198      -0.35097529
H       -2.17585415      -0.55700326       0.96385016
H       -2.22247390      -1.28022220      -0.65475531
H        1.08380178      -0.68787867      -1.35753666
H        1.90605919       1.39542693       0.77518922
H        3.02059095       0.18187877      -0.03233000
H        0.59529954      -0.36336900       1.50782716
13
Frame=9 idx=003310 GeodesicLength=0.4771151622313443 rxn_smarts="[C:1]([C:2]#[C:3][C@@:4]1([H:10])[C:5]([H:11])([H:12])[N:6]1[H:13])([H:7])([H:8])[H:9]>>[C:1]([C:2](=[C:3])[C@@:4]1([H:10])[C:5]([H:11])([H:12])[N:6]1[H:13])([H:7])([H:8])[H:9]"
C       -2.18064986      -0.33413669      -0.11010254
C       -0.95474074       0.38463830      -0.46183044
C       -0.16922339       1.27671695      -0.82362877
C        0.87263043      -0.06434765      -0.49928130
C        2.02622569       0.43898393       0.29087681
N        1.25444799      -0.68883268       0.77487960
H       -3.04483390       0.27388757      -0.38090761
H       -2.21810655      -0.53356868       0.96272149
H       -2.24489302      -1.28402032      -0.64311342
H        1.09851205      -0.68983138      -1.35679658
H        1.90206873       1.39800557       0.77946835
H        3.03055580       0.20940228      -0.04488321
H        0.62800678      -0.38689722       1.51259762
13
Frame=10 idx=003310 GeodesicLength=0.5289947793528267 rxn_smarts="[C:1]([C:2]#[C:3][C@@:4]1([H:10])[C:5]([H:11])([H:12])[N:6]1[H:13])([H:7])([H:8])[H:9]>>[C:1]([C:2](=[C:3])[C@@:4]1([H:10])[C:5]([H:11])([H:12])[N:6]1[H:13])([H:7])([H:8])[H:9]"
C       -2.20151188      -0.32904597      -0.11445900
C       -0.95743576       0.36609643      -0.45258762
C       -0.17570820       1.26458863      -0.80306901
C        0.88169246      -0.07389819      -0.49353972
C        2.03460784       0.44702430       0.28701929
N        1.28730861      -0.69714729       0.77240466
H       -3.05297675       0.28365753      -0.41287010
H       -2.26211214      -0.50863984       0.96073424
H       -2.26727377      -1.28797377      -0.63081579
H        1.11259086      -0.69151688      -1.35590819
H        1.89846382       1.40018679       0.78390684
H        3.03991701       0.23731633      -0.05834012
H        0.66243789      -0.41064806       1.51752452
13
Frame=11 idx=003310 GeodesicLength=0.5806444968951978 rxn_smarts="[C:1]([C:2]#[C:3][C@@:4]1([H:10])[C:5]([H:11])([H:12])[N:6]1[H:13])([H:7])([H:8])[H:9]>>[C:1]([C:2](=[C:3])[C@@:4]1([H:10])[C:5]([H:11])([H:12])[N:6]1[H:13])([H:7])([H:8])[H:9]"
C       -2.22257122      -0.32385665      -0.11910325
C       -0.96038586       0.34730270      -0.44154867
C       -0.18262410       1.25217135      -0.78080493
C        0.89065340      -0.08347094      -0.48737944
C        2.04301395       0.45502544       0.28291545
N        1.32113177      -0.70538809       0.76955117
H       -3.06016148       0.29229997      -0.44737449
H       -2.30820627      -0.48174900       0.95770564
H       -2.28937413      -1.29225458      -0.61735336
H        1.12585113      -0.69278126      -1.35499939
H        1.89535533       1.40185668       0.78866486
H        3.04861125       0.26555505      -0.07282897
H        0.69870623      -0.43471067       1.52255537
13
Frame=12 idx=003310 GeodesicLength=0.6319912786271052 rxn_smarts="[C:1]([C:2]#[C:3][C@@:4]1([H:10])[C:5]([H:11])([H:12])[N:6]1[H:13])([H:7])([H:8])[H:9]>>[C:1]([C:2](=[C:3])[C@@:4]1([H:10])[C:5]([H:11])([H:12])[N:6]1[H:13])([H:7])([H:8])[H:9]"
C       -2.24382317      -0.31860908      -0.12418378
C       -0.96360328       0.32821473      -0.42838188
C       -0.18995126       1.23932176      -0.75673974
C        0.89945792      -0.09314185      -0.48062316
C        2.05145178       0.46303080       0.27848590
N        1.35594381      -0.71336099       0.76650812
H       -3.06632219       0.30002384      -0.48402932
H       -2.35622518      -0.45350124       0.95326869
H       -2.31142608      -1.29655214      -0.60338399
H        1.13807491      -0.69386562      -1.35377893
H        1.89288738       1.40314483       0.79347883
H        3.05655583       0.29404845      -0.08847740
H        0.73697953      -0.45875350       1.52785667
13
Frame=13 idx=003310 GeodesicLength=0.682988707047783 rxn_smarts="[C:1]([C:2]#[C:3][C@@:4]1([H:10])[C:5]([H:11])([H:12])[N:6]1[H:13])([H:7])([H:8])[H:9]>>[C:1]([C:2](=[C:3])[C@@:4]1([H:10])[C:5]([H:11])([H:12])[N:6]1[H:13])([H:7])([H:8])[H:9]"
C       -2.26523302      -0.31334438      -0.12982118
C       -0.96713813       0.30888325      -0.41267109
C       -0.19770323       1.22600617      -0.73067063
C        0.90801363      -0.10294446      -0.47309691
C        2.05993265       0.47104201       0.27364190
N        1.39176027      -0.72091507       0.76340374
H       -3.07125586       0.30680822      -0.52262492
H       -2.40615436      -0.42430263       0.94695983
H       -2.33353966      -1.30061248      -0.58934907
H        1.14896892      -0.69494434      -1.35202211
H        1.89124965       1.40413832       0.79815285
H        3.06365263       0.32266321      -0.10548692
H        0.77744651      -0.48247782       1.53358452
13
Frame=14 idx=003310 GeodesicLength=0.7336823189288617 rxn_smarts="[C:1]([C:2]#[C:3][C@@:4]1([H:10])[C:5]([H:11])([H:12])[N:6]1[H:13])([H:7])([H:8])[H:9]>>[C:1]([C:2](=[C:3])[C@@:4]1([H:10])[C:5]([H:11])([H:12])[N:6]1[H:13])([H:7])([H:8])[H:9]"
C       -2.28676702      -0.30807493      -0.13597280
C       -0.97108177       0.28951998      -0.39409738
C       -0.20591755       1.21243137      -0.70216754
C        0.91622529      -0.11276678      -0.46480823
C        2.06845709       0.47898604       0.26836372
N        1.42857849      -0.72818716       0.75995954
H       -3.07455701       0.31214438      -0.56392699
H       -2.45849566      -0.39347484       0.93862856
H       -2.35536839      -1.30477547      -0.57455972
H        1.15828148      -0.69577499      -1.34989575
H        1.89059112       1.40469264       0.80290722
H        3.06980822       0.35136137      -0.12403292
H        0.82024572      -0.50608161       1.53960228
13
Frame=15 idx=003310 GeodesicLength=0.7840292274106184 rxn_smarts="[C:1]([C:2]#[C:3][C@@:4]1([H:10])[C:5]([H:11])([H:12])[N:6]1[H:13])([H:7])([H:8])[H:9]>>[C:1]([C:2](=[C:3])[C@@:4]1([H:10])[C:5]([H:11])([H:12])[N:6]1[H:13])([H:7])([H:8])[H:9]"
C       -2.30836692      -0.30283105      -0.14272307
C       -0.97551120       0.27027054      -0.37217043
C       -0.21461455       1.19868062      -0.67083658
C        0.92396078      -0.12257409      -0.45562176
C        2.07702127       0.48683032       0.26256279
N        1.46638425      -0.73513229       0.75613319
H       -3.07586582       0.31579292      -0.60812464
H       -2.51342303      -0.36102126       0.92784586
H       -2.37680167      -1.30902542      -0.55904391
H        1.16563745      -0.69636753      -1.34729151
H        1.89112802       1.40480523       0.80767635
H        3.07488871       0.38001596      -0.14434989
H        0.86556271      -0.52944395       1.54594361
13
Frame=16 idx=003310 GeodesicLength=0.8340053256960259 rxn_smarts="[C:1]([C:2]#[C:3][C@@:4]1([H:10])[C:5]([H:11])([H:12])[N:6]1[H:13])([H:7])([H:8])[H:9]>>[C:1]([C:2](=[C:3])[C@@:4]1([H:10])[C:5]([H:11])([H:12])[N:6]1[H:13])([H:7])([H:8])[H:9]"
C       -2.32996806      -0.29769008      -0.15022167
C       -0.98051008       0.25124188      -0.34635933
C       -0.22380778       1.18475871      -0.63638984
C        0.93106965      -0.13240934      -0.44529466
C        2.08563416       0.49457840       0.25610707
N        1.50515668      -0.74155270       0.75208628
H       -3.07478214       0.31787982      -0.65476682
H       -2.57087161      -0.32766544       0.91403463
H       -2.39802117      -1.31307738      -0.54356995
H        1.17060771      -0.69700224      -1.34388613
H        1.89313671       1.40463989       0.81216044
H        3.07876110       0.40839483      -0.16671095
H        0.91359483      -0.55209634       1.55281094
