11
Frame=0 idx=002410 GeodesicLength=0.0 rxn_smarts="[C:1]1([H:6])([H:7])[C@@:2]2([H:8])[C:3]([H:9])([H:10])[O:4][C@@:5]12[H:11]>>[C:1]1([H:6])([H:7])[C:2][C:3]([H:9])([H:10])[O:4][C:5]1([H:8])[H:11]"
C       -1.06650615      -0.54247509      -0.04355745
C        0.08117595      -0.55425392       0.94099717
C        1.27728353      -0.29276529       0.00716162
O        0.72908229       0.72331345      -0.85326192
C       -0.48272022       0.82959745      -0.15582234
H       -2.05046455      -0.61707600       0.40967648
H       -0.96602574      -1.11409322      -0.96259675
H       -0.15104813       0.93928728       1.01391385
H        1.56514790      -1.19976484      -0.53671685
H        2.15101493       0.11359752       0.51962241
H       -1.08693986       1.71463270      -0.33941618
11
Frame=1 idx=002410 GeodesicLength=0.05157201282798195 rxn_smarts="[C:1]1([H:6])([H:7])[C@@:2]2([H:8])[C:3]([H:9])([H:10])[O:4][C@@:5]12[H:11]>>[C:1]1([H:6])([H:7])[C:2][C:3]([H:9])([H:10])[O:4][C:5]1([H:8])[H:11]"
C       -1.06829447      -0.53983402      -0.04362828
C        0.08369050      -0.55604375       0.93322148
C        1.27833310      -0.29492932       0.00287981
O        0.73022184       0.72284990      -0.85500135
C       -0.48163169       0.83192058      -0.15561293
H       -2.05018427      -0.61405199       0.41408551
H       -0.97155863      -1.11841833      -0.95901944
H       -0.15569160       0.94009818       1.03111706
H        1.57497818      -1.19734837      -0.54314651
H        2.14630964       0.11189068       0.52612899
H       -1.08617260       1.71386645      -0.35102433
11
Frame=2 idx=002410 GeodesicLength=0.10313524018727022 rxn_smarts="[C:1]1([H:6])([H:7])[C@@:2]2([H:8])[C:3]([H:9])([H:10])[O:4][C@@:5]12[H:11]>>[C:1]1([H:6])([H:7])[C:2][C:3]([H:9])([H:10])[O:4][C:5]1([H:8])[H:11]"
C       -1.07006450      -0.53714229      -0.04372760
C        0.08616055      -0.55769393       0.92541988
C        1.27938954      -0.29706140      -0.00142911
O        0.73136351       0.72234212      -0.85685754
C       -0.48051296       0.83429690      -0.15547619
H       -2.04986477      -0.61096282       0.41846436
H       -0.97711516      -1.12276273      -0.95534984
H       -0.16051441       0.94062488       1.04860743
H        1.58488341      -1.19485763      -0.54945158
H        2.14156717       0.11015696       0.53245544
H       -1.08529239       1.71305995      -0.36265526
11
Frame=3 idx=002410 GeodesicLength=0.15469413972368884 rxn_smarts="[C:1]1([H:6])([H:7])[C@@:2]2([H:8])[C:3]([H:9])([H:10])[O:4][C@@:5]12[H:11]>>[C:1]1([H:6])([H:7])[C:2][C:3]([H:9])([H:10])[O:4][C:5]1([H:8])[H:11]"
C       -1.07181603      -0.53439771      -0.04385540
C        0.08858710      -0.55920322       0.91759283
C        1.28045276      -0.29916239      -0.00576654
O        0.73250724       0.72178709      -0.85883601
C       -0.47936231       0.83672742      -0.15541633
H       -2.04950600      -0.60780372       0.42281268
H       -0.98269673      -1.12712583      -0.95158350
H       -0.16551962       0.94085341       1.06639347
H        1.59486400      -1.19229423      -0.55562971
H        2.13678903       0.10840374       0.53860031
H       -1.08429943       1.71221544      -0.37431181
11
Frame=4 idx=002410 GeodesicLength=0.20625274938251575 rxn_smarts="[C:1]1([H:6])([H:7])[C@@:2]2([H:8])[C:3]([H:9])([H:10])[O:4][C@@:5]12[H:11]>>[C:1]1([H:6])([H:7])[C:2][C:3]([H:9])([H:10])[O:4][C:5]1([H:8])[H:11]"
C       -1.07354858      -0.53159756      -0.04401181
C        0.09096991      -0.56057045       0.90974127
C        1.28152280      -0.30123260      -0.01013382
O        0.73365329       0.72118257      -0.86094239
C       -0.47817814       0.83921417      -0.15543674
H       -2.04910733      -0.60456977       0.42713059
H       -0.98830531      -1.13150568      -0.94771605
H       -0.17071081       0.94076967       1.08448488
H        1.60491993      -1.18965941      -0.56167861
H        2.13197733       0.10663784       0.54456135
H       -1.08319309       1.71133122      -0.38599865
11
Frame=5 idx=002410 GeodesicLength=0.25790298844192805 rxn_smarts="[C:1]1([H:6])([H:7])[C@@:2]2([H:8])[C:3]([H:9])([H:10])[O:4][C@@:5]12[H:11]>>[C:1]1([H:6])([H:7])[C:2][C:3]([H:9])([H:10])[O:4][C:5]1([H:8])[H:11]"
C       -1.07527969      -0.52873353      -0.04421188
C        0.09336624      -0.56182204       0.90184462
C        1.28259659      -0.30329868      -0.01453616
O        0.73481731       0.72052835      -0.86314713
C       -0.47697950       0.84173172      -0.15553544
H       -2.04867069      -0.60127882       0.43145228
H       -0.99395417      -1.13590436      -0.94374816
H       -0.17610657       0.94043364       1.10289073
H        1.61503289      -1.18697750      -0.56766631
H        2.12715233       0.10488881       0.55041338
H       -1.08197472       1.71043241      -0.39775593
11
Frame=6 idx=002410 GeodesicLength=0.3093441788599989 rxn_smarts="[C:1]1([H:6])([H:7])[C@@:2]2([H:8])[C:3]([H:9])([H:10])[O:4][C@@:5]12[H:11]>>[C:1]1([H:6])([H:7])[C:2][C:3]([H:9])([H:10])[O:4][C:5]1([H:8])[H:11]"
C       -1.07695869      -0.52581393      -0.04439935
C        0.09562657      -0.56287071       0.89394751
C        1.28368579      -0.30528156      -0.01896466
O        0.73594585       0.71981046      -0.86555451
C       -0.47569614       0.84436905      -0.15571698
H       -2.04818932      -0.59784833       0.43569666
H       -0.99961749      -1.14030070      -0.93965615
H       -0.18167146       0.93956532       1.12162140
H        1.62526630      -1.18416701      -0.57338873
H        2.12224992       0.10309109       0.55594357
H       -1.08064132       1.70944632      -0.40952876
11
Frame=7 idx=002410 GeodesicLength=0.3609095994565029 rxn_smarts="[C:1]1([H:6])([H:7])[C@@:2]2([H:8])[C:3]([H:9])([H:10])[O:4][C@@:5]12[H:11]>>[C:1]1([H:6])([H:7])[C:2][C:3]([H:9])([H:10])[O:4][C:5]1([H:8])[H:11]"
C       -1.07863472      -0.52282838      -0.04463676
C        0.09789251      -0.56379939       0.88601529
C        1.28477747      -0.30726218      -0.02342958
O        0.73709517       0.71903506      -0.86807826
C       -0.47439762       0.84703407      -0.15600150
H       -2.04767045      -0.59435088       0.43993237
H       -1.00532060      -1.14471997      -0.93545292
H       -0.18744996       0.93842874       1.14068500
H        1.63555673      -1.18131755      -0.57903706
H        2.11734248       0.10133076       0.56134868
H       -1.07919100       1.70844973      -0.42134525
11
Frame=8 idx=002410 GeodesicLength=0.41247914980026773 rxn_smarts="[C:1]1([H:6])([H:7])[C@@:2]2([H:8])[C:3]([H:9])([H:10])[O:4][C@@:5]12[H:11]>>[C:1]1([H:6])([H:7])[C:2][C:3]([H:9])([H:10])[O:4][C:5]1([H:8])[H:11]"
C       -1.08029128      -0.51977654      -0.04490069
C        0.10012198      -0.56457478       0.87805756
C        1.28587516      -0.30921382      -0.02792830
O        0.73824608       0.71819648      -0.87075279
C       -0.47305835       0.84976154      -0.15638667
H       -2.04711203      -0.59075673       0.44413919
H       -1.01105628      -1.14915231      -0.93112641
H       -0.19342928       0.93690520       1.16008831
H        1.64592345      -1.17839989      -0.58454464
H        2.11240661       0.09958757       0.56656354
H       -1.07762607       1.70742327      -0.43320908
11
Frame=9 idx=002410 GeodesicLength=0.4640495954022115 rxn_smarts="[C:1]1([H:6])([H:7])[C@@:2]2([H:8])[C:3]([H:9])([H:10])[O:4][C@@:5]12[H:11]>>[C:1]1([H:6])([H:7])[C:2][C:3]([H:9])([H:10])[O:4][C:5]1([H:8])[H:11]"
C       -1.08192696      -0.51665465      -0.04519180
C        0.10231476      -0.56518904       0.87007653
C        1.28697925      -0.31113575      -0.03246275
O        0.73939849       0.71729083      -0.87358715
C       -0.47167633       0.85255353      -0.15688024
H       -2.04651266      -0.58705886       0.44831531
H       -1.01682557      -1.15359638      -0.92666875
H       -0.19961560       0.93496986       1.17984007
H        1.65636536      -1.17541578      -0.58990588
H        2.10744367       0.09786986       0.57158422
H       -1.07594441       1.70636638      -0.44511957
11
Frame=10 idx=002410 GeodesicLength=0.5156283347411875 rxn_smarts="[C:1]1([H:6])([H:7])[C@@:2]2([H:8])[C:3]([H:9])([H:10])[O:4][C@@:5]12[H:11]>>[C:1]1([H:6])([H:7])[C:2][C:3]([H:9])([H:10])[O:4][C:5]1([H:8])[H:11]"
C       -1.08354232      -0.51346042      -0.04550917
C        0.10447212      -0.56564360       0.86207239
C        1.28808945      -0.31302872      -0.03703345
O        0.74055232       0.71631569      -0.87658489
C       -0.47025048       0.85541025      -0.15748784
H       -2.04587333      -0.58325081       0.45246243
H       -1.02262999      -1.15805064      -0.92207456
H       -0.20600868       0.93260511       1.19995163
H        1.66688319      -1.17236512      -0.59511939
H        2.10245552       0.09618577       0.57640989
H       -1.07414782       1.70528249      -0.45708704
11
Frame=11 idx=002410 GeodesicLength=0.5672131084156521 rxn_smarts="[C:1]1([H:6])([H:7])[C@@:2]2([H:8])[C:3]([H:9])([H:10])[O:4][C@@:5]12[H:11]>>[C:1]1([H:6])([H:7])[C:2][C:3]([H:9])([H:10])[O:4][C:5]1([H:8])[H:11]"
C       -1.08513681      -0.51018994      -0.04585241
C        0.10659497      -0.56593322       0.85404552
C        1.28920569      -0.31489208      -0.04164154
O        0.74170748       0.71526782      -0.87975306
C       -0.46877909       0.85833440      -0.15821611
H       -2.04519323      -0.57932512       0.45658095
H       -1.02847136      -1.16251246      -0.91733616
H       -0.21261287       0.92978554       1.22043288
H        1.67747661      -1.16924779      -0.60018044
H        2.09744351       0.09454289       0.58103754
H       -1.07223489       1.70416996      -0.46911717
11
Frame=12 idx=002410 GeodesicLength=0.6188015220975492 rxn_smarts="[C:1]1([H:6])([H:7])[C@@:2]2([H:8])[C:3]([H:9])([H:10])[O:4][C@@:5]12[H:11]>>[C:1]1([H:6])([H:7])[C:2][C:3]([H:9])([H:10])[O:4][C:5]1([H:8])[H:11]"
C       -1.08671024      -0.50683994      -0.04622097
C        0.10868454      -0.56605355       0.84599758
C        1.29032798      -0.31672608      -0.04628837
O        0.74286393       0.71414373      -0.88309839
C       -0.46726034       0.86132729      -0.15907248
H       -2.04447280      -0.57527413       0.46067068
H       -1.03435023      -1.16698091      -0.91244541
H       -0.21943086       0.92648559       1.24129352
H        1.68814507      -1.16606491      -0.60508569
H        2.09240878       0.09295080       0.58546528
H       -1.07020584       1.70303212      -0.48121576
11
Frame=13 idx=002410 GeodesicLength=0.6703904321887365 rxn_smarts="[C:1]1([H:6])([H:7])[C@@:2]2([H:8])[C:3]([H:9])([H:10])[O:4][C@@:5]12[H:11]>>[C:1]1([H:6])([H:7])[C:2][C:3]([H:9])([H:10])[O:4][C:5]1([H:8])[H:11]"
C       -1.08826274      -0.50340716      -0.04661440
C        0.11074175      -0.56599970       0.83793071
C        1.29145630      -0.31853055      -0.05097492
O        0.74402166       0.71293961      -0.88662754
C       -0.46569265       0.86439015      -0.16006504
H       -2.04371313      -0.57108975       0.46473112
H       -1.04026669      -1.17145562      -0.90739416
H       -0.22646475       0.92267867       1.26254337
H        1.69888831      -1.16281722      -0.60983066
H        2.08735350       0.09141854       0.58968991
H       -1.06806155       1.70187303      -0.49338838
11
Frame=14 idx=002410 GeodesicLength=0.7219774940712042 rxn_smarts="[C:1]1([H:6])([H:7])[C@@:2]2([H:8])[C:3]([H:9])([H:10])[O:4][C@@:5]12[H:11]>>[C:1]1([H:6])([H:7])[C:2][C:3]([H:9])([H:10])[O:4][C:5]1([H:8])[H:11]"
C       -1.08979401      -0.49988735      -0.04703192
C        0.11276780      -0.56576633       0.82984555
C        1.29259050      -0.32030478      -0.05570180
O        0.74518075       0.71165213      -0.89034728
C       -0.46407444       0.86752546      -0.16120197
H       -2.04291356      -0.56676304       0.46876380
H       -1.04622242      -1.17593354      -0.90217323
H       -0.23371745       0.91833400       1.28419348
H        1.70970547      -1.15950454      -0.61441151
H        2.08227868       0.08995554       0.59370954
H       -1.06580131       1.70069246      -0.50564468
11
Frame=15 idx=002410 GeodesicLength=0.7735592451835335 rxn_smarts="[C:1]1([H:6])([H:7])[C@@:2]2([H:8])[C:3]([H:9])([H:10])[O:4][C@@:5]12[H:11]>>[C:1]1([H:6])([H:7])[C:2][C:3]([H:9])([H:10])[O:4][C:5]1([H:8])[H:11]"
C       -1.09130410      -0.49627638      -0.04747282
C        0.11476359      -0.56534698       0.82174465
C        1.29373048      -0.32204792      -0.06046951
O        0.74634117       0.71027748      -0.89426487
C       -0.46240421       0.87073502      -0.16249281
H       -2.04207522      -0.56228427       0.47276818
H       -1.05221746      -1.18041370      -0.89677248
H       -0.24119015       0.91341819       1.30625525
H        1.72059552      -1.15612722      -0.61882320
H        2.07718642       0.08857189       0.59752076
H       -1.06342603       1.69949388      -0.51799315
11
Frame=16 idx=002410 GeodesicLength=0.8251291799466153 rxn_smarts="[C:1]1([H:6])([H:7])[C@@:2]2([H:8])[C:3]([H:9])([H:10])[O:4][C@@:5]12[H:11]>>[C:1]1([H:6])([H:7])[C:2][C:3]([H:9])([H:10])[O:4][C:5]1([H:8])[H:11]"
C       -1.09279308      -0.49257010      -0.04793616
C        0.11673012      -0.56473595       0.81362977
C        1.29487611      -0.32375943      -0.06527861
O        0.74750291       0.70881182      -0.89838690
C       -0.46068054       0.87402074      -0.16394666
H       -2.04119875      -0.55764362       0.47674485
H       -1.05825241      -1.18489411      -0.89118204
H       -0.24888421       0.90789916       1.32873862
H        1.73155749      -1.15268506      -0.62306132
H        2.07207827       0.08727772       0.60112123
H       -1.06093590       1.69827883      -0.53044277
