11
Frame=0 idx=003346 GeodesicLength=0.0 rxn_smarts="[C:1]([N:2]([C:3](=[O:4])[N:5]([H:10])[H:11])[H:9])([H:6])([H:7])[H:8]>>[C:1]([N:2](/[C:3]([O:4][H:11])=[N:5]\[H:10])[H:9])([H:6])([H:7])[H:8]"
C       -1.58703151      -0.15864127      -0.39155396
N       -0.40502480      -0.19095584       0.44112963
C        0.81693989       0.13190345      -0.00266270
O        1.05929450       0.48208169      -1.22088680
N        1.96682732       0.16536820       0.63424170
H       -1.27893019       0.08515686      -1.40544877
H       -2.08470443      -1.13025917      -0.39923303
H       -2.29420596       0.60010808      -0.04902589
H       -0.49864198      -0.43144890       1.41003592
H        2.11097504      -0.07056110       1.60160446
H        2.19450214       0.51724805      -0.61820061
11
Frame=1 idx=003346 GeodesicLength=0.03749722695918469 rxn_smarts="[C:1]([N:2]([C:3](=[O:4])[N:5]([H:10])[H:11])[H:9])([H:6])([H:7])[H:8]>>[C:1]([N:2](/[C:3]([O:4][H:11])=[N:5]\[H:10])[H:9])([H:6])([H:7])[H:8]"
C       -1.58648796      -0.15468942      -0.39004427
N       -0.40851394      -0.16216268       0.44822568
C        0.81245794       0.16677755       0.00391011
O        1.06432783       0.44999208      -1.22930295
N        1.96962614       0.15058483       0.63061230
H       -1.29312215       0.13644794      -1.39571186
H       -2.04212834      -1.14602841      -0.43221661
H       -2.32516703       0.56123135      -0.02306534
H       -0.49618439      -0.42401073       1.41208546
H        2.09291198      -0.05403038       1.60811090
H        2.21227992       0.47588786      -0.63260342
11
Frame=2 idx=003346 GeodesicLength=0.07500579302492119 rxn_smarts="[C:1]([N:2]([C:3](=[O:4])[N:5]([H:10])[H:11])[H:9])([H:6])([H:7])[H:8]>>[C:1]([N:2](/[C:3]([O:4][H:11])=[N:5]\[H:10])[H:9])([H:6])([H:7])[H:8]"
C       -1.58547617      -0.15045451      -0.38863146
N       -0.41148255      -0.13522902       0.45465647
C        0.80964781       0.19378138       0.00778310
O        1.06704421       0.42117573      -1.23558847
N        1.97051380       0.13818961       0.62815419
H       -1.30796830       0.18563799      -1.38469912
H       -2.00052259      -1.15764506      -0.46462719
H       -2.35193702       0.52261980       0.00134965
H       -0.49324383      -0.41742197       1.41325129
H        2.07537279      -0.03503022       1.61401030
H        2.22805186       0.43437627      -0.64565876
11
Frame=3 idx=003346 GeodesicLength=0.11248530035521026 rxn_smarts="[C:1]([N:2]([C:3](=[O:4])[N:5]([H:10])[H:11])[H:9])([H:6])([H:7])[H:8]>>[C:1]([N:2](/[C:3]([O:4][H:11])=[N:5]\[H:10])[H:9])([H:6])([H:7])[H:8]"
C       -1.58412183      -0.14629860      -0.38737054
N       -0.41413692      -0.11026720       0.46061315
C        0.80782340       0.21513928       0.00998156
O        1.06801325       0.39602802      -1.24026720
N        1.97033215       0.12813991       0.62657886
H       -1.32301815       0.23131698      -1.37294348
H       -1.96053923      -1.16579337      -0.49570974
H       -2.37482175       0.48475824       0.02351132
H       -0.49030814      -0.41057468       1.41414912
H        2.05870601      -0.01624553       1.61886982
H        2.24207122       0.39379696      -0.65741288
11
Frame=4 idx=003346 GeodesicLength=0.14995500189866454 rxn_smarts="[C:1]([N:2]([C:3](=[O:4])[N:5]([H:10])[H:11])[H:9])([H:6])([H:7])[H:8]>>[C:1]([N:2](/[C:3]([O:4][H:11])=[N:5]\[H:10])[H:9])([H:6])([H:7])[H:8]"
C       -1.58249551      -0.14237536      -0.38627549
N       -0.41655224      -0.08719379       0.46617077
C        0.80651839       0.23317946       0.01135368
O        1.06759683       0.37515596      -1.24358328
N        1.96957005       0.11841381       0.62538408
H       -1.33816979       0.27370801      -1.36062977
H       -1.92200286      -1.17116870      -0.52570299
H       -2.39444962       0.44741650       0.04361165
H       -0.48754565      -0.40336905       1.41498513
H        2.04291955       0.00312329       1.62287806
H        2.25461083       0.35310987      -0.66819185
11
Frame=5 idx=003346 GeodesicLength=0.18742791409624196 rxn_smarts="[C:1]([N:2]([C:3](=[O:4])[N:5]([H:10])[H:11])[H:9])([H:6])([H:7])[H:8]>>[C:1]([N:2](/[C:3]([O:4][H:11])=[N:5]\[H:10])[H:9])([H:6])([H:7])[H:8]"
C       -1.58063258      -0.13870576      -0.38532105
N       -0.41874314      -0.06579671       0.47136431
C        0.80549055       0.24928905       0.01227916
O        1.06620159       0.35787803      -1.24591719
N        1.96831694       0.10957366       0.62459370
H       -1.35341434       0.31319935      -1.34783867
H       -1.88471729      -1.17419893      -0.55479448
H       -2.41128248       0.41044116       0.06192734
H       -0.48492401      -0.39586709       1.41581495
H        2.02794819       0.02245461       1.62604919
H        2.26575657       0.31173263      -0.67815726
11
Frame=6 idx=003346 GeodesicLength=0.2249071085513079 rxn_smarts="[C:1]([N:2]([C:3](=[O:4])[N:5]([H:10])[H:11])[H:9])([H:6])([H:7])[H:8]>>[C:1]([N:2](/[C:3]([O:4][H:11])=[N:5]\[H:10])[H:9])([H:6])([H:7])[H:8]"
C       -1.57856930      -0.13535773      -0.38450574
N       -0.42078876      -0.04561551       0.47626803
C        0.80464938       0.26407132       0.01295416
O        1.06412912       0.34359457      -1.24752117
N        1.96671670       0.10106549       0.62401859
H       -1.36866493       0.34942943      -1.33494878
H       -1.84866849      -1.17535574      -0.58250715
H       -2.42562635       0.37406166       0.07830079
H       -0.48255960      -0.38749604       1.41685002
H        2.01382620       0.04051019       1.62829323
H        2.27555602       0.27109236      -0.68720198
11
Frame=7 idx=003346 GeodesicLength=0.26242538198796483 rxn_smarts="[C:1]([N:2]([C:3](=[O:4])[N:5]([H:10])[H:11])[H:9])([H:6])([H:7])[H:8]>>[C:1]([N:2](/[C:3]([O:4][H:11])=[N:5]\[H:10])[H:9])([H:6])([H:7])[H:8]"
C       -1.57634040      -0.13220817      -0.38379766
N       -0.42266361      -0.02667526       0.48087769
C        0.80392664       0.27796984       0.01346191
O        1.06161332       0.33171379      -1.24859074
N        1.96481734       0.09340461       0.62371801
H       -1.38402555       0.38335278      -1.32176786
H       -1.81367419      -1.17471481      -0.60946536
H       -2.43780609       0.33798879       0.09328947
H       -0.48027541      -0.37900225       1.41790829
H        2.00036424       0.05823618       1.62988383
H        2.28406371       0.22993450      -0.69551757
11
Frame=8 idx=003346 GeodesicLength=0.2999498017389707 rxn_smarts="[C:1]([N:2]([C:3](=[O:4])[N:5]([H:10])[H:11])[H:9])([H:6])([H:7])[H:8]>>[C:1]([N:2](/[C:3]([O:4][H:11])=[N:5]\[H:10])[H:9])([H:6])([H:7])[H:8]"
C       -1.57396529      -0.12933299      -0.38319143
N       -0.42443745      -0.00853549       0.48523573
C        0.80330759       0.29118254       0.01384844
O        1.05881242       0.32162424      -1.24927426
N        1.96268711       0.08599821       0.62351041
H       -1.39940761       0.41447939      -1.30868811
H       -1.77977558      -1.17268900      -0.63507667
H       -2.44798977       0.30253746       0.10670482
H       -0.47821392      -0.36963986       1.41919716
H        1.98754177       0.07424230       1.63074950
H        2.29144073       0.19013319      -0.70301560
11
Frame=9 idx=003346 GeodesicLength=0.3375108254818666 rxn_smarts="[C:1]([N:2]([C:3](=[O:4])[N:5]([H:10])[H:11])[H:9])([H:6])([H:7])[H:8]>>[C:1]([N:2](/[C:3]([O:4][H:11])=[N:5]\[H:10])[H:9])([H:6])([H:7])[H:8]"
C       -1.57146272      -0.12665521      -0.38267031
N       -0.42609723       0.00880808       0.48934849
C        0.80276729       0.30391668       0.01414461
O        1.05583490       0.31309297      -1.24965316
N        1.96036102       0.07911941       0.62342801
H       -1.41489211       0.44348013      -1.29555667
H       -1.74681296      -1.16933166      -0.65979848
H       -2.45639846       0.26746438       0.11891723
H       -0.47625913      -0.35988979       1.42059135
H        1.97522949       0.08928696       1.63109216
H        2.29772990       0.15070805      -0.70984325
11
Frame=10 idx=003346 GeodesicLength=0.37514655833798494 rxn_smarts="[C:1]([N:2]([C:3](=[O:4])[N:5]([H:10])[H:11])[H:9])([H:6])([H:7])[H:8]>>[C:1]([N:2](/[C:3]([O:4][H:11])=[N:5]\[H:10])[H:9])([H:6])([H:7])[H:8]"
C       -1.56883074      -0.12413036      -0.38223237
N       -0.42764742       0.02546597       0.49323947
C        0.80228904       0.31636426       0.01438159
O        1.05275944       0.30600292      -1.24977652
N        1.95787180       0.07286212       0.62346605
H       -1.43055365       0.47081704      -1.28225553
H       -1.71456849      -1.16469733      -0.68394846
H       -2.46321029       0.23249275       0.13014756
H       -0.47434979      -0.34993786       1.42203136
H        1.96336258       0.10379229       1.63101487
H        2.30287750       0.11096820      -0.71606801
11
Frame=11 idx=003346 GeodesicLength=0.4128131445334358 rxn_smarts="[C:1]([N:2]([C:3](=[O:4])[N:5]([H:10])[H:11])[H:9])([H:6])([H:7])[H:8]>>[C:1]([N:2](/[C:3]([O:4][H:11])=[N:5]\[H:10])[H:9])([H:6])([H:7])[H:8]"
C       -1.56610396      -0.12174704      -0.38185992
N       -0.42910152       0.04148148       0.49691141
C        0.80187428       0.32847377       0.01454350
O        1.04966108       0.29988054      -1.24971909
N        1.95525392       0.06703067       0.62356938
H       -1.44632380       0.49636019      -1.26894624
H       -1.68324448      -1.15892939      -0.70730688
H       -2.46847252       0.19794068       0.14039676
H       -0.47249729      -0.33979120       1.42352156
H        1.95188612       0.11748755       1.63055396
H        2.30706816       0.07181275      -0.72166444
11
Frame=12 idx=003346 GeodesicLength=0.4504644697438636 rxn_smarts="[C:1]([N:2]([C:3](=[O:4])[N:5]([H:10])[H:11])[H:9])([H:6])([H:7])[H:8]>>[C:1]([N:2](/[C:3]([O:4][H:11])=[N:5]\[H:10])[H:9])([H:6])([H:7])[H:8]"
C       -1.56332384      -0.11949019      -0.38153152
N       -0.43047421       0.05688426       0.50036576
C        0.80152392       0.34016465       0.01460838
O        1.04658116       0.29429593      -1.24954078
N        1.95252360       0.06143364       0.62370295
H       -1.46213346       0.52002455      -1.25578116
H       -1.65303473      -1.15218776      -0.72968006
H       -2.47226179       0.16412843       0.14969882
H       -0.47071514      -0.32948809       1.42505419
H        1.94073083       0.13018052       1.62975732
H        2.31058365       0.03405404      -0.72665390
11
Frame=13 idx=003346 GeodesicLength=0.48813728637457227 rxn_smarts="[C:1]([N:2]([C:3](=[O:4])[N:5]([H:10])[H:11])[H:9])([H:6])([H:7])[H:8]>>[C:1]([N:2](/[C:3]([O:4][H:11])=[N:5]\[H:10])[H:9])([H:6])([H:7])[H:8]"
C       -1.56047707      -0.11734704      -0.38125181
N       -0.43177319       0.07178969       0.50362493
C        0.80123007       0.35158307       0.01460584
O        1.04353885       0.28936988      -1.24924324
N        1.94969085       0.05611593       0.62386883
H       -1.47805318       0.54215110      -1.24265060
H       -1.62369763      -1.14452719      -0.75133486
H       -2.47472226       0.13075237       0.15819885
H       -0.46898233      -0.31903992       1.42661496
H        1.92986822       0.14215950       1.62868319
H        2.31337767      -0.00300737      -0.73111610
11
Frame=14 idx=003346 GeodesicLength=0.5258579612997436 rxn_smarts="[C:1]([N:2]([C:3](=[O:4])[N:5]([H:10])[H:11])[H:9])([H:6])([H:7])[H:8]>>[C:1]([N:2](/[C:3]([O:4][H:11])=[N:5]\[H:10])[H:9])([H:6])([H:7])[H:8]"
C       -1.55755184      -0.11530406      -0.38102771
N       -0.43300151       0.08627720       0.50670220
C        0.80098866       0.36283555       0.01455418
O        1.04056096       0.28514621      -1.24883408
N        1.94676721       0.05111560       0.62406556
H       -1.49413793       0.56297888      -1.22947381
H       -1.59507651      -1.13597545      -0.77246029
H       -2.47593534       0.09760051       0.16600004
H       -0.46727836      -0.30846746       1.42818675
H        1.91927674       0.15362744       1.62737207
H        2.31538792      -0.03983442      -0.73508491
11
Frame=15 idx=003346 GeodesicLength=0.5635852598027582 rxn_smarts="[C:1]([N:2]([C:3](=[O:4])[N:5]([H:10])[H:11])[H:9])([H:6])([H:7])[H:8]>>[C:1]([N:2](/[C:3]([O:4][H:11])=[N:5]\[H:10])[H:9])([H:6])([H:7])[H:8]"
C       -1.55459026      -0.11333739      -0.38084080
N       -0.43416599       0.10031512       0.50959592
C        0.80079925       0.37381432       0.01442421
O        1.03766220       0.28125483      -1.24835373
N        1.94376257       0.04633118       0.62428459
H       -1.51032381       0.58245352      -1.21635069
H       -1.56737398      -1.12663230      -0.79292061
H       -2.47595173       0.06496969       0.17313463
H       -0.46560442      -0.29788335       1.42974196
H        1.90890292       0.16451083       1.62585748
H        2.31688326      -0.07579647      -0.73857295
11
Frame=16 idx=003346 GeodesicLength=0.601284114552584 rxn_smarts="[C:1]([N:2]([C:3](=[O:4])[N:5]([H:10])[H:11])[H:9])([H:6])([H:7])[H:8]>>[C:1]([N:2](/[C:3]([O:4][H:11])=[N:5]\[H:10])[H:9])([H:6])([H:7])[H:8]"
C       -1.55162977      -0.11142074      -0.38067652
N       -0.43527219       0.11386505       0.51231139
C        0.80065509       0.38444632       0.01419821
O        1.03484423       0.27744689      -1.24782539
N        1.94068603       0.04172177       0.62453080
H       -1.52655671       0.60059185      -1.20334416
H       -1.54073564      -1.11658924      -0.81264931
H       -2.47484886       0.03308887       0.17965314
H       -0.46394814      -0.28745441       1.43123759
H        1.89870443       0.17485763       1.62417298
H        2.31810153      -0.11055399      -0.74160873
