13
Frame=0 idx=002744 GeodesicLength=0.0 rxn_smarts="[C:1]1([H:7])([H:8])[N:2]([H:9])[C@:3]1([C@@:4]1([H:11])[C:5]([H:12])([H:13])[O:6]1)[H:10]>>[C-:1]1([H:7])[N+:2]([H:8])([H:9])[C@:3]1([C@@:4]1([H:11])[C:5]([H:12])([H:13])[O:6]1)[H:10]"
C       -1.82988022      -0.60953408      -0.38473157
N       -1.20857631       0.90706469       0.27630369
C       -0.57848598       0.08985690      -0.75532228
C        0.74764484      -0.49042188      -0.36099729
C        1.76230683       0.27924819       0.35020143
O        0.96496607      -0.69079466       1.02466862
H       -1.60558512      -1.32119668       0.42001219
H       -2.30295577       0.59892190       0.09224970
H       -0.85353254       0.63532997       1.18945871
H       -0.53913126       0.58433197      -1.72450898
H        1.07702385      -1.31463296      -0.98973209
H        2.81113242       0.01982631       0.24675263
H        1.55507316       1.31200033       0.61564524
13
Frame=1 idx=002744 GeodesicLength=0.054809489020586556 rxn_smarts="[C:1]1([H:7])([H:8])[N:2]([H:9])[C@:3]1([C@@:4]1([H:11])[C:5]([H:12])([H:13])[O:6]1)[H:10]>>[C-:1]1([H:7])[N+:2]([H:8])([H:9])[C@:3]1([C@@:4]1([H:11])[C:5]([H:12])([H:13])[O:6]1)[H:10]"
C       -1.82835808      -0.60414152      -0.37605457
N       -1.21272430       0.89629483       0.27978766
C       -0.57598334       0.08848851      -0.75451272
C        0.75067098      -0.49100848      -0.36152657
C        1.76525832       0.27911755       0.34942159
O        0.96941835      -0.69201807       1.02387443
H       -1.60795496      -1.32322437       0.42240914
H       -2.32113568       0.60977864       0.07634237
H       -0.85181400       0.63362114       1.19291012
H       -0.53944528       0.58526269      -1.72253292
H        1.08042020      -1.31453631      -0.99099688
H        2.81427958       0.02087428       0.24489505
H        1.55736821       1.31149110       0.61598331
13
Frame=2 idx=002744 GeodesicLength=0.1095839426365386 rxn_smarts="[C:1]1([H:7])([H:8])[N:2]([H:9])[C@:3]1([C@@:4]1([H:11])[C:5]([H:12])([H:13])[O:6]1)[H:10]>>[C-:1]1([H:7])[N+:2]([H:8])([H:9])[C@:3]1([C@@:4]1([H:11])[C:5]([H:12])([H:13])[O:6]1)[H:10]"
C       -1.82691229      -0.59877839      -0.36742326
N       -1.21696006       0.88560228       0.28333370
C       -0.57356848       0.08716621      -0.75359118
C        0.75362149      -0.49156758      -0.36201914
C        1.76817595       0.27898367       0.34864795
O        0.97378740      -0.69317810       1.02312158
H       -1.61040243      -1.32537611       0.42455151
H       -2.33875483       0.62019168       0.06041068
H       -0.84991369       0.63226566       1.19628536
H       -0.53983229       0.58626534      -1.72042072
H        1.08369226      -1.31443967      -0.99221136
H        2.81737655       0.02185977       0.24304964
H        1.55969043       1.31100525       0.61626525
13
Frame=3 idx=002744 GeodesicLength=0.1643273935601204 rxn_smarts="[C:1]1([H:7])([H:8])[N:2]([H:9])[C@:3]1([C@@:4]1([H:11])[C:5]([H:12])([H:13])[O:6]1)[H:10]>>[C-:1]1([H:7])[N+:2]([H:8])([H:9])[C@:3]1([C@@:4]1([H:11])[C:5]([H:12])([H:13])[O:6]1)[H:10]"
C       -1.82553282      -0.59345060      -0.35885005
N       -1.22125642       0.87500563       0.28692971
C       -0.57123704       0.08589420      -0.75256545
C        0.75649934      -0.49209717      -0.36247771
C        1.77106391       0.27884458       0.34788065
O        0.97807187      -0.69427374       1.02240822
H       -1.61293153      -1.32762695       0.42645109
H       -2.35585148       0.63014148       0.04450039
H       -0.84786199       0.63124834       1.19957228
H       -0.54028433       0.58733667      -1.71818375
H        1.08684497      -1.31434065      -0.99337808
H        2.82042698       0.02277704       0.24121835
H        1.56204852       1.31054116       0.61649435
13
Frame=4 idx=002744 GeodesicLength=0.21904335793897667 rxn_smarts="[C:1]1([H:7])([H:8])[N:2]([H:9])[C@:3]1([C@@:4]1([H:11])[C:5]([H:12])([H:13])[O:6]1)[H:10]>>[C-:1]1([H:7])[N+:2]([H:8])([H:9])[C@:3]1([C@@:4]1([H:11])[C:5]([H:12])([H:13])[O:6]1)[H:10]"
C       -1.82420995      -0.58816249      -0.35034501
N       -1.22558797       0.86452094       0.29056498
C       -0.56898405       0.08467611      -0.75144334
C        0.75930811      -0.49259565      -0.36290506
C        1.77392665       0.27869831       0.34711973
O        0.98227150      -0.69530480       1.02173231
H       -1.61554545      -1.32995277       0.42812089
H       -2.37246765       0.63961253       0.02865012
H       -0.84568695       0.63055309       1.20276124
H       -0.54079365       0.58847395      -1.71583298
H        1.08988379      -1.31423713      -0.99449991
H        2.82343498       0.02362091       0.23940305
H        1.56445064       1.31009700       0.61667398
13
Frame=5 idx=002744 GeodesicLength=0.2737351582277406 rxn_smarts="[C:1]1([H:7])([H:8])[N:2]([H:9])[C@:3]1([C@@:4]1([H:11])[C:5]([H:12])([H:13])[O:6]1)[H:10]>>[C-:1]1([H:7])[N+:2]([H:8])([H:9])[C@:3]1([C@@:4]1([H:11])[C:5]([H:12])([H:13])[O:6]1)[H:10]"
C       -1.82293446      -0.58291701      -0.34191588
N       -1.22993125       0.85416173       0.29423059
C       -0.56680413       0.08351497      -0.75023224
C        0.76205174      -0.49306187      -0.36330388
C        1.77676879       0.27854292       0.34636518
O        0.98638722      -0.69627189       1.02109167
H       -1.61824669      -1.33233066       0.42957487
H       -2.38864792       0.64859341       0.01289001
H       -0.84341401       0.63016305       1.20584532
H       -0.54135288       0.58967494      -1.71337839
H        1.09281435      -1.31412730      -0.99557984
H        2.82640490       0.02438703       0.23760479
H        1.56690435       1.30967068       0.61680781
13
Frame=6 idx=002744 GeodesicLength=0.32840558085004234 rxn_smarts="[C:1]1([H:7])([H:8])[N:2]([H:9])[C@:3]1([C@@:4]1([H:11])[C:5]([H:12])([H:13])[O:6]1)[H:10]>>[C-:1]1([H:7])[N+:2]([H:8])([H:9])[C@:3]1([C@@:4]1([H:11])[C:5]([H:12])([H:13])[O:6]1)[H:10]"
C       -1.82169778      -0.57771579      -0.33356813
N       -1.23426501       0.84393921       0.29791952
C       -0.56469176       0.08241345      -0.74893892
C        0.76473441      -0.49349497      -0.36367676
C        1.77959504       0.27837648       0.34561683
O        0.99042093      -0.69717632       1.02048405
H       -1.62103701      -1.33473928       0.43082757
H       -2.40443821       0.65707595      -0.00275806
H       -0.84106564       0.63006109       1.20882018
H       -0.54195523       0.59093808      -1.71082894
H        1.09564228      -1.31400949      -0.99662103
H        2.82934133       0.02507162       0.23582426
H        1.56941664       1.30925997       0.61689943
13
Frame=7 idx=002744 GeodesicLength=0.3830573408314175 rxn_smarts="[C:1]1([H:7])([H:8])[N:2]([H:9])[C@:3]1([C@@:4]1([H:11])[C:5]([H:12])([H:13])[O:6]1)[H:10]>>[C-:1]1([H:7])[N+:2]([H:8])([H:9])[C@:3]1([C@@:4]1([H:11])[C:5]([H:12])([H:13])[O:6]1)[H:10]"
C       -1.82049205      -0.57255940      -0.32530509
N       -1.23857006       0.83386241       0.30162665
C       -0.56264143       0.08137373      -0.74756935
C        0.76736033      -0.49389440      -0.36402610
C        1.78241012       0.27819715       0.34487445
O        0.99437545      -0.69802009       1.01990718
H       -1.62391763      -1.33715888       0.43189390
H       -2.41988478       0.66505504      -0.01828055
H       -0.83866130       0.63023011       1.21168402
H       -0.54259455       0.59226236      -1.70819227
H        1.09837303      -1.31388216      -0.99762684
H        2.83224893       0.02567160       0.23406139
H        1.57199394       1.30886252       0.61695260
13
Frame=8 idx=002744 GeodesicLength=0.437693799993246 rxn_smarts="[C:1]1([H:7])([H:8])[N:2]([H:9])[C@:3]1([C@@:4]1([H:11])[C:5]([H:12])([H:13])[O:6]1)[H:10]>>[C-:1]1([H:7])[N+:2]([H:8])([H:9])[C@:3]1([C@@:4]1([H:11])[C:5]([H:12])([H:13])[O:6]1)[H:10]"
C       -1.81931007      -0.56744770      -0.31712854
N       -1.24283026       0.82393959       0.30534919
C       -0.56064795       0.08039788      -0.74612960
C        0.76993430      -0.49426062      -0.36435460
C        1.78521890       0.27800309       0.34413800
O        0.99825533      -0.69880655       1.01936014
H       -1.62688854      -1.33957261       0.43278921
H       -2.43503498       0.67252929      -0.03367104
H       -0.83621809       0.63065435       1.21443895
H       -0.54326608       0.59364807      -1.70547696
H        1.10101301      -1.31374579      -0.99860196
H        2.83513300       0.02618390       0.23231558
H        1.57464141       1.30847710       0.61697162
13
Frame=9 idx=002744 GeodesicLength=0.49231219922197655 rxn_smarts="[C:1]1([H:7])([H:8])[N:2]([H:9])[C@:3]1([C@@:4]1([H:11])[C:5]([H:12])([H:13])[O:6]1)[H:10]>>[C-:1]1([H:7])[N+:2]([H:8])([H:9])[C@:3]1([C@@:4]1([H:11])[C:5]([H:12])([H:13])[O:6]1)[H:10]"
C       -1.81814609      -0.56237726      -0.30903755
N       -1.24702809       0.81417435       0.30908401
C       -0.55870575       0.07948823      -0.74462130
C        0.77245839      -0.49459114      -0.36466279
C        1.78802539       0.27779277       0.34340608
O        1.00206171      -0.69953545       1.01883724
H       -1.62995165      -1.34196208       0.43352532
H       -2.44992875       0.67949028      -0.04892925
H       -0.83374766       0.63131521       1.21708176
H       -0.54396293       0.59509455      -1.70268218
H        1.10356231      -1.31359492      -0.99954508
H        2.83799628       0.02660723       0.23058621
H        1.57736685       1.30809823       0.61695753
13
Frame=10 idx=002744 GeodesicLength=0.5469241348823004 rxn_smarts="[C:1]1([H:7])([H:8])[N:2]([H:9])[C@:3]1([C@@:4]1([H:11])[C:5]([H:12])([H:13])[O:6]1)[H:10]>>[C-:1]1([H:7])[N+:2]([H:8])([H:9])[C@:3]1([C@@:4]1([H:11])[C:5]([H:12])([H:13])[O:6]1)[H:10]"
C       -1.81699551      -0.55734741      -0.30103018
N       -1.25115393       0.80457014       0.31283537
C       -0.55681023       0.07864435      -0.74304752
C        0.77493851      -0.49488929      -0.36495196
C        1.79083453       0.27756388       0.34267876
O        1.00580380      -0.70021354       1.01834025
H       -1.63310759      -1.34431338       0.43411997
H       -2.46461236       0.68594789      -0.06407287
H       -0.83126530       0.63219458       1.21962430
H       -0.54467901       0.59660672      -1.69981126
H        1.10602925      -1.31343284      -1.00046212
H        2.84084541       0.02694284       0.22886455
H        1.58017244       1.30772606       0.61691269
13
Frame=11 idx=002744 GeodesicLength=0.6015247362341242 rxn_smarts="[C:1]1([H:7])([H:8])[N:2]([H:9])[C@:3]1([C@@:4]1([H:11])[C:5]([H:12])([H:13])[O:6]1)[H:10]>>[C-:1]1([H:7])[N+:2]([H:8])([H:9])[C@:3]1([C@@:4]1([H:11])[C:5]([H:12])([H:13])[O:6]1)[H:10]"
C       -1.81585216      -0.55235504      -0.29310403
N       -1.25519330       0.79513207       0.31660090
C       -0.55495704       0.07786943      -0.74141219
C        0.77737673      -0.49515297      -0.36522492
C        1.79365008       0.27731542       0.34195557
O        1.00948332      -0.70084238       1.01786471
H       -1.63635476      -1.34661329       0.43458482
H       -2.47912527       0.69189501      -0.07910362
H       -0.82877569       0.63328193       1.22206683
H       -0.54541400       0.59818232      -1.69687004
H        1.10841474      -1.31325573      -1.00135681
H        2.84368285       0.02718617       0.22715514
H        1.58306450       1.30735708       0.61684364
13
Frame=12 idx=002744 GeodesicLength=0.656115191172803 rxn_smarts="[C:1]1([H:7])([H:8])[N:2]([H:9])[C@:3]1([C@@:4]1([H:11])[C:5]([H:12])([H:13])[O:6]1)[H:10]>>[C-:1]1([H:7])[N+:2]([H:8])([H:9])[C@:3]1([C@@:4]1([H:11])[C:5]([H:12])([H:13])[O:6]1)[H:10]"
C       -1.81471232      -0.54739564      -0.28525511
N       -1.25913784       0.78586372       0.32038353
C       -0.55314218       0.07716599      -0.73971760
C        0.77977706      -0.49538230      -0.36548342
C        1.79647650       0.27704530       0.34123566
O        1.01310552      -0.70142594       1.01740942
H       -1.63969197      -1.34885011       0.43493345
H       -2.49350750       0.69733012      -0.09403704
H       -0.82628622       0.63456439       1.22441674
H       -0.54616493       0.59982421      -1.69386166
H        1.11072325      -1.31306321      -1.00223291
H        2.84651371       0.02733459       0.22545555
H        1.58604691       1.30698887       0.61675338
13
Frame=13 idx=002744 GeodesicLength=0.7106972498734465 rxn_smarts="[C:1]1([H:7])([H:8])[N:2]([H:9])[C@:3]1([C@@:4]1([H:11])[C:5]([H:12])([H:13])[O:6]1)[H:10]>>[C-:1]1([H:7])[N+:2]([H:8])([H:9])[C@:3]1([C@@:4]1([H:11])[C:5]([H:12])([H:13])[O:6]1)[H:10]"
C       -1.81357238      -0.54246470      -0.27747852
N       -1.26297825       0.77676675       0.32418654
C       -0.55136178       0.07653590      -0.73796434
C        0.78214206      -0.49557698      -0.36572848
C        1.79931756       0.27675190       0.34051825
O        1.01667511      -0.70196746       1.01697192
H       -1.64311892      -1.35101242       0.43517778
H       -2.50779545       0.70225094      -0.10889276
H       -0.82380086       0.63602929       1.22668076
H       -0.54692898       0.60153487      -1.69078583
H        1.11295622      -1.31285350      -1.00309321
H        2.84934143       0.02738689       0.22376284
H        1.58912423       1.30661851       0.61664505
13
Frame=14 idx=002744 GeodesicLength=0.7652723772007398 rxn_smarts="[C:1]1([H:7])([H:8])[N:2]([H:9])[C@:3]1([C@@:4]1([H:11])[C:5]([H:12])([H:13])[O:6]1)[H:10]>>[C-:1]1([H:7])[N+:2]([H:8])([H:9])[C@:3]1([C@@:4]1([H:11])[C:5]([H:12])([H:13])[O:6]1)[H:10]"
C       -1.81242944      -0.53755705      -0.26976868
N       -1.26670724       0.76784319       0.32801439
C       -0.54961247       0.07598150      -0.73615296
C        0.78447452      -0.49573707      -0.36596130
C        1.80217714       0.27643343       0.33980258
O        1.02019723      -0.70247083       1.01655056
H       -1.64663493      -1.35309025       0.43532968
H       -2.52202414       0.70665445      -0.12369323
H       -0.82132262       0.63766555       1.22886730
H       -0.54770405       0.60331796      -1.68764281
H        1.11511562      -1.31262569      -1.00394127
H        2.85216990       0.02734128       0.22207392
H        1.59230048       1.30624353       0.61652181
13
Frame=15 idx=002744 GeodesicLength=0.8198405360783437 rxn_smarts="[C:1]1([H:7])([H:8])[N:2]([H:9])[C@:3]1([C@@:4]1([H:11])[C:5]([H:12])([H:13])[O:6]1)[H:10]>>[C-:1]1([H:7])[N+:2]([H:8])([H:9])[C@:3]1([C@@:4]1([H:11])[C:5]([H:12])([H:13])[O:6]1)[H:10]"
C       -1.81128158      -0.53266675      -0.26211957
N       -1.27031754       0.75909412       0.33187170
C       -0.54789150       0.07550561      -0.73428261
C        0.78677586      -0.49586164      -0.36618245
C        1.80505915       0.27608831       0.33908780
O        1.02367636      -0.70293897       1.01614260
H       -1.65023960      -1.35507392       0.43539887
H       -2.53622547       0.71053387      -0.13846333
H       -0.81885113       0.63946263       1.23098336
H       -0.54848864       0.60517734      -1.68443006
H        1.11720026      -1.31237758      -1.00477885
H        2.85500250       0.02719608       0.22038643
H        1.59558134       1.30586091       0.61638612
13
Frame=16 idx=002744 GeodesicLength=0.8743996592148513 rxn_smarts="[C:1]1([H:7])([H:8])[N:2]([H:9])[C@:3]1([C@@:4]1([H:11])[C:5]([H:12])([H:13])[O:6]1)[H:10]>>[C-:1]1([H:7])[N+:2]([H:8])([H:9])[C@:3]1([C@@:4]1([H:11])[C:5]([H:12])([H:13])[O:6]1)[H:10]"
C       -1.81012319      -0.52778726      -0.25452487
N       -1.27380251       0.75052367       0.33576089
C       -0.54619488       0.07511193      -0.73235593
C        0.78904913      -0.49594899      -0.36639531
C        1.80796488       0.27571325       0.33837540
O        1.02711399      -0.70337830       1.01574432
H       -1.65392874      -1.35695142       0.43539866
H       -2.55043235       0.71387805      -0.15321806
H       -0.81638607       0.64141624       1.23303526
H       -0.54927959       0.60711606      -1.68115101
H        1.11921227      -1.31210652      -1.00561247
H        2.85784016       0.02694632       0.21870228
H        1.59896691       1.30546699       0.61624083
