13
Frame=0 idx=008356 GeodesicLength=0.0 rxn_smarts="[C:1](#[C:2][C:3]1=[C:4]([H:9])[C:5]([H:10])([H:11])[O:6][C:7]1([H:12])[H:13])[H:8]>>[C:1](=[C:2]=[C:3]1[C-:4]([H:9])[C:5]([H:10])([H:11])[O+:6]=[C:7]1[H:12])([H:8])[H:13]"
C        2.06762036      -0.97191231       0.57729184
C        1.97270515       0.24164938       0.14734493
C        0.58193439       0.45855105      -0.17290505
C       -0.37228600       1.35216945       0.09878477
C       -1.70981369       0.71562005      -0.07614494
O       -1.43800695      -0.59235624      -0.60080590
C       -0.11843753      -0.78377356      -0.58328689
H        2.78059848      -1.67441640       0.98324922
H       -0.23636694       2.35789782       0.46795095
H       -2.26132951       0.62621294       0.86522307
H       -2.35052621       1.21453945      -0.80715058
H        0.22131634      -1.45921037      -1.36188853
H        0.86259216      -1.48497126       0.46233715
13
Frame=1 idx=008356 GeodesicLength=0.07458602904416457 rxn_smarts="[C:1](#[C:2][C:3]1=[C:4]([H:9])[C:5]([H:10])([H:11])[O:6][C:7]1([H:12])[H:13])[H:8]>>[C:1](=[C:2]=[C:3]1[C-:4]([H:9])[C:5]([H:10])([H:11])[O+:6]=[C:7]1[H:12])([H:8])[H:13]"
C        2.08909628      -0.97577629       0.58601988
C        1.96148476       0.23919859       0.17400041
C        0.57476737       0.45094366      -0.15839311
C       -0.37683666       1.35261175       0.10220739
C       -1.71643814       0.72450475      -0.08329984
O       -1.44704346      -0.59100766      -0.59094080
C       -0.12719164      -0.78609562      -0.57604186
H        2.82865775      -1.66790179       0.96027245
H       -0.23676465       2.35966985       0.46597227
H       -2.28063978       0.64467645       0.85159350
H       -2.34523894       1.22273572      -0.82532566
H        0.20348090      -1.46134665      -1.35896047
H        0.87266621      -1.51221276       0.45289584
13
Frame=2 idx=008356 GeodesicLength=0.14904093564414328 rxn_smarts="[C:1](#[C:2][C:3]1=[C:4]([H:9])[C:5]([H:10])([H:11])[O:6][C:7]1([H:12])[H:13])[H:8]>>[C:1](=[C:2]=[C:3]1[C-:4]([H:9])[C:5]([H:10])([H:11])[O+:6]=[C:7]1[H:12])([H:8])[H:13]"
C        2.11112868      -0.98008981       0.59329812
C        1.94985359       0.23550425       0.20070394
C        0.56744726       0.44275398      -0.14393939
C       -0.38107089       1.35278282       0.10548733
C       -1.72279718       0.73337247      -0.09005695
O       -1.45650497      -0.58955946      -0.58065376
C       -0.13641093      -0.78860021      -0.56932293
H        2.87570275      -1.65792029       0.94157981
H       -0.23640670       2.36099739       0.46398238
H       -2.29917103       0.66332046       0.83837489
H       -2.33975446       1.23083886      -0.84271981
H        0.18461257      -1.46301721      -1.35721509
H        0.88337133      -1.54038323       0.44048147
13
Frame=3 idx=008356 GeodesicLength=0.22345297743225354 rxn_smarts="[C:1](#[C:2][C:3]1=[C:4]([H:9])[C:5]([H:10])([H:11])[O:6][C:7]1([H:12])[H:13])[H:8]>>[C:1](=[C:2]=[C:3]1[C-:4]([H:9])[C:5]([H:10])([H:11])[O+:6]=[C:7]1[H:12])([H:8])[H:13]"
C        2.13339071      -0.98443993       0.60097734
C        1.93752609       0.23079692       0.22909328
C        0.55988577       0.43411130      -0.12881079
C       -0.38519529       1.35290988       0.10852453
C       -1.72901989       0.74231662      -0.09685680
O       -1.46627013      -0.58809076      -0.56982710
C       -0.14596615      -0.79131133      -0.56239401
H        2.92299209      -1.64621565       0.92234883
H       -0.23567422       2.36229502       0.46147127
H       -2.31742023       0.68253108       0.82492990
H       -2.33393984       1.23866286      -0.86021626
H        0.16521392      -1.46444141      -1.35557942
H        0.89447718      -1.56912460       0.42633921
13
Frame=4 idx=008356 GeodesicLength=0.29780067761477774 rxn_smarts="[C:1](#[C:2][C:3]1=[C:4]([H:9])[C:5]([H:10])([H:11])[O:6][C:7]1([H:12])[H:13])[H:8]>>[C:1](=[C:2]=[C:3]1[C-:4]([H:9])[C:5]([H:10])([H:11])[O+:6]=[C:7]1[H:12])([H:8])[H:13]"
C        2.15609240      -0.98896333       0.60793539
C        1.92459222       0.22481945       0.25823764
C        0.55211443       0.42491588      -0.11352642
C       -0.38904474       1.35286254       0.11127035
C       -1.73502509       0.75128502      -0.10340564
O       -1.47644803      -0.58655306      -0.55847629
C       -0.15598145      -0.79425110      -0.55568466
H        2.96980730      -1.63178502       0.90577379
H       -0.23425734       2.36329535       0.45868263
H       -2.33500123       0.70211974       0.81172716
H       -2.32794878       1.24628544      -0.87723517
H        0.14488078      -1.46550387      -1.35468743
H        0.90621954      -1.59852704       0.40938863
13
Frame=5 idx=008356 GeodesicLength=0.37207590972066273 rxn_smarts="[C:1](#[C:2][C:3]1=[C:4]([H:9])[C:5]([H:10])([H:11])[O:6][C:7]1([H:12])[H:13])[H:8]>>[C:1](=[C:2]=[C:3]1[C-:4]([H:9])[C:5]([H:10])([H:11])[O+:6]=[C:7]1[H:12])([H:8])[H:13]"
C        2.17910702      -0.99350251       0.61483508
C        1.91086301       0.21755235       0.28885319
C        0.54409599       0.41518377      -0.09783414
C       -0.39265792       1.35269326       0.11367051
C       -1.74083347       0.76030612      -0.10986401
O       -1.48699504      -0.58496165      -0.54655190
C       -0.16642458      -0.79745009      -0.54890960
H        3.01653177      -1.61509872       0.89010635
H       -0.23223736       2.36409695       0.45543071
H       -2.35205895       0.72223377       0.79853399
H       -2.32170258       1.25362636      -0.89409087
H        0.12376844      -1.46628873      -1.35413207
H        0.91854367      -1.62839090       0.38995275
13
Frame=6 idx=008356 GeodesicLength=0.44627535095304044 rxn_smarts="[C:1](#[C:2][C:3]1=[C:4]([H:9])[C:5]([H:10])([H:11])[O:6][C:7]1([H:12])[H:13])[H:8]>>[C:1](=[C:2]=[C:3]1[C-:4]([H:9])[C:5]([H:10])([H:11])[O+:6]=[C:7]1[H:12])([H:8])[H:13]"
C        2.20249127      -0.99802180       0.62135393
C        1.89630223       0.20882915       0.32069336
C        0.53584505       0.40487717      -0.08198196
C       -0.39594759       1.35235365       0.11564524
C       -1.74640859       0.76936156      -0.11612179
O       -1.49795641      -0.58329268      -0.53405148
C       -0.17735719      -0.80094164      -0.54219324
H        3.06292239      -1.59584812       0.87646122
H       -0.22946254       2.36459234       0.45175654
H       -2.36840796       0.74281817       0.78555401
H       -2.31529152       1.26069937      -0.91056009
H        0.10169750      -1.46679903      -1.35407696
H        0.93157337      -1.65862813       0.36752122
13
Frame=7 idx=008356 GeodesicLength=0.5204085868646606 rxn_smarts="[C:1](#[C:2][C:3]1=[C:4]([H:9])[C:5]([H:10])([H:11])[O:6][C:7]1([H:12])[H:13])[H:8]>>[C:1](=[C:2]=[C:3]1[C-:4]([H:9])[C:5]([H:10])([H:11])[O+:6]=[C:7]1[H:12])([H:8])[H:13]"
C        2.22609482      -1.00239683       0.62829721
C        1.88063250       0.19854067       0.35468597
C        0.52732538       0.39398895      -0.06567608
C       -0.39893745       1.35187605       0.11717324
C       -1.75175865       0.77849830      -0.12240158
O       -1.50929605      -0.58154753      -0.52096326
C       -0.18875685      -0.80479203      -0.53519042
H        3.10940240      -1.57431247       0.86263750
H       -0.22599366       2.36484218       0.44756673
H       -2.38423378       0.76406104       0.77244243
H       -2.30855997       1.26745286      -0.92705421
H        0.07883765      -1.46718690      -1.35402837
H        0.94524365      -1.68902429       0.34251086
13
Frame=8 idx=008356 GeodesicLength=0.5944171954448254 rxn_smarts="[C:1](#[C:2][C:3]1=[C:4]([H:9])[C:5]([H:10])([H:11])[O:6][C:7]1([H:12])[H:13])[H:8]>>[C:1](=[C:2]=[C:3]1[C-:4]([H:9])[C:5]([H:10])([H:11])[O+:6]=[C:7]1[H:12])([H:8])[H:13]"
C        2.25025164      -1.00660538       0.63370631
C        1.86412457       0.18639702       0.38883282
C        0.51866790       0.38246028      -0.05010692
C       -0.40135146       1.35108275       0.11803220
C       -1.75677095       0.78759716      -0.12808052
O       -1.52116610      -0.57966947      -0.50726093
C       -0.20081871      -0.80900666      -0.52867838
H        3.15473759      -1.54945983       0.85466651
H       -0.22134683       2.36448058       0.44303004
H       -2.39876326       0.78555606       0.76028256
H       -2.30199542       1.27398344      -0.94239094
H        0.05445046      -1.46731427      -1.35500983
H        0.95998057      -1.71950169       0.31297709
13
Frame=9 idx=008356 GeodesicLength=0.6683651259589677 rxn_smarts="[C:1](#[C:2][C:3]1=[C:4]([H:9])[C:5]([H:10])([H:11])[O:6][C:7]1([H:12])[H:13])[H:8]>>[C:1](=[C:2]=[C:3]1[C-:4]([H:9])[C:5]([H:10])([H:11])[O+:6]=[C:7]1[H:12])([H:8])[H:13]"
C        2.27461433      -1.01042406       0.63950243
C        1.84625583       0.17229509       0.42514433
C        0.50982693       0.37033309      -0.03457062
C       -0.40330012       1.35008139       0.11825549
C       -1.76148812       0.79676222      -0.13368299
O       -1.53344846      -0.57766472      -0.49303493
C       -0.21342935      -0.81368700      -0.52194402
H        3.19985604      -1.52205494       0.84737942
H       -0.21577078       2.36370585       0.43803265
H       -2.41247973       0.80764537       0.74824959
H       -2.29525730       1.28022861      -0.95751063
H        0.02904464      -1.46752252      -1.35596326
H        0.97557608      -1.74969839       0.28014254
13
Frame=10 idx=008356 GeodesicLength=0.7421309311001284 rxn_smarts="[C:1](#[C:2][C:3]1=[C:4]([H:9])[C:5]([H:10])([H:11])[O:6][C:7]1([H:12])[H:13])[H:8]>>[C:1](=[C:2]=[C:3]1[C-:4]([H:9])[C:5]([H:10])([H:11])[O+:6]=[C:7]1[H:12])([H:8])[H:13]"
C        2.29884446      -1.01386029       0.64708477
C        1.82618335       0.15576978       0.46592872
C        0.50069520       0.35746606      -0.01822199
C       -0.40479917       1.34882183       0.11799965
C       -1.76583505       0.80610681      -0.13973453
O       -1.54608266      -0.57550588      -0.47823906
C       -0.22657902      -0.81898522      -0.51424016
H        3.24557625      -1.49181565       0.83594385
H       -0.20930526       2.36251451       0.43249918
H       -2.42583277       0.83079517       0.73541240
H       -2.28766846       1.28611925      -0.97340300
H        0.00296209      -1.46801593      -1.35596779
H        0.99184104      -1.77941044       0.24493795
13
Frame=11 idx=008356 GeodesicLength=0.8159042269775689 rxn_smarts="[C:1](#[C:2][C:3]1=[C:4]([H:9])[C:5]([H:10])([H:11])[O:6][C:7]1([H:12])[H:13])[H:8]>>[C:1](=[C:2]=[C:3]1[C-:4]([H:9])[C:5]([H:10])([H:11])[O+:6]=[C:7]1[H:12])([H:8])[H:13]"
C        2.32338361      -1.01661458       0.65403364
C        1.80475123       0.13659761       0.50702363
C        0.49163986       0.34393155      -0.00343689
C       -0.40543495       1.34716335       0.11672572
C       -1.76973075       0.81546186      -0.14515604
O       -1.55932199      -0.57314838      -0.46290894
C       -0.24055007      -0.82493886      -0.50692388
H        3.28994208      -1.45782822       0.83027453
H       -0.20127832       2.36047104       0.42678983
H       -2.43748530       0.85429624       0.72378080
H       -2.28043424       1.29188683      -0.98799846
H       -0.02503382      -1.46895896      -1.35654887
H        1.00955266      -1.80831948       0.20434492
13
Frame=12 idx=008356 GeodesicLength=0.8894119554057558 rxn_smarts="[C:1](#[C:2][C:3]1=[C:4]([H:9])[C:5]([H:10])([H:11])[O:6][C:7]1([H:12])[H:13])[H:8]>>[C:1](=[C:2]=[C:3]1[C-:4]([H:9])[C:5]([H:10])([H:11])[O+:6]=[C:7]1[H:12])([H:8])[H:13]"
C        2.34848688      -1.01827341       0.65839132
C        1.78249140       0.11467580       0.54560339
C        0.48291398       0.32972018       0.00832848
C       -0.40493062       1.34487071       0.11402455
C       -1.77308562       0.82460331      -0.14907935
O       -1.57324219      -0.57064317      -0.44637486
C       -0.25551848      -0.83150909      -0.50064083
H        3.33126419      -1.42005253       0.83772037
H       -0.19119150       2.35721702       0.42036859
H       -2.44660559       0.87783923       0.71482865
H       -2.27422719       1.29727353      -0.99990475
H       -0.05591477      -1.47003861      -1.35858539
H        1.02955951      -1.83568298       0.15531984
13
Frame=13 idx=008356 GeodesicLength=0.9626735597939825 rxn_smarts="[C:1](#[C:2][C:3]1=[C:4]([H:9])[C:5]([H:10])([H:11])[O:6][C:7]1([H:12])[H:13])[H:8]>>[C:1](=[C:2]=[C:3]1[C-:4]([H:9])[C:5]([H:10])([H:11])[O+:6]=[C:7]1[H:12])([H:8])[H:13]"
C        2.37269351      -1.01891961       0.66645039
C        1.75787879       0.08955137       0.58709900
C        0.47425719       0.31475519       0.01978960
C       -0.40361904       1.34207920       0.11077808
C       -1.77579473       0.83389497      -0.15339673
O       -1.58743802      -0.56784580      -0.42969877
C       -0.27111020      -0.83898360      -0.49346323
H        3.37198222      -1.37882553       0.84120623
H       -0.17983650       2.35295309       0.41446934
H       -2.45483484       0.90218701       0.70531484
H       -2.26712396       1.30258509      -1.01230733
H       -0.08778087      -1.47241763      -1.35914113
H        1.05072646      -1.86101376       0.10289971
13
Frame=14 idx=008356 GeodesicLength=1.0358459521448071 rxn_smarts="[C:1](#[C:2][C:3]1=[C:4]([H:9])[C:5]([H:10])([H:11])[O:6][C:7]1([H:12])[H:13])[H:8]>>[C:1](=[C:2]=[C:3]1[C-:4]([H:9])[C:5]([H:10])([H:11])[O+:6]=[C:7]1[H:12])([H:8])[H:13]"
C        2.39588459      -1.01859057       0.67764578
C        1.73212958       0.06146329       0.62738019
C        0.46593084       0.29904038       0.02948539
C       -0.40127860       1.33863471       0.10674719
C       -1.77784939       0.84316524      -0.15725973
O       -1.60205984      -0.56483066      -0.41243565
C       -0.28750817      -0.84740561      -0.48613659
H        3.41052044      -1.33404029       0.84761170
H       -0.16677752       2.34745454       0.40890112
H       -2.46141169       0.92700041       0.69667949
H       -2.25993494       1.30774155      -1.02382066
H       -0.12159677      -1.47617140      -1.35909460
H        1.07395148      -1.88346159       0.04429636
13
Frame=15 idx=008356 GeodesicLength=1.1089816795515737 rxn_smarts="[C:1](#[C:2][C:3]1=[C:4]([H:9])[C:5]([H:10])([H:11])[O:6][C:7]1([H:12])[H:13])[H:8]>>[C:1](=[C:2]=[C:3]1[C-:4]([H:9])[C:5]([H:10])([H:11])[O+:6]=[C:7]1[H:12])([H:8])[H:13]"
C        2.41802955      -1.01744954       0.69139996
C        1.70627716       0.03093846       0.66390347
C        0.45802791       0.28265614       0.03691012
C       -0.39793966       1.33448085       0.10202119
C       -1.77928380       0.85231892      -0.16039884
O       -1.61708392      -0.56162793      -0.39443108
C       -0.30473319      -0.85675792      -0.47882987
H        3.44618521      -1.28635345       0.85984404
H       -0.15207976       2.34061815       0.40387680
H       -2.46621567       0.95208380       0.68932819
H       -2.25291493       1.31269242      -1.03405332
H       -0.15765346      -1.48162691      -1.35835946
H        1.09938455      -1.90197297      -0.02121121
13
Frame=16 idx=008356 GeodesicLength=1.18190346191839 rxn_smarts="[C:1](#[C:2][C:3]1=[C:4]([H:9])[C:5]([H:10])([H:11])[O:6][C:7]1([H:12])[H:13])[H:8]>>[C:1](=[C:2]=[C:3]1[C-:4]([H:9])[C:5]([H:10])([H:11])[O+:6]=[C:7]1[H:12])([H:8])[H:13]"
C        2.44020295      -1.01469194       0.70316241
C        1.68349414       0.00047383       0.68914214
C        0.45114456       0.26654472       0.03897224
C       -0.39366492       1.32987200       0.09554566
C       -1.78027682       0.86065930      -0.16095094
O       -1.63208793      -0.55870669      -0.37429765
C       -0.32247020      -0.86657605      -0.47285789
H        3.47449127      -1.24018323       0.89312043
H       -0.13592012       2.33284518       0.39769975
H       -2.46767105       0.97609054       0.68661705
H       -2.24845665       1.31653536      -1.04008490
H       -0.19707984      -1.48859289      -1.35814322
H        1.12829461      -1.91427014      -0.09792507
