12
Frame=0 idx=003493 GeodesicLength=0.0 rxn_smarts="[O:1]([C:2]1([H:8])[C:3]([H:9])([H:10])[C:4](=[O:5])[C:6]1([H:11])[H:12])[H:7]>>[O:1]([C:4]([C:3]([C:2](=[C:6]([H:11])[H:12])[H:8])([H:9])[H:10])=[O:5])[H:7]"
O        0.70593045      -0.41473632       1.28216366
C        0.48327226      -0.57075122      -0.46212630
C       -0.98083901      -0.69918719      -0.09342189
C       -0.66361737       0.46499761       0.79710399
O       -1.15110424       1.26983766       1.49921717
C        0.59582938       0.78088477      -0.86352340
H        1.42107396       0.22328439       1.38431632
H        1.15515332      -1.40407642      -0.64541866
H       -1.25350944      -1.58822106       0.47208350
H       -1.68237579      -0.48913910      -0.89686422
H       -0.19963295       1.18620049      -1.47527888
H        1.56981944       1.24090640      -0.99825134
12
Frame=1 idx=003493 GeodesicLength=0.06303977296080714 rxn_smarts="[O:1]([C:2]1([H:8])[C:3]([H:9])([H:10])[C:4](=[O:5])[C:6]1([H:11])[H:12])[H:7]>>[O:1]([C:4]([C:3]([C:2](=[C:6]([H:11])[H:12])[H:8])([H:9])[H:10])=[O:5])[H:7]"
O        0.71431101      -0.42219816       1.28832241
C        0.48448651      -0.56929032      -0.46566454
C       -0.97869392      -0.69697708      -0.09051148
C       -0.66448369       0.47051290       0.79875293
O       -1.16976109       1.27316852       1.49258677
C        0.59250362       0.78258255      -0.87093486
H        1.43333529       0.20821791       1.40714157
H        1.15145866      -1.40310858      -0.66048990
H       -1.24833564      -1.58458826       0.47895367
H       -1.69002300      -0.49253690      -0.88654517
H       -0.19104570       1.18731776      -1.49854866
H        1.56624795       1.24689967      -0.99306274
12
Frame=2 idx=003493 GeodesicLength=0.1260679778498715 rxn_smarts="[O:1]([C:2]1([H:8])[C:3]([H:9])([H:10])[C:4](=[O:5])[C:6]1([H:11])[H:12])[H:7]>>[O:1]([C:4]([C:3]([C:2](=[C:6]([H:11])[H:12])[H:8])([H:9])[H:10])=[O:5])[H:7]"
O        0.72289449      -0.42981302       1.29446730
C        0.48570987      -0.56768318      -0.46922937
C       -0.97648342      -0.69462623      -0.08748523
C       -0.66530672       0.47621691       0.80048955
O       -1.18858820       1.27652823       1.48555112
C        0.58896089       0.78437474      -0.87856673
H        1.44571804       0.19237806       1.43056573
H        1.14758343      -1.40194055      -0.67570556
H       -1.24300116      -1.58080577       0.48595697
H       -1.69759306      -0.49602430      -0.87595783
H       -0.18211735       1.18820119      -1.52230379
H        1.56222320       1.25319391      -0.98778215
12
Frame=3 idx=003493 GeodesicLength=0.18908595597427846 rxn_smarts="[O:1]([C:2]1([H:8])[C:3]([H:9])([H:10])[C:4](=[O:5])[C:6]1([H:11])[H:12])[H:7]>>[O:1]([C:4]([C:3]([C:2](=[C:6]([H:11])[H:12])[H:8])([H:9])[H:10])=[O:5])[H:7]"
O        0.73169055      -0.43757249       1.30059268
C        0.48694265      -0.56591983      -0.47282117
C       -0.97420277      -0.69213132      -0.08433947
C       -0.66609298       0.48211779       0.80231408
O       -1.20757421       1.27991703       1.47809722
C        0.58518972       0.78626665      -0.88642627
H        1.45820660       0.17571809       1.45461733
H        1.14351907      -1.40055881      -0.69106267
H       -1.23749371      -1.57686912       0.49310027
H       -1.70507557      -0.49961031      -0.86509641
H       -0.17282502       1.18884482      -1.54654643
H        1.55771568       1.25979750      -0.98242917
12
Frame=4 idx=003493 GeodesicLength=0.25209334896844077 rxn_smarts="[O:1]([C:2]1([H:8])[C:3]([H:9])([H:10])[C:4](=[O:5])[C:6]1([H:11])[H:12])[H:7]>>[O:1]([C:4]([C:3]([C:2](=[C:6]([H:11])[H:12])[H:8])([H:9])[H:10])=[O:5])[H:7]"
O        0.74070917      -0.44546674       1.30669160
C        0.48818521      -0.56398953      -0.47644072
C       -0.97184762      -0.68948831      -0.08107092
C       -0.66684938       0.48822384       0.80422627
O       -1.22670402       1.28333275       1.47021558
C        0.58117706       0.78826407      -0.89452151
H        1.47078354       0.15818907       1.47932716
H        1.13925902      -1.39894981      -0.70655487
H       -1.23180165      -1.57277285       0.50038979
H       -1.71246036      -0.50330304      -0.85395518
H       -0.16314407       1.18923989      -1.57128178
H        1.55269310       1.26672065      -0.97702541
12
Frame=5 idx=003493 GeodesicLength=0.31508843090338606 rxn_smarts="[O:1]([C:2]1([H:8])[C:3]([H:9])([H:10])[C:4](=[O:5])[C:6]1([H:11])[H:12])[H:7]>>[O:1]([C:4]([C:3]([C:2](=[C:6]([H:11])[H:12])[H:8])([H:9])[H:10])=[O:5])[H:7]"
O        0.74995762      -0.45348934       1.31275775
C        0.48943791      -0.56188223      -0.48008829
C       -0.96941408      -0.68669475      -0.07767764
C       -0.66758493       0.49454285       0.80622455
O       -1.24595980       1.28677510       1.46190059
C        0.57691063       0.79037172      -0.90285864
H        1.48343496       0.13974982       1.50472047
H        1.13479853      -1.39710105      -0.72217207
H       -1.22591539      -1.56851301       0.50783037
H       -1.71973729      -0.50711107      -0.84253260
H       -0.15305276       1.18938033      -1.59651069
H        1.54712460       1.27397163      -0.97159381
12
Frame=6 idx=003493 GeodesicLength=0.37807427487946227 rxn_smarts="[O:1]([C:2]1([H:8])[C:3]([H:9])([H:10])[C:4](=[O:5])[C:6]1([H:11])[H:12])[H:7]>>[O:1]([C:4]([C:3]([C:2](=[C:6]([H:11])[H:12])[H:8])([H:9])[H:10])=[O:5])[H:7]"
O        0.75945201      -0.46162128       1.31878286
C        0.49070243      -0.55958476      -0.48376545
C       -0.96689523      -0.68374659      -0.07415434
C       -0.66830750       0.50108637       0.80830571
O       -1.26532611       1.29024669       1.45314297
C        0.57237484       0.79259698      -0.91144866
H        1.49612809       0.12032761       1.53083268
H        1.13013103      -1.39499584      -0.73791034
H       -1.21981628      -1.56408207       0.51543418
H       -1.72689439      -0.51104710      -0.83082013
H       -0.14252337       1.18925583      -1.62223857
H        1.54097446       1.28156419      -0.96616092
12
Frame=7 idx=003493 GeodesicLength=0.44105139443002767 rxn_smarts="[O:1]([C:2]1([H:8])[C:3]([H:9])([H:10])[C:4](=[O:5])[C:6]1([H:11])[H:12])[H:7]>>[O:1]([C:4]([C:3]([C:2](=[C:6]([H:11])[H:12])[H:8])([H:9])[H:10])=[O:5])[H:7]"
O        0.76920484      -0.46984264       1.32475824
C        0.49197840      -0.55708343      -0.48747533
C       -0.96428616      -0.68064191      -0.07049734
C       -0.66902918       0.50786667       0.81046338
O       -1.28478247       1.29375032       1.44393846
C        0.56755088       0.79494544      -0.92030501
H        1.50883303       0.09985401       1.55769253
H        1.12525553      -1.39261968      -0.75375907
H       -1.21348610      -1.55947407       0.52321346
H       -1.73392152      -0.51512648      -0.81881169
H       -0.13152377       1.18886202      -1.64846344
H        1.53420651       1.28950975      -0.96075417
12
Frame=8 idx=003493 GeodesicLength=0.504021508215851 rxn_smarts="[O:1]([C:2]1([H:8])[C:3]([H:9])([H:10])[C:4](=[O:5])[C:6]1([H:11])[H:12])[H:7]>>[O:1]([C:4]([C:3]([C:2](=[C:6]([H:11])[H:12])[H:8])([H:9])[H:10])=[O:5])[H:7]"
O        0.77923133      -0.47813557       1.33067488
C        0.49326759      -0.55436558      -0.49121958
C       -0.96158018      -0.67737672      -0.06670306
C       -0.66975975       0.51489432       0.81269148
O       -1.30431123       1.29728625       1.43428869
C        0.56242230       0.79742373      -0.92943840
H        1.52151863       0.07826398       1.58533168
H        1.12016876      -1.38995804      -0.76970766
H       -1.20690963      -1.55468043       0.53117801
H       -1.74080593      -0.51936095      -0.80650201
H       -0.12002714       1.18818849      -1.67518921
H        1.52678523       1.29782052      -0.95540483
12
Frame=9 idx=003493 GeodesicLength=0.5669736166151879 rxn_smarts="[O:1]([C:2]1([H:8])[C:3]([H:9])([H:10])[C:4](=[O:5])[C:6]1([H:11])[H:12])[H:7]>>[O:1]([C:4]([C:3]([C:2](=[C:6]([H:11])[H:12])[H:8])([H:9])[H:10])=[O:5])[H:7]"
O        0.78954074      -0.48646300       1.33652996
C        0.49456840      -0.55141280      -0.49499895
C       -0.95877093      -0.67395316      -0.06276666
C       -0.67052344       0.52219114       0.81497656
O       -1.32388261       1.30086709       1.42418412
C        0.55696498       0.80003698      -0.93886934
H        1.53414238       0.05545285       1.61375641
H        1.11488430      -1.38699762      -0.78573084
H       -1.20005838      -1.54969668       0.53934897
H       -1.74753429      -0.52377867      -0.79389233
H       -0.10798794       1.18724892      -1.70237799
H        1.51865679       1.30650494      -0.95015989
12
Frame=10 idx=003493 GeodesicLength=0.6299180257013187 rxn_smarts="[O:1]([C:2]1([H:8])[C:3]([H:9])([H:10])[C:4](=[O:5])[C:6]1([H:11])[H:12])[H:7]>>[O:1]([C:4]([C:3]([C:2](=[C:6]([H:11])[H:12])[H:8])([H:9])[H:10])=[O:5])[H:7]"
O        0.80016397      -0.49479654       1.34230444
C        0.49588573      -0.54821072      -0.49882025
C       -0.95584811      -0.67036460      -0.05868293
C       -0.67132233       0.52976626       0.81731130
O       -1.34348464       1.30448965       1.41363460
C        0.55116190       0.80279188      -0.94861162
H        1.54664661       0.03133986       1.64302783
H        1.10938948      -1.38371606      -0.80182863
H       -1.19290970      -1.54451001       0.54773862
H       -1.75409274      -0.52838978      -0.78096198
H       -0.09538673       1.18602245      -1.73005825
H        1.50979656       1.31557760      -0.94505314
12
Frame=11 idx=003493 GeodesicLength=0.6928494074753313 rxn_smarts="[O:1]([C:2]1([H:8])[C:3]([H:9])([H:10])[C:4](=[O:5])[C:6]1([H:11])[H:12])[H:7]>>[O:1]([C:4]([C:3]([C:2](=[C:6]([H:11])[H:12])[H:8])([H:9])[H:10])=[O:5])[H:7]"
O        0.81112152      -0.50310257       1.34798716
C        0.49722074      -0.54474346      -0.50268689
C       -0.95280357      -0.66660887      -0.05444796
C       -0.67217094       0.53763480       0.81968443
O       -1.36309924       1.30815697       1.40264615
C        0.54498880       0.80569368      -0.95868559
H        1.55898198       0.00583729       1.67316609
H        1.10368991      -1.38010124      -0.81797820
H       -1.18543933      -1.53911148       0.55636167
H       -1.76046626      -0.53321079      -0.76770326
H       -0.08218588       1.18450879      -1.75821390
H        1.50016226       1.32504690      -0.94012970
12
Frame=12 idx=003493 GeodesicLength=0.7557701494281275 rxn_smarts="[O:1]([C:2]1([H:8])[C:3]([H:9])([H:10])[C:4](=[O:5])[C:6]1([H:11])[H:12])[H:7]>>[O:1]([C:4]([C:3]([C:2](=[C:6]([H:11])[H:12])[H:8])([H:9])[H:10])=[O:5])[H:7]"
O        0.82244432      -0.51132544       1.35356559
C        0.49857759      -0.54098935      -0.50660503
C       -0.94962456      -0.66268249      -0.05005357
C       -0.67308309       0.54581961       0.82207828
O       -1.38271181       1.31187544       1.39121931
C        0.53842210       0.80874890      -0.96911527
H        1.57107509      -0.02119434       1.70420994
H        1.09779111      -1.37613211      -0.83416235
H       -1.17760912      -1.53348669       0.56524444
H       -1.76663760      -0.53826629      -0.75409869
H       -0.06835427       1.18270514      -1.78683738
H        1.48971026       1.33492761      -0.93544526
12
Frame=13 idx=003493 GeodesicLength=0.8186743531055235 rxn_smarts="[O:1]([C:2]1([H:8])[C:3]([H:9])([H:10])[C:4](=[O:5])[C:6]1([H:11])[H:12])[H:7]>>[O:1]([C:4]([C:3]([C:2](=[C:6]([H:11])[H:12])[H:8])([H:9])[H:10])=[O:5])[H:7]"
O        0.83416261      -0.51942424       1.35902688
C        0.49995809      -0.53693138      -0.51058093
C       -0.94629817      -0.65858193      -0.04549466
C       -0.67407270       0.55433859       0.82447638
O       -1.40230527       1.31565017       1.37936567
C        0.53143889       0.81196027      -0.97992331
H        1.58285148      -0.04985334       1.73617913
H        1.09169988      -1.37179866      -0.85036042
H       -1.16938657      -1.52762144       0.57440550
H       -1.77258732      -0.54357622      -0.74013618
H       -0.05385962       1.18061250      -1.81590607
H        1.47839870       1.34522568      -0.93105201
12
Frame=14 idx=003493 GeodesicLength=0.8815630877950758 rxn_smarts="[O:1]([C:2]1([H:8])[C:3]([H:9])([H:10])[C:4](=[O:5])[C:6]1([H:11])[H:12])[H:7]>>[O:1]([C:4]([C:3]([C:2](=[C:6]([H:11])[H:12])[H:8])([H:9])[H:10])=[O:5])[H:7]"
O        0.84632525      -0.52731840       1.36435399
C        0.50136881      -0.53254400      -0.51462349
C       -0.94280451      -0.65430210      -0.04075707
C       -0.67515088       0.56322305       0.82685464
O       -1.42187215       1.31949454       1.36708142
C        0.52400402       0.81533246      -0.99114970
H        1.59419749      -0.08033086       1.76910810
H        1.08542921      -1.36708052      -0.86655373
H       -1.16071620      -1.52149232       0.58388586
H       -1.77829081      -0.54917328      -0.72578685
H       -0.03866235       1.17823101      -1.84539911
H        1.46617212       1.35596043      -0.92701407
12
Frame=15 idx=003493 GeodesicLength=0.9444294714014176 rxn_smarts="[O:1]([C:2]1([H:8])[C:3]([H:9])([H:10])[C:4](=[O:5])[C:6]1([H:11])[H:12])[H:7]>>[O:1]([C:4]([C:3]([C:2](=[C:6]([H:11])[H:12])[H:8])([H:9])[H:10])=[O:5])[H:7]"
O        0.85898463      -0.53491825       1.36952926
C        0.50281878      -0.52779957      -0.51874087
C       -0.93911964      -0.64983639      -0.03582517
C       -0.67632813       0.57250973       0.82918536
O       -1.44140583       1.32342486       1.35436437
C        0.51608336       0.81886718      -1.00283554
H        1.60498151      -0.11283790       1.80302092
H        1.07900129      -1.36195814      -0.88271686
H       -1.15153554      -1.51507141       0.59373103
H       -1.78372049      -0.55509284      -0.71102122
H       -0.02273351       1.17556208      -1.87529001
H        1.45297356       1.36715065      -0.92340129
12
Frame=16 idx=003493 GeodesicLength=1.0072685564806878 rxn_smarts="[O:1]([C:2]1([H:8])[C:3]([H:9])([H:10])[C:4](=[O:5])[C:6]1([H:11])[H:12])[H:7]>>[O:1]([C:4]([C:3]([C:2](=[C:6]([H:11])[H:12])[H:8])([H:9])[H:10])=[O:5])[H:7]"
O        0.87220717      -0.54211641       1.37453069
C        0.50432030      -0.52266658      -0.52294327
C       -0.93521690      -0.64517911      -0.03067874
C       -0.67761031       0.58224048       0.83143824
O       -1.46089451       1.32745940       1.34121557
C        0.50763720       0.82256425      -1.01503005
H        1.61503596      -0.14761852       1.83795248
H        1.07244492      -1.35640575      -0.89882687
H       -1.14177390      -1.50832972       0.60399675
H       -1.78884770      -0.56137484      -0.69580102
H       -0.00604233       1.17260603      -1.90556057
H        1.43874008       1.37882078      -0.92029321
