17
Frame=0 idx=009864 GeodesicLength=0.0 rxn_smarts="[C:1]([C@@:2]1([H:11])[C:3]([H:12])([H:13])[C@:4]2([C:5]([H:14])([H:15])[O:6]2)[C:7]1([H:16])[H:17])([H:8])([H:9])[H:10]>>[C:1]([C@@:2]1([H:11])[C:3]([H:12])([H:13])[C:5]([H:14])([H:15])[O+:6]=[C-:4][C:7]1([H:16])[H:17])([H:8])([H:9])[H:10]"
C       -2.05399701      -0.12517765       0.32458917
C       -0.75811080      -0.03624230      -0.46060877
C        0.21757239       1.01244664       0.13373236
C        0.89155497      -0.54455016       0.83957063
C        2.02799219       0.47925568      -0.00017691
O        2.30683842      -0.56057250       0.84296179
C        0.15872114      -1.26249924      -0.28226484
H       -1.83866294      -0.32640700       1.37646107
H       -2.62502045       0.80359515       0.25833876
H       -2.68147052      -0.93415505      -0.05519685
H       -0.96769880       0.17871014      -1.51021603
H        0.49141612       1.74167512      -0.63958045
H       -0.12237338       1.56946155       1.00390866
H        2.12156217       0.26114058      -1.06106581
H        2.44598236       1.42581305       0.33003491
H       -0.34637423      -2.15918590       0.08035301
H        0.73206829      -1.52330812      -1.18084062
17
Frame=1 idx=009864 GeodesicLength=0.06725393293277117 rxn_smarts="[C:1]([C@@:2]1([H:11])[C:3]([H:12])([H:13])[C@:4]2([C:5]([H:14])([H:15])[O:6]2)[C:7]1([H:16])[H:17])([H:8])([H:9])[H:10]>>[C:1]([C@@:2]1([H:11])[C:3]([H:12])([H:13])[C:5]([H:14])([H:15])[O+:6]=[C-:4][C:7]1([H:16])[H:17])([H:8])([H:9])[H:10]"
C       -2.06216177      -0.12253506       0.31093425
C       -0.75429158      -0.03682867      -0.45430228
C        0.21845675       1.00780141       0.14854737
C        0.91679142      -0.55778996       0.83173288
C        2.03299697       0.48897764      -0.01762526
O        2.32528789      -0.54635882       0.83295179
C        0.15429169      -1.26727888      -0.27141415
H       -1.86287319      -0.32691860       1.36545750
H       -2.62859916       0.80859664       0.23847235
H       -2.68787468      -0.92754379      -0.08007956
H       -0.94909406       0.17847960      -1.50688798
H        0.46670188       1.76310770      -0.60782867
H       -0.11736147       1.54053691       1.03592045
H        2.13199637       0.26712143      -1.07726739
H        2.45769211       1.43469989       0.30670093
H       -0.35174091      -2.15254567       0.11810944
H        0.70978175      -1.55152178      -1.17342167
17
Frame=2 idx=009864 GeodesicLength=0.13442474336665583 rxn_smarts="[C:1]([C@@:2]1([H:11])[C:3]([H:12])([H:13])[C@:4]2([C:5]([H:14])([H:15])[O:6]2)[C:7]1([H:16])[H:17])([H:8])([H:9])[H:10]>>[C:1]([C@@:2]1([H:11])[C:3]([H:12])([H:13])[C:5]([H:14])([H:15])[O+:6]=[C-:4][C:7]1([H:16])[H:17])([H:8])([H:9])[H:10]"
C       -2.07022037      -0.11964957       0.29671430
C       -0.75033611      -0.03751792      -0.44784632
C        0.21947191       1.00280340       0.16389999
C        0.94271028      -0.57129436       0.82285979
C        2.03759961       0.49901807      -0.03562367
O        2.34394334      -0.53173155       0.82208618
C        0.14981623      -1.27220143      -0.26003357
H       -1.88766183      -0.32692540       1.35380334
H       -2.63179775       0.81391493       0.21775449
H       -2.69380244      -0.92075103      -0.10561944
H       -0.92990236       0.17820867      -1.50326206
H        0.44150332       1.78400808      -0.57375309
H       -0.11197927       1.51009817       1.06825418
H        2.14249323       0.27358665      -1.09398601
H        2.46871192       1.44399805       0.28273232
H       -0.35692191      -2.14503805       0.15697530
H        0.68637221      -1.58052670      -1.16495573
17
Frame=3 idx=009864 GeodesicLength=0.20150142971955312 rxn_smarts="[C:1]([C@@:2]1([H:11])[C:3]([H:12])([H:13])[C@:4]2([C:5]([H:14])([H:15])[O:6]2)[C:7]1([H:16])[H:17])([H:8])([H:9])[H:10]>>[C:1]([C@@:2]1([H:11])[C:3]([H:12])([H:13])[C:5]([H:14])([H:15])[O+:6]=[C-:4][C:7]1([H:16])[H:17])([H:8])([H:9])[H:10]"
C       -2.07812925      -0.11651453       0.28192993
C       -0.74625814      -0.03830880      -0.44125972
C        0.22062553       0.99742632       0.17976655
C        0.96928123      -0.58508052       0.81283382
C        2.04175554       0.50939126      -0.05414271
O        2.36271749      -0.51669040       0.81037445
C        0.14528786      -1.27725884      -0.24813377
H       -1.91297222      -0.32637847       1.34147288
H       -2.63456085       0.81954930       0.19618592
H       -2.69919916      -0.91379589      -0.13177031
H       -0.91014900       0.17788683      -1.49933942
H        0.41587640       1.80421811      -0.53733076
H       -0.10620381       1.47808349       1.10081859
H        2.15307673       0.28060535      -1.11119291
H        2.47896090       1.45372329       0.25820976
H       -0.36186020      -2.13654473       0.19696567
H        0.66175094      -1.61031176      -1.15538800
17
Frame=4 idx=009864 GeodesicLength=0.2684678185406738 rxn_smarts="[C:1]([C@@:2]1([H:11])[C:3]([H:12])([H:13])[C@:4]2([C:5]([H:14])([H:15])[O:6]2)[C:7]1([H:16])[H:17])([H:8])([H:9])[H:10]>>[C:1]([C@@:2]1([H:11])[C:3]([H:12])([H:13])[C:5]([H:14])([H:15])[O+:6]=[C-:4][C:7]1([H:16])[H:17])([H:8])([H:9])[H:10]"
C       -2.08584109      -0.11312296       0.26659262
C       -0.74207312      -0.03920079      -0.43456944
C        0.22192653       0.99163683       0.19611256
C        0.99646049      -0.59917189       0.80151667
C        2.04541661       0.52011476      -0.07314156
O        2.38150546      -0.50124015       0.79783411
C        0.14069728      -1.28244426      -0.23573318
H       -1.93873349      -0.32522772       1.32844873
H       -2.63682884       0.82549946       0.17377858
H       -2.70401238      -0.90669730      -0.15847139
H       -0.88987111       0.17749659      -1.49512755
H        0.38988735       1.82356948      -0.49855756
H       -0.10000573       1.44442862       1.13348895
H        2.16377448       0.28826258      -1.12884735
H        2.48835480       1.46389199       0.23324130
H       -0.36648891      -2.12693261       0.23808367
H        0.63583166      -1.64086263      -1.14464917
17
Frame=5 idx=009864 GeodesicLength=0.33531106420543433 rxn_smarts="[C:1]([C@@:2]1([H:11])[C:3]([H:12])([H:13])[C@:4]2([C:5]([H:14])([H:15])[O:6]2)[C:7]1([H:16])[H:17])([H:8])([H:9])[H:10]>>[C:1]([C@@:2]1([H:11])[C:3]([H:12])([H:13])[C:5]([H:14])([H:15])[O+:6]=[C-:4][C:7]1([H:16])[H:17])([H:8])([H:9])[H:10]"
C       -2.09330883      -0.10947207       0.25072268
C       -0.73780047      -0.04019293      -0.42780936
C        0.22338402       0.98540666       0.21288537
C        1.02419155      -0.61358878       0.78875450
C        2.04854276       0.53120312      -0.09256763
O        2.40018355      -0.48538968       0.78450253
C        0.13603684      -1.28774725      -0.22285849
H       -1.96485248      -0.32342306       1.31472245
H       -2.63855895       0.83175684       0.15055164
H       -2.70819542      -0.89948618      -0.18563518
H       -0.86911912       0.17701843      -1.49064069
H        0.36362599       1.84187290      -0.45743143
H       -0.09336525       1.40909787       1.16610574
H        2.17463106       0.29664613      -1.14690238
H        2.49681968       1.47451860       0.20795913
H       -0.37072671      -2.11606476       0.28030488
H        0.60851178      -1.67215585      -1.13266376
17
Frame=6 idx=009864 GeodesicLength=0.40200483608459986 rxn_smarts="[C:1]([C@@:2]1([H:11])[C:3]([H:12])([H:13])[C@:4]2([C:5]([H:14])([H:15])[O:6]2)[C:7]1([H:16])[H:17])([H:8])([H:9])[H:10]>>[C:1]([C@@:2]1([H:11])[C:3]([H:12])([H:13])[C:5]([H:14])([H:15])[O+:6]=[C-:4][C:7]1([H:16])[H:17])([H:8])([H:9])[H:10]"
C       -2.10049031      -0.10556560       0.23436041
C       -0.73346733      -0.04128439      -0.42101855
C        0.22500074       0.97872056       0.23001283
C        1.05238234      -0.62834499       0.77439526
C        2.05110162       0.54266807      -0.11235827
O        2.41861036      -0.46915504       0.77044971
C        0.13129565      -1.29315401      -0.20954431
H       -1.99122733      -0.32092430       1.30030451
H       -2.63970201       0.83830518       0.12655258
H       -2.71172028      -0.89219440      -0.21315694
H       -0.84796662       0.17641577      -1.48590383
H        0.33719224       1.85893938      -0.41402382
H       -0.08624390       1.37208891       1.19849950
H        2.18569894       0.30585307      -1.16529251
H        2.50430258       1.48560552       0.18252420
H       -0.37448682      -2.10382665       0.32355793
H        0.57972012      -1.70414707      -1.11935871
17
Frame=7 idx=009864 GeodesicLength=0.4685389069775613 rxn_smarts="[C:1]([C@@:2]1([H:11])[C:3]([H:12])([H:13])[C@:4]2([C:5]([H:14])([H:15])[O:6]2)[C:7]1([H:16])[H:17])([H:8])([H:9])[H:10]>>[C:1]([C@@:2]1([H:11])[C:3]([H:12])([H:13])[C:5]([H:14])([H:15])[O+:6]=[C-:4][C:7]1([H:16])[H:17])([H:8])([H:9])[H:10]"
C       -2.10734737      -0.10141486       0.21755281
C       -0.72910136      -0.04247144      -0.41424479
C        0.22677793       0.97156712       0.24740583
C        1.08092665      -0.64345450       0.75827780
C        2.05307633       0.55451417      -0.13243937
O        2.43663162      -0.45256881       0.75576829
C        0.12646378      -1.29864835      -0.19584410
H       -2.01773661      -0.31770743       1.28521425
H       -2.64022967       0.84511794       0.10184397
H       -2.71457091      -0.88486306      -0.24090906
H       -0.82650281       0.17565379      -1.48094783
H        0.31069653       1.87458974      -0.36843859
H       -0.07861890       1.33344407       1.23048214
H        2.19705033       0.31597914      -1.18394247
H        2.51077153       1.49714590       0.15712259
H       -0.37766242      -2.09009814       0.36775601
H        0.54937535      -1.73678527      -1.10465749
17
Frame=8 idx=009864 GeodesicLength=0.5348865771663078 rxn_smarts="[C:1]([C@@:2]1([H:11])[C:3]([H:12])([H:13])[C@:4]2([C:5]([H:14])([H:15])[O:6]2)[C:7]1([H:16])[H:17])([H:8])([H:9])[H:10]>>[C:1]([C@@:2]1([H:11])[C:3]([H:12])([H:13])[C:5]([H:14])([H:15])[O+:6]=[C-:4][C:7]1([H:16])[H:17])([H:8])([H:9])[H:10]"
C       -2.11384824      -0.09703286       0.20035778
C       -0.72473927      -0.04375197      -0.40754260
C        0.22871426       0.96394832       0.26496375
C        1.10969548      -0.65891921       0.74022399
C        2.05445247       0.56675043      -0.15273058
O        2.45407855      -0.43567628       0.74055383
C        0.12153159      -1.30420784      -0.18180813
H       -2.04425970      -0.31375174       1.26949130
H       -2.64011636       0.85216870       0.07650207
H       -2.71674367      -0.87753202      -0.26876568
H       -0.80482518       0.17468978      -1.47581803
H        0.28426043       1.88862625      -0.32079265
H       -0.07044980       1.29320548       1.26182805
H        2.20875473       0.32714390      -1.20276704
H        2.51621425       1.50912599       0.13196261
H       -0.38012826      -2.07477337       0.41278753
H        0.51740871      -1.77001354      -1.08844622
17
Frame=9 idx=009864 GeodesicLength=0.6009343635100673 rxn_smarts="[C:1]([C@@:2]1([H:11])[C:3]([H:12])([H:13])[C@:4]2([C:5]([H:14])([H:15])[O:6]2)[C:7]1([H:16])[H:17])([H:8])([H:9])[H:10]>>[C:1]([C@@:2]1([H:11])[C:3]([H:12])([H:13])[C:5]([H:14])([H:15])[O+:6]=[C-:4][C:7]1([H:16])[H:17])([H:8])([H:9])[H:10]"
C       -2.11996734      -0.09244275       0.18287525
C       -0.72040330      -0.04514365      -0.40096693
C        0.23080144       0.95585788       0.28257468
C        1.13857863      -0.67468970       0.71998889
C        2.05527048       0.57937084      -0.17313986
O        2.47081126      -0.41857247       0.72487495
C        0.11649882      -1.30982460      -0.16750352
H       -2.07063174      -0.30907290       1.25320756
H       -2.63932973       0.85943330       0.05066864
H       -2.71828224      -0.87022877      -0.29653016
H       -0.78304869       0.17344634      -1.47055913
H        0.25801763       1.90090306      -0.27149885
H       -0.06179714       1.25154781       1.29235664
H        2.22095880       0.33952905      -1.22157285
H        2.52060639       1.52147702       0.10737000
H       -0.38188895      -2.05788833       0.45849538
H        0.48380570      -1.80370211      -1.07064068
17
Frame=10 idx=009864 GeodesicLength=0.6668039404986894 rxn_smarts="[C:1]([C@@:2]1([H:11])[C:3]([H:12])([H:13])[C@:4]2([C:5]([H:14])([H:15])[O:6]2)[C:7]1([H:16])[H:17])([H:8])([H:9])[H:10]>>[C:1]([C@@:2]1([H:11])[C:3]([H:12])([H:13])[C:5]([H:14])([H:15])[O+:6]=[C-:4][C:7]1([H:16])[H:17])([H:8])([H:9])[H:10]"
C       -2.12568342      -0.08766655       0.16515483
C       -0.71614565      -0.04662104      -0.39458601
C        0.23303728       0.94731936       0.30009601
C        1.16739460      -0.69080380       0.69745204
C        2.05550521       0.59236673      -0.19356621
O        2.48656708      -0.40132310       0.70891365
C        0.11135444      -1.31546204      -0.15300035
H       -2.09673218      -0.30365202       1.23641083
H       -2.63789366       0.86685748       0.02439789
H       -2.71917547      -0.86302511      -0.32409656
H       -0.76129180       0.17190679      -1.46524721
H        0.23200474       1.91131241      -0.22055818
H       -0.05254424       1.20849721       1.32180779
H        2.23372104       0.35315613      -1.24030490
H        2.52402630       1.53416602       0.08349788
H       -0.38261047      -2.03921366       0.50479379
H        0.44846620      -1.83781480      -1.05116531
17
Frame=11 idx=009864 GeodesicLength=0.7325235017465086 rxn_smarts="[C:1]([C@@:2]1([H:11])[C:3]([H:12])([H:13])[C@:4]2([C:5]([H:14])([H:15])[O:6]2)[C:7]1([H:16])[H:17])([H:8])([H:9])[H:10]>>[C:1]([C@@:2]1([H:11])[C:3]([H:12])([H:13])[C:5]([H:14])([H:15])[O+:6]=[C-:4][C:7]1([H:16])[H:17])([H:8])([H:9])[H:10]"
C       -2.13098704      -0.08273980       0.14728526
C       -0.71200678      -0.04817779      -0.38846005
C        0.23540290       0.93836269       0.31738767
C        1.19598067      -0.70723200       0.67244779
C        2.05519359       0.60572491      -0.21390704
O        2.50112853      -0.38405782       0.69280275
C        0.10609586      -1.32108963      -0.13837188
H       -2.12241913      -0.29751742       1.21918678
H       -2.63582752       0.87438704      -0.00218794
H       -2.71946395      -0.85597880      -0.35131065
H       -0.73968486       0.17002447      -1.45994607
H        0.20629084       1.91975896      -0.16826684
H       -0.04268293       1.16421555       1.34996330
H        2.24716719       0.36813182      -1.25882547
H        2.52656699       1.54710981       0.06061118
H       -0.38211527      -2.01869035       0.55154478
H        0.41136089      -1.87223165      -1.02995358
17
Frame=12 idx=009864 GeodesicLength=0.7981053279246474 rxn_smarts="[C:1]([C@@:2]1([H:11])[C:3]([H:12])([H:13])[C@:4]2([C:5]([H:14])([H:15])[O:6]2)[C:7]1([H:16])[H:17])([H:8])([H:9])[H:10]>>[C:1]([C@@:2]1([H:11])[C:3]([H:12])([H:13])[C:5]([H:14])([H:15])[O+:6]=[C-:4][C:7]1([H:16])[H:17])([H:8])([H:9])[H:10]"
C       -2.13588241      -0.07771078       0.12936405
C       -0.70803110      -0.04980890      -0.38264411
C        0.23787652       0.92904871       0.33429833
C        1.22417122      -0.72392814       0.64485876
C        2.05439640       0.61941174      -0.23406126
O        2.51429865      -0.36695434       0.67666705
C        0.10073074      -1.32667029      -0.12368881
H       -2.14756021      -0.29072275       1.20163822
H       -2.63317292       0.88194896      -0.02894813
H       -2.71920484      -0.84915704      -0.37800783
H       -0.71836686       0.16775102      -1.45472223
H        0.18093604       1.92619753      -0.11499631
H       -0.03222337       1.11896688       1.37664977
H        2.26142225       0.38453524      -1.27698806
H        2.52834242       1.56020028       0.03898851
H       -0.38025194      -1.99631506       0.59856363
H        0.37251941      -1.90679306      -1.00697158
17
Frame=13 idx=009864 GeodesicLength=0.8635233764282365 rxn_smarts="[C:1]([C@@:2]1([H:11])[C:3]([H:12])([H:13])[C@:4]2([C:5]([H:14])([H:15])[O:6]2)[C:7]1([H:16])[H:17])([H:8])([H:9])[H:10]>>[C:1]([C@@:2]1([H:11])[C:3]([H:12])([H:13])[C:5]([H:14])([H:15])[O+:6]=[C-:4][C:7]1([H:16])[H:17])([H:8])([H:9])[H:10]"
C       -2.14037710      -0.07263174       0.11150239
C       -0.70426748      -0.05150309      -0.37720088
C        0.24043464       0.91945275       0.35065583
C        1.25175262      -0.74082546       0.61455525
C        2.05317025       0.63339596      -0.25391485
O        2.52584189      -0.35024920       0.66059351
C        0.09528547      -1.33214572      -0.10903229
H       -2.17200761      -0.28333496       1.18388644
H       -2.62998322       0.88946610      -0.05572169
H       -2.71845803      -0.84263471      -0.40401496
H       -0.69749361       0.16504051      -1.44965480
H        0.15600960       1.93057313      -0.06115244
H       -0.02117585       1.07305124       1.40164305
H        2.27660144       0.40247043      -1.29462012
H        2.52949198       1.57329568       0.01896308
H       -0.37683593      -1.97210607       0.64564911
H        0.33201093      -1.94131488      -0.98213664
17
Frame=14 idx=009864 GeodesicLength=0.9288405712802983 rxn_smarts="[C:1]([C@@:2]1([H:11])[C:3]([H:12])([H:13])[C@:4]2([C:5]([H:14])([H:15])[O:6]2)[C:7]1([H:16])[H:17])([H:8])([H:9])[H:10]>>[C:1]([C@@:2]1([H:11])[C:3]([H:12])([H:13])[C:5]([H:14])([H:15])[O+:6]=[C-:4][C:7]1([H:16])[H:17])([H:8])([H:9])[H:10]"
C       -2.14449490      -0.06756236       0.09380124
C       -0.70076839      -0.05325062      -0.37219406
C        0.24303701       0.90965107       0.36628158
C        1.27848932      -0.75785003       0.58142278
C        2.05157209       0.64765181      -0.27335523
O        2.53553511      -0.33422508       0.64464676
C        0.08977298      -1.33747109      -0.09446465
H       -2.19563996      -0.27542524       1.16604466
H       -2.62633503       0.89685779      -0.08237563
H       -2.71729978      -0.83649293      -0.42917163
H       -0.67720196       0.16185272      -1.44482795
H        0.13152570       1.93286541      -0.00704452
H       -0.00954100       1.02671507       1.42468036
H        2.29280057       0.42205202      -1.31157357
H        2.53024563       1.58624779       0.00084805
H       -0.37160206      -1.94597860       0.69255415
H        0.28990467      -1.97563773      -0.95527235
17
Frame=15 idx=009864 GeodesicLength=0.9940493691277504 rxn_smarts="[C:1]([C@@:2]1([H:11])[C:3]([H:12])([H:13])[C@:4]2([C:5]([H:14])([H:15])[O:6]2)[C:7]1([H:16])[H:17])([H:8])([H:9])[H:10]>>[C:1]([C@@:2]1([H:11])[C:3]([H:12])([H:13])[C:5]([H:14])([H:15])[O+:6]=[C-:4][C:7]1([H:16])[H:17])([H:8])([H:9])[H:10]"
C       -2.14827302      -0.06257650       0.07638446
C       -0.69758820      -0.05503237      -0.36767147
C        0.24563911       0.89977572       0.38098919
C        1.30413281      -0.77488978       0.54544412
C        2.04968550       0.66212051      -0.29226820
O        2.54319185      -0.31922485       0.62884898
C        0.08424111      -1.34256754      -0.08006558
H       -2.21833946      -0.26710852       1.14825918
H       -2.62233699       0.90402198      -0.10872811
H       -2.71581440      -0.83082146      -0.45330866
H       -0.65765170       0.15816425      -1.44031603
H        0.10750170       1.93312395       0.04686120
H        0.00263563       0.98037571       1.44557232
H        2.31011021       0.44332939      -1.32765794
H        2.53083698       1.59885244      -0.01502857
H       -0.36438083      -1.91802328       0.73896931
H        0.24640968      -2.00951966      -0.92628422
17
Frame=16 idx=009864 GeodesicLength=1.0591947729874613 rxn_smarts="[C:1]([C@@:2]1([H:11])[C:3]([H:12])([H:13])[C@:4]2([C:5]([H:14])([H:15])[O:6]2)[C:7]1([H:16])[H:17])([H:8])([H:9])[H:10]>>[C:1]([C@@:2]1([H:11])[C:3]([H:12])([H:13])[C:5]([H:14])([H:15])[O+:6]=[C-:4][C:7]1([H:16])[H:17])([H:8])([H:9])[H:10]"
C       -2.15176569      -0.05775435       0.05936492
C       -0.69478194      -0.05682548      -0.36367265
C        0.24818418       0.88997440       0.39460375
C        1.32842809      -0.79181537       0.50667194
C        2.04759329       0.67673493      -0.31055754
O        2.54866292      -0.30561721       0.61318863
C        0.07873987      -1.34735851      -0.06591041
H       -2.24002176      -0.25852102       1.13066951
H       -2.61812282       0.91085645      -0.13460695
H       -2.71409525      -0.82570830      -0.47629148
H       -0.63898617       0.15397238      -1.43618541
H        0.08392031       1.93142710       0.10018001
H        0.01529756       0.93446245       1.46413948
H        2.32858724       0.46630512      -1.34269961
H        2.53155302       1.61089173      -0.02839376
H       -0.35499455      -1.88831876       0.78455114
H        0.20180170      -2.04270554      -0.89505156
