13
Frame=0 idx=002310 GeodesicLength=0.0 rxn_smarts="[O:1]=[C:2]([N:3]([C:4]1([H:9])[C:5]([H:10])([H:11])[C:6]1([H:12])[H:13])[H:8])[H:7]>>[O:1]=[C:2]=[N:3][C:4]([C:6]([C:5]([H:8])([H:10])[H:11])([H:12])[H:13])([H:7])[H:9]"
O        3.06346620      -1.41136501      -0.28057092
C        2.04584219      -0.83456831      -0.39750206
N        1.09666045      -0.30874752       0.38027614
C        0.22129127       0.39412921      -0.52132781
C       -1.37082692       0.44311560       0.88873151
C       -1.24076038      -0.04636689      -0.47118950
H        0.89232064      -0.06277246      -1.46412254
H        1.04187035      -0.25607226       1.39572914
H        0.35526254       1.47611287      -0.51309462
H       -1.28719602      -0.22164781       1.73596579
H       -1.66882012       1.46504366       1.07570610
H       -1.81909130       0.48708078      -1.22411283
H       -1.33001884      -1.12394187      -0.60448835
13
Frame=1 idx=002310 GeodesicLength=0.11718935233597177 rxn_smarts="[O:1]=[C:2]([N:3]([C:4]1([H:9])[C:5]([H:10])([H:11])[C:6]1([H:12])[H:13])[H:8])[H:7]>>[O:1]=[C:2]=[N:3][C:4]([C:6]([C:5]([H:8])([H:10])[H:11])([H:12])[H:13])([H:7])[H:9]"
O        3.03735364      -1.44824658      -0.25738934
C        2.04346572      -0.83421535      -0.39510641
N        1.11935500      -0.25795321       0.36768325
C        0.21945695       0.41492560      -0.53202412
C       -1.33787571       0.43573279       0.89752550
C       -1.23327633      -0.04786056      -0.47041827
H        0.89833505      -0.06959412      -1.47793902
H        0.99482144      -0.25031727       1.39958496
H        0.34209393       1.49798209      -0.54014989
H       -1.29530855      -0.24978688       1.73120285
H       -1.65032574       1.45215100       1.09231954
H       -1.83082248       0.48328767      -1.20942374
H       -1.30727292      -1.12610517      -0.60586530
13
Frame=2 idx=002310 GeodesicLength=0.23452653899914322 rxn_smarts="[O:1]=[C:2]([N:3]([C:4]1([H:9])[C:5]([H:10])([H:11])[C:6]1([H:12])[H:13])[H:8])[H:7]>>[O:1]=[C:2]=[N:3][C:4]([C:6]([C:5]([H:8])([H:10])[H:11])([H:12])[H:13])([H:7])[H:9]"
O        3.00836863      -1.48462711      -0.23386269
C        2.04037548      -0.83366428      -0.39173365
N        1.14129815      -0.20979157       0.35486358
C        0.21746580       0.43514310      -0.54115808
C       -1.30597656       0.42760986       0.90585240
C       -1.22563981      -0.04970049      -0.46971233
H        0.90464981      -0.07555312      -1.49062451
H        0.95177976      -0.24197736       1.39916784
H        0.32860561       1.51896093      -0.56398837
H       -1.30256915      -0.27571373       1.72579352
H       -1.63232168       1.43850645       1.10819886
H       -1.84154462       0.47910546      -1.19477646
H       -1.28449142      -1.12829815      -0.60802011
13
Frame=3 idx=002310 GeodesicLength=0.35193446690031105 rxn_smarts="[O:1]=[C:2]([N:3]([C:4]1([H:9])[C:5]([H:10])([H:11])[C:6]1([H:12])[H:13])[H:8])[H:7]>>[O:1]=[C:2]=[N:3][C:4]([C:6]([C:5]([H:8])([H:10])[H:11])([H:12])[H:13])([H:7])[H:9]"
O        2.97939633      -1.51728993      -0.20984068
C        2.03713170      -0.83309470      -0.38777947
N        1.16130395      -0.16664152       0.34143571
C        0.21513487       0.45397922      -0.54907275
C       -1.27519793       0.41903815       0.91366340
C       -1.21848665      -0.05147191      -0.46924912
H        0.91071472      -0.08215596      -1.50258070
H        0.91275113      -0.23128961       1.39614872
H        0.31570256       1.53822145      -0.58460103
H       -1.30947540      -0.29952810       1.71977613
H       -1.61396930       1.42468419       1.12354547
H       -1.85157921       0.47559900      -1.18022397
H       -1.26342676      -1.13005028      -0.61122171
13
Frame=4 idx=002310 GeodesicLength=0.4693735525457047 rxn_smarts="[O:1]=[C:2]([N:3]([C:4]1([H:9])[C:5]([H:10])([H:11])[C:6]1([H:12])[H:13])[H:8])[H:7]>>[O:1]=[C:2]=[N:3][C:4]([C:6]([C:5]([H:8])([H:10])[H:11])([H:12])[H:13])([H:7])[H:9]"
O        2.95060555      -1.54663206      -0.18567143
C        2.03417123      -0.83214791      -0.38356840
N        1.17950305      -0.12807243       0.32734598
C        0.21245625       0.47162989      -0.55596897
C       -1.24551115       0.41015636       0.92091268
C       -1.21181402      -0.05319678      -0.46903548
H        0.91649469      -0.08942055      -1.51402478
H        0.87718221      -0.21908278       1.39192640
H        0.30336855       1.55604811      -0.60234589
H       -1.31609265      -0.32126671       1.71327485
H       -1.59532750       1.41085417       1.13825515
H       -1.86106665       0.47258456      -1.16584238
H       -1.24396957      -1.13145386      -0.61525772
13
Frame=5 idx=002310 GeodesicLength=0.5868213697618712 rxn_smarts="[O:1]=[C:2]([N:3]([C:4]1([H:9])[C:5]([H:10])([H:11])[C:6]1([H:12])[H:13])[H:8])[H:7]>>[O:1]=[C:2]=[N:3][C:4]([C:6]([C:5]([H:8])([H:10])[H:11])([H:12])[H:13])([H:7])[H:9]"
O        2.92264941      -1.57245390      -0.16158740
C        2.03138631      -0.83115022      -0.37934528
N        1.19618319      -0.09346818       0.31260672
C        0.20944516       0.48826846      -0.56196455
C       -1.21687112       0.40117011       0.92759988
C       -1.20560232      -0.05485602      -0.46903040
H        0.92193212      -0.09738156      -1.52510893
H        0.84433093      -0.20656511       1.38732029
H        0.29159004       1.57268126      -0.61761400
H       -1.32255985      -0.34088184       1.70642023
H       -1.57641330       1.39726192       1.15224800
H       -1.87009633       0.46992954      -1.15167161
H       -1.22597425      -1.13255447      -0.61987294
13
Frame=6 idx=002310 GeodesicLength=0.7042600932309648 rxn_smarts="[O:1]=[C:2]([N:3]([C:4]1([H:9])[C:5]([H:10])([H:11])[C:6]1([H:12])[H:13])[H:8])[H:7]>>[O:1]=[C:2]=[N:3][C:4]([C:6]([C:5]([H:8])([H:10])[H:11])([H:12])[H:13])([H:7])[H:9]"
O        2.89581902      -1.59495004      -0.13774486
C        2.02868756      -0.83025770      -0.37525365
N        1.21165345      -0.06217339       0.29724489
C        0.20612733       0.50408545      -0.56712845
C       -1.18922928       0.39220974       0.93374346
C       -1.19979163      -0.05645949      -0.46919327
H        0.92701842      -0.10597833      -1.53593746
H        0.81363142      -0.19456300       1.38280554
H        0.28028605       1.58836766      -0.63073547
H       -1.32897640      -0.35839145       1.69931950
H       -1.55729702       1.38405067       1.16548286
H       -1.87872191       0.46747482      -1.13773672
H       -1.20920700      -1.13341493      -0.62486637
13
Frame=7 idx=002310 GeodesicLength=0.8216821329111427 rxn_smarts="[O:1]=[C:2]([N:3]([C:4]1([H:9])[C:5]([H:10])([H:11])[C:6]1([H:12])[H:13])[H:8])[H:7]>>[O:1]=[C:2]=[N:3][C:4]([C:6]([C:5]([H:8])([H:10])[H:11])([H:12])[H:13])([H:7])[H:9]"
O        2.87041331      -1.61427087      -0.11423701
C        2.02596410      -0.82961271      -0.37137733
N        1.22616398      -0.03366821       0.28127379
C        0.20252728       0.51922253      -0.57150145
C       -1.16254805       0.38337577       0.93937330
C       -1.19433759      -0.05800265      -0.46948889
H        0.93173873      -0.11518625      -1.54658803
H        0.78463162      -0.18370284       1.37865703
H        0.26939673       1.60328568      -0.64197778
H       -1.33544547      -0.37383016       1.69205668
H       -1.53803031       1.37133196       1.17795083
H       -1.88697989       0.46512674      -1.12405248
H       -1.19349441      -1.13406898      -0.63008866
13
Frame=8 idx=002310 GeodesicLength=0.9390929342139647 rxn_smarts="[O:1]=[C:2]([N:3]([C:4]1([H:9])[C:5]([H:10])([H:11])[C:6]1([H:12])[H:13])[H:8])[H:7]>>[O:1]=[C:2]=[N:3][C:4]([C:6]([C:5]([H:8])([H:10])[H:11])([H:12])[H:13])([H:7])[H:9]"
O        2.84628711      -1.63088930      -0.09113933
C        2.02323097      -0.82914620      -0.36774870
N        1.23994934      -0.00743112       0.26469520
C        0.19867432       0.53383782      -0.57511052
C       -1.13678232       0.37471094       0.94452342
C       -1.18915964      -0.05951710      -0.46989188
H        0.93613064      -0.12491003      -1.55712212
H        0.75703562      -0.17428918       1.37506080
H        0.25881354       1.61762360      -0.65155874
H       -1.34199771      -0.38728571       1.68469974
H       -1.51870913       1.35913357       1.18965838
H       -1.89488532       0.46274190      -1.11063629
H       -1.17858743      -1.13457920      -0.63542995
13
Frame=9 idx=002310 GeodesicLength=1.0564903882292458 rxn_smarts="[O:1]=[C:2]([N:3]([C:4]1([H:9])[C:5]([H:10])([H:11])[C:6]1([H:12])[H:13])[H:8])[H:7]>>[O:1]=[C:2]=[N:3][C:4]([C:6]([C:5]([H:8])([H:10])[H:11])([H:12])[H:13])([H:7])[H:9]"
O        2.82342245      -1.64507505      -0.06848930
C        2.02046888      -0.82884555      -0.36438448
N        1.25317629       0.01691377       0.24748816
C        0.19459448       0.54803368      -0.57797280
C       -1.11189279       0.36625057       0.94922798
C       -1.18420468      -0.06100970      -0.47038008
H        0.94020785      -0.13512466      -1.56758823
H        0.73058947      -0.16655724       1.37213609
H        0.24847921       1.63149603      -0.65965320
H       -1.34868361      -0.39884024       1.67729040
H       -1.49938154       1.34747716       1.20062801
H       -1.90244542       0.46024990      -1.09749114
H       -1.16433059      -1.13496867      -0.64081143
13
Frame=10 idx=002310 GeodesicLength=1.1738662864608655 rxn_smarts="[O:1]=[C:2]([N:3]([C:4]1([H:9])[C:5]([H:10])([H:11])[C:6]1([H:12])[H:13])[H:8])[H:7]>>[O:1]=[C:2]=[N:3][C:4]([C:6]([C:5]([H:8])([H:10])[H:11])([H:12])[H:13])([H:7])[H:9]"
O        2.80213245      -1.65681026      -0.04627807
C        2.01762389      -0.82878136      -0.36130903
N        1.26594701       0.03957186       0.22962699
C        0.19030363       0.56184853      -0.58010497
C       -1.08784792       0.35804130       0.95353064
C       -1.17946988      -0.06244883      -0.47093950
H        0.94393312      -0.14591634      -1.57803697
H        0.70503448      -0.16082117       1.36995414
H        0.23839237       1.64495719      -0.66640747
H       -1.35562987      -0.40853417       1.66986016
H       -1.48002792       1.33643260       1.21091040
H       -1.90968724       0.45768663      -1.08461758
H       -1.15070410      -1.13522599      -0.64618874
13
Frame=11 idx=002310 GeodesicLength=1.291216473170276 rxn_smarts="[O:1]=[C:2]([N:3]([C:4]1([H:9])[C:5]([H:10])([H:11])[C:6]1([H:12])[H:13])[H:8])[H:7]>>[O:1]=[C:2]=[N:3][C:4]([C:6]([C:5]([H:8])([H:10])[H:11])([H:12])[H:13])([H:7])[H:9]"
O        2.78253705      -1.66619136      -0.02449691
C        2.01468135      -0.82895177      -0.35852265
N        1.27835592       0.06076028       0.21106916
C        0.18582222       0.57533018      -0.58151788
C       -1.06461442       0.35010059       0.95747072
C       -1.17493513      -0.06381732      -0.47155700
H        0.94729186      -0.15734235      -1.58850518
H        0.68016753      -0.15726607       1.36856397
H        0.22853523       1.65806117      -0.67194575
H       -1.36292171      -0.41642187       1.66242393
H       -1.46064260       1.32602065       1.22055539
H       -1.91662277       0.45506360      -1.07200994
H       -1.13765452      -1.13534574      -0.65152786
13
Frame=12 idx=002310 GeodesicLength=1.4085373099515206 rxn_smarts="[O:1]=[C:2]([N:3]([C:4]1([H:9])[C:5]([H:10])([H:11])[C:6]1([H:12])[H:13])[H:8])[H:7]>>[O:1]=[C:2]=[N:3][C:4]([C:6]([C:5]([H:8])([H:10])[H:11])([H:12])[H:13])([H:7])[H:9]"
O        2.76470758      -1.67331867      -0.00312391
C        2.01164386      -0.82933224      -0.35601647
N        1.29048343       0.08067313       0.19176097
C        0.18117077       0.58852115      -0.58222047
C       -1.04215732       0.34243222       0.96108734
C       -1.17058058      -0.06509953      -0.47222301
H        0.95027318      -0.16946599      -1.59902420
H        0.65581315      -0.15603209       1.36799868
H        0.21888852       1.67085542      -0.67637545
H       -1.37063232      -0.42255502       1.65498630
H       -1.44121235       1.31624687       1.22961943
H       -1.92326321       0.45239737      -1.05966023
H       -1.12513472      -1.13532261      -0.65680897
13
Frame=13 idx=002310 GeodesicLength=1.5258250845711503 rxn_smarts="[O:1]=[C:2]([N:3]([C:4]1([H:9])[C:5]([H:10])([H:11])[C:6]1([H:12])[H:13])[H:8])[H:7]>>[O:1]=[C:2]=[N:3][C:4]([C:6]([C:5]([H:8])([H:10])[H:11])([H:12])[H:13])([H:7])[H:9]"
O        2.74881090      -1.67819338       0.01787688
C        2.00849999      -0.82992198      -0.35377386
N        1.30238587       0.09945068       0.17163831
C        0.17636852       0.60144409      -0.58222035
C       -1.02044396       0.33503471       0.96441924
C       -1.16640160      -0.06626585      -0.47293073
H        0.95285006      -0.18239213      -1.60961769
H        0.63179157      -0.15728100       1.36827180
H        0.20945133       1.68336569      -0.67978978
H       -1.37885161      -0.42696664       1.64753975
H       -1.42169570       1.30711980       1.23816837
H       -1.92962257       0.44974198      -1.04755549
H       -1.11314281      -1.13513598      -0.66202646
13
Frame=14 idx=002310 GeodesicLength=1.643076830527916 rxn_smarts="[O:1]=[C:2]([N:3]([C:4]1([H:9])[C:5]([H:10])([H:11])[C:6]1([H:12])[H:13])[H:8])[H:7]>>[O:1]=[C:2]=[N:3][C:4]([C:6]([C:5]([H:8])([H:10])[H:11])([H:12])[H:13])([H:7])[H:9]"
O        2.73497459      -1.68081374       0.03854994
C        2.00524994      -0.83070172      -0.35176751
N        1.31411110       0.11722434       0.15062530
C        0.17143608       0.61411981      -0.58152427
C       -0.99943958       0.32789433       0.96750333
C       -1.16239290      -0.06728749      -0.47367571
H        0.95499865      -0.19623395      -1.62030123
H        0.60793167      -0.16115682       1.36938366
H        0.20022056       1.69561479      -0.68227135
H       -1.38765570      -0.42968323       1.64006916
H       -1.40204065       1.29863393       1.24627269
H       -1.93571336       0.44715438      -1.03567946
H       -1.10168040      -1.13476463      -0.66718454
13
Frame=15 idx=002310 GeodesicLength=1.760290513496354 rxn_smarts="[O:1]=[C:2]([N:3]([C:4]1([H:9])[C:5]([H:10])([H:11])[C:6]1([H:12])[H:13])[H:8])[H:7]>>[O:1]=[C:2]=[N:3][C:4]([C:6]([C:5]([H:8])([H:10])[H:11])([H:12])[H:13])([H:7])[H:9]"
O        2.72334183      -1.68113562       0.05894683
C        2.00189545      -0.83165003      -0.34995768
N        1.32569527       0.13410583       0.12863389
C        0.16639506       0.62656214      -0.58013856
C       -0.97910787       0.32098822       0.97037457
C       -1.15855419      -0.06813015      -0.47445584
H        0.95669042      -0.21112901      -1.63108006
H        0.58405648      -0.16781351       1.37131944
H        0.19119784       1.70761773      -0.68389335
H       -1.39711758      -0.43071879       1.63255122
H       -1.38217656       1.29077661       1.25400901
H       -1.94154850       0.44470751      -1.02401182
H       -1.09076764      -1.13418093      -0.67229766
13
Frame=16 idx=002310 GeodesicLength=1.8774655246590908 rxn_smarts="[O:1]=[C:2]([N:3]([C:4]1([H:9])[C:5]([H:10])([H:11])[C:6]1([H:12])[H:13])[H:8])[H:7]>>[O:1]=[C:2]=[N:3][C:4]([C:6]([C:5]([H:8])([H:10])[H:11])([H:12])[H:13])([H:7])[H:9]"
O        2.71403567      -1.67909268       0.07912834
C        1.99844562      -0.83273276      -0.34829077
N        1.33716717       0.15019970       0.10556077
C        0.16126880       0.63878279      -0.57807022
C       -0.95940811       0.31428194       0.97306539
C       -1.15488619      -0.06875700      -0.47527150
H        0.95789641      -0.22723430      -1.64194791
H        0.55998340      -0.17740653       1.37404953
H        0.18238404       1.71938693      -0.68472109
H       -1.40729663      -0.43007981       1.62495521
H       -1.36201614       1.28352247       1.26146038
H       -1.94714060       0.44248287      -1.01252754
H       -1.08043344      -1.13335362      -0.67739058
