15
Frame=0 idx=011382 GeodesicLength=0.0 rxn_smarts="[C:1]([C@@:2]12[C:3]([H:11])([H:12])[C@@:4]3([H:13])[O:5][C@:6]1([H:14])[C@@:7]23[H:15])([H:8])([H:9])[H:10]>>[C:1]([C:2]12[C:3]([H:11])([H:12])[C:4]([H:13])([O+:5]=[C-:6]1)[C:7]2([H:14])[H:15])([H:8])([H:9])[H:10]"
C        1.86468503       0.29614008       0.20204195
C        0.39072987       0.17868440      -0.02338159
C       -0.72867790       0.62793638       0.91677492
C       -1.62078172      -0.18907378      -0.02668329
O       -1.56991836       0.54519636      -1.24073645
C       -0.17906478       0.32826305      -1.45064066
C       -0.37493416      -1.06763642      -0.36145721
H        2.16158637      -0.15739498       1.15020032
H        2.41465406      -0.19285205      -0.60384002
H        2.16194274       1.34634812       0.21534891
H       -0.95509780       1.69273700       0.99521370
H       -0.63450594       0.17098238       1.90230933
H       -2.61781039      -0.53788680       0.23034010
H       -0.23537745      -0.94100011      -1.69553568
H       -0.07742960      -2.10044359      -0.20995432
15
Frame=1 idx=011382 GeodesicLength=0.04703879633991619 rxn_smarts="[C:1]([C@@:2]12[C:3]([H:11])([H:12])[C@@:4]3([H:13])[O:5][C@:6]1([H:14])[C@@:7]23[H:15])([H:8])([H:9])[H:10]>>[C:1]([C:2]12[C:3]([H:11])([H:12])[C:4]([H:13])([O+:5]=[C-:6]1)[C:7]2([H:14])[H:15])([H:8])([H:9])[H:10]"
C        1.86477600       0.29687766       0.20034323
C        0.39078907       0.17991160      -0.02492838
C       -0.72891953       0.62544698       0.91749541
C       -1.62089163      -0.19028554      -0.02677323
O       -1.56904156       0.55068879      -1.24016291
C       -0.18228590       0.33379732      -1.44880560
C       -0.37669540      -1.06784206      -0.36492192
H        2.16128142      -0.15755430       1.14819181
H        2.41554709      -0.19216005      -0.60500495
H        2.16208256       1.34709020       0.21397659
H       -0.95521723       1.69010305       0.99831392
H       -0.63283422       0.16541157       1.90140607
H       -2.61904747      -0.53760661       0.22740091
H       -0.22657897      -0.94627963      -1.70674183
H       -0.08296423      -2.09759899      -0.18978911
15
Frame=2 idx=011382 GeodesicLength=0.09407817302982088 rxn_smarts="[C:1]([C@@:2]12[C:3]([H:11])([H:12])[C@@:4]3([H:13])[O:5][C@:6]1([H:14])[C@@:7]23[H:15])([H:8])([H:9])[H:10]>>[C:1]([C:2]12[C:3]([H:11])([H:12])[C:4]([H:13])([O+:5]=[C-:6]1)[C:7]2([H:14])[H:15])([H:8])([H:9])[H:10]"
C        1.86485941       0.29760451       0.19863809
C        0.39083979       0.18111160      -0.02647367
C       -0.72915410       0.62293400       0.91821411
C       -1.62099381      -0.19154006      -0.02684413
O       -1.56819458       0.55615597      -1.23954079
C       -0.18552187       0.33928899      -1.44694422
C       -0.37844448      -1.06811075      -0.36839879
H        2.16097729      -0.15771767       1.14617647
H        2.41644092      -0.19147458      -0.60617191
H        2.16220466       1.34782443       0.21259084
H       -0.95533215       1.68743993       1.00140680
H       -0.63114462       0.15984241       1.90049561
H       -2.62026534      -0.53735832       0.22449918
H       -0.21755622      -0.95164221      -1.71797016
H       -0.08871489      -2.09435825      -0.16967743
15
Frame=3 idx=011382 GeodesicLength=0.14111847750544035 rxn_smarts="[C:1]([C@@:2]12[C:3]([H:11])([H:12])[C@@:4]3([H:13])[O:5][C@:6]1([H:14])[C@@:7]23[H:15])([H:8])([H:9])[H:10]>>[C:1]([C:2]12[C:3]([H:11])([H:12])[C:4]([H:13])([O+:5]=[C-:6]1)[C:7]2([H:14])[H:15])([H:8])([H:9])[H:10]"
C        1.86493431       0.29832018       0.19692885
C        0.39088096       0.18228486      -0.02801469
C       -0.72938223       0.62040298       0.91893245
C       -1.62108973      -0.19283524      -0.02689122
O       -1.56737876       0.56159497      -1.23886835
C       -0.18877428       0.34473375      -1.44505375
C       -0.38018388      -1.06844291      -0.37187770
H        2.16067273      -0.15788259       1.14415823
H        2.41733400      -0.19079944      -0.60733708
H        2.16230920       1.34855019       0.21119031
H       -0.95544230       1.68475383       1.00448959
H       -0.62943792       0.15428442       1.89958160
H       -2.62146547      -0.53713898       0.22164155
H       -0.20830729      -0.95709977      -1.72921193
H       -0.09466936      -2.09072624      -0.14966787
15
Frame=4 idx=011382 GeodesicLength=0.18816711970484104 rxn_smarts="[C:1]([C@@:2]12[C:3]([H:11])([H:12])[C@@:4]3([H:13])[O:5][C@:6]1([H:14])[C@@:7]23[H:15])([H:8])([H:9])[H:10]>>[C:1]([C:2]12[C:3]([H:11])([H:12])[C:4]([H:13])([O+:5]=[C-:6]1)[C:7]2([H:14])[H:15])([H:8])([H:9])[H:10]"
C        1.86499968       0.29902431       0.19521763
C        0.39091135       0.18343244      -0.02954892
C       -0.72960517       0.61786087       0.91965347
C       -1.62118124      -0.19416822      -0.02690937
O       -1.56659552       0.56700474      -1.23814553
C       -0.19204455       0.35012839      -1.44313374
C       -0.38191613      -1.06883965      -0.37534907
H        2.16036620      -0.15804771       1.14214207
H        2.41822513      -0.19013890      -0.60849825
H        2.16239613       1.34926837       0.20977381
H       -0.95554829       1.68205411       1.00756138
H       -0.62771568       0.14874749       1.89867068
H       -2.62264973      -0.53694532       0.21883560
H       -0.19882926      -0.96266580      -1.74046083
H       -0.10081291      -2.08671513      -0.12980892
15
Frame=5 idx=011382 GeodesicLength=0.23520896449213782 rxn_smarts="[C:1]([C@@:2]12[C:3]([H:11])([H:12])[C@@:4]3([H:13])[O:5][C@:6]1([H:14])[C@@:7]23[H:15])([H:8])([H:9])[H:10]>>[C:1]([C:2]12[C:3]([H:11])([H:12])[C:4]([H:13])([O+:5]=[C-:6]1)[C:7]2([H:14])[H:15])([H:8])([H:9])[H:10]"
C        1.86505415       0.29971656       0.19350756
C        0.39092958       0.18455465      -0.03107249
C       -0.72982223       0.61531145       0.92037602
C       -1.62127021      -0.19553644      -0.02689374
O       -1.56584650       0.57237963      -1.23736709
C       -0.19533542       0.35546692      -1.44117631
C       -0.38364594      -1.06929773      -0.37880018
H        2.16005579      -0.15820493       1.14013203
H        2.41911086      -0.18949895      -0.60964571
H        2.16246691       1.34997518       0.20833672
H       -0.95564717       1.67934179       1.01061628
H       -0.62597705       0.14324085       1.89776052
H       -2.62381972      -0.53677363       0.21608646
H       -0.18912252      -0.96835147      -1.75170056
H       -0.10713053      -2.08232387      -0.11015950
15
Frame=6 idx=011382 GeodesicLength=0.28224272300398945 rxn_smarts="[C:1]([C@@:2]12[C:3]([H:11])([H:12])[C@@:4]3([H:13])[O:5][C@:6]1([H:14])[C@@:7]23[H:15])([H:8])([H:9])[H:10]>>[C:1]([C:2]12[C:3]([H:11])([H:12])[C:4]([H:13])([O+:5]=[C-:6]1)[C:7]2([H:14])[H:15])([H:8])([H:9])[H:10]"
C        1.86509689       0.30039797       0.19179685
C        0.39093465       0.18565226      -0.03258616
C       -0.73003394       0.61275563       0.92110026
C       -1.62135919      -0.19693462      -0.02684402
O       -1.56513172       0.57772219      -1.23653227
C       -0.19864761       0.36074789      -1.43918052
C       -0.38537743      -1.06981322      -0.38222771
H        2.15974112      -0.15835808       1.13812216
H        2.41999238      -0.18887068      -0.61078343
H        2.16251862       1.35067087       0.20688609
H       -0.95573794       1.67661696       1.01365509
H       -0.62422140       0.13776451       1.89685005
H       -2.62497904      -0.53661543       0.21339547
H       -0.17918030      -0.97416576      -1.76292479
H       -0.11361511      -2.07757048      -0.09072706
15
Frame=7 idx=011382 GeodesicLength=0.32930786767865927 rxn_smarts="[C:1]([C@@:2]12[C:3]([H:11])([H:12])[C@@:4]3([H:13])[O:5][C@:6]1([H:14])[C@@:7]23[H:15])([H:8])([H:9])[H:10]>>[C:1]([C:2]12[C:3]([H:11])([H:12])[C:4]([H:13])([O+:5]=[C-:6]1)[C:7]2([H:14])[H:15])([H:8])([H:9])[H:10]"
C        1.86512645       0.30106878       0.19008821
C        0.39092477       0.18672791      -0.03408683
C       -0.73024305       0.61020587       0.92183693
C       -1.62145079      -0.19835867      -0.02675382
O       -1.56445281       0.58303821      -1.23564856
C       -0.20198251       0.36597148      -1.43715536
C       -0.38711306      -1.07039311      -0.38562324
H        2.15942066      -0.15850591       1.13612595
H        2.42086759      -0.18826561      -0.61191290
H        2.16255104       1.35136352       0.20541572
H       -0.95582381       1.67390202       1.01668629
H       -0.62245234       0.13232919       1.89595987
H       -2.62613038      -0.53646840       0.21077197
H       -0.16899707      -0.98013055      -1.77413715
H       -0.12024469      -2.07248472      -0.07156707
15
Frame=8 idx=011382 GeodesicLength=0.37634326057122786 rxn_smarts="[C:1]([C@@:2]12[C:3]([H:11])([H:12])[C@@:4]3([H:13])[O:5][C@:6]1([H:14])[C@@:7]23[H:15])([H:8])([H:9])[H:10]>>[C:1]([C:2]12[C:3]([H:11])([H:12])[C:4]([H:13])([O+:5]=[C-:6]1)[C:7]2([H:14])[H:15])([H:8])([H:9])[H:10]"
C        1.86514178       0.30172844       0.18838341
C        0.39089878       0.18778156      -0.03556995
C       -0.73044792       0.60765858       0.92257531
C       -1.62154718      -0.19980530      -0.02661914
O       -1.56380993       0.58831610      -1.23469851
C       -0.20534192       0.37112949      -1.43507835
C       -0.38885931      -1.07102213      -0.38897128
H        2.15909306      -0.15863681       1.13413547
H        2.42173149      -0.18768340      -0.61301850
H        2.16256780       1.35203900       0.20391915
H       -0.95589943       1.67117929       1.01969484
H       -0.62066952       0.12694023       1.89506727
H       -2.62727623      -0.53632673       0.20821495
H       -0.15857295      -0.98624795      -1.78530278
H       -0.12700853      -2.06705036      -0.05273190
15
Frame=9 idx=011382 GeodesicLength=0.42340289950669546 rxn_smarts="[C:1]([C@@:2]12[C:3]([H:11])([H:12])[C@@:4]3([H:13])[O:5][C@:6]1([H:14])[C@@:7]23[H:15])([H:8])([H:9])[H:10]>>[C:1]([C:2]12[C:3]([H:11])([H:12])[C:4]([H:13])([O+:5]=[C-:6]1)[C:7]2([H:14])[H:15])([H:8])([H:9])[H:10]"
C        1.86514120       0.30237885       0.18668181
C        0.39085452       0.18881727      -0.03703565
C       -0.73065210       0.60512543       0.92332799
C       -1.62165169      -0.20126785      -0.02643868
O       -1.56320383       0.59356875      -1.23369651
C       -0.20872669       0.37622530      -1.43296654
C       -0.39061901      -1.07170761      -0.39227122
H        2.15876064      -0.15877096       1.13215167
H        2.42258354      -0.18711504      -0.61411891
H        2.16256319       1.35271081       0.20240872
H       -0.95596750       1.66847370       1.02269502
H       -0.61887520       0.12160356       1.89419660
H       -2.62842115      -0.53618470       0.20572605
H       -0.14789736      -0.99254176      -1.79643404
H       -0.13388856      -2.06131574      -0.03422630
15
Frame=10 idx=011382 GeodesicLength=0.4704732800012227 rxn_smarts="[C:1]([C@@:2]12[C:3]([H:11])([H:12])[C@@:4]3([H:13])[O:5][C@:6]1([H:14])[C@@:7]23[H:15])([H:8])([H:9])[H:10]>>[C:1]([C:2]12[C:3]([H:11])([H:12])[C:4]([H:13])([O+:5]=[C-:6]1)[C:7]2([H:14])[H:15])([H:8])([H:9])[H:10]"
C        1.86512296       0.30301958       0.18498208
C        0.39078980       0.18983496      -0.03848272
C       -0.73085632       0.60260593       0.92409345
C       -1.62176821      -0.20274036      -0.02621137
O       -1.56263452       0.59879823      -1.23263737
C       -0.21213823       0.38125691      -1.43081389
C       -0.39239916      -1.07244250      -0.39551784
H        2.15842217      -0.15890842       1.13016845
H        2.42341969      -0.18655475      -0.61521616
H        2.16253573       1.35337459       0.20088515
H       -0.95602237       1.66578176       1.02568641
H       -0.61707146       0.11631783       1.89334185
H       -2.62956970      -0.53603553       0.20330254
H       -0.13696062      -0.99902198      -1.80751620
H       -0.14086976      -2.05528626      -0.01606437
15
Frame=11 idx=011382 GeodesicLength=0.5175469969790104 rxn_smarts="[C:1]([C@@:2]12[C:3]([H:11])([H:12])[C@@:4]3([H:13])[O:5][C@:6]1([H:14])[C@@:7]23[H:15])([H:8])([H:9])[H:10]>>[C:1]([C:2]12[C:3]([H:11])([H:12])[C:4]([H:13])([O+:5]=[C-:6]1)[C:7]2([H:14])[H:15])([H:8])([H:9])[H:10]"
C        1.86508652       0.30365191       0.18328634
C        0.39070415       0.19083778      -0.03991026
C       -0.73105944       0.60010412       0.92487228
C       -1.62189802      -0.20422003      -0.02593344
O       -1.56210454       0.60400505      -1.23151743
C       -0.21557936       0.38622752      -1.42861722
C       -0.39420329      -1.07322151      -0.39870703
H        2.15807389      -0.15903280       1.12819532
H        2.42423899      -0.18601749      -0.61629671
H        2.16249019       1.35402993       0.19933632
H       -0.95606677       1.66310577       1.02866880
H       -0.61525689       0.11108738       1.89250268
H       -2.63072246      -0.53587575       0.20095311
H       -0.12576305      -1.00569602      -1.81854167
H       -0.14793991      -2.04898587       0.00170892
15
Frame=12 idx=011382 GeodesicLength=0.564626731315786 rxn_smarts="[C:1]([C@@:2]12[C:3]([H:11])([H:12])[C@@:4]3([H:13])[O:5][C@:6]1([H:14])[C@@:7]23[H:15])([H:8])([H:9])[H:10]>>[C:1]([C:2]12[C:3]([H:11])([H:12])[C:4]([H:13])([O+:5]=[C-:6]1)[C:7]2([H:14])[H:15])([H:8])([H:9])[H:10]"
C        1.86502975       0.30427495       0.18159593
C        0.39059612       0.19182773      -0.04131784
C       -0.73126251       0.59762563       0.92566771
C       -1.62204308      -0.20570225      -0.02559963
O       -1.56161667       0.60919187      -1.23033582
C       -0.21905256       0.39113984      -1.42637710
C       -0.39603419      -1.07404143      -0.40183471
H        2.15771196      -0.15913603       1.12624018
H        2.42504026      -0.18551215      -0.61735597
H        2.16242783       1.35467569       0.19775734
H       -0.95610205       1.66045318       1.03164255
H       -0.61343290       0.10592044       1.89168529
H       -2.63188014      -0.53570226       0.19868637
H       -0.11430107      -1.01257628      -1.82950591
H       -0.15508076      -2.04243894       0.01905162
15
Frame=13 idx=011382 GeodesicLength=0.6117126068376337 rxn_smarts="[C:1]([C@@:2]12[C:3]([H:11])([H:12])[C@@:4]3([H:13])[O:5][C@:6]1([H:14])[C@@:7]23[H:15])([H:8])([H:9])[H:10]>>[C:1]([C:2]12[C:3]([H:11])([H:12])[C:4]([H:13])([O+:5]=[C-:6]1)[C:7]2([H:14])[H:15])([H:8])([H:9])[H:10]"
C        1.86495185       0.30489038       0.17990987
C        0.39046372       0.19280731      -0.04270465
C       -0.73146606       0.59517221       0.92648074
C       -1.62220734      -0.20718137      -0.02521076
O       -1.56117181       0.61436451      -1.22909240
C       -0.22255994       0.39599564      -1.42409259
C       -0.39789868      -1.07489733      -0.40489856
H        2.15733708      -0.15922351       1.12429755
H        2.42582021      -0.18503346      -0.61839737
H        2.16234700       1.35531369       0.19614991
H       -0.95612578       1.65782544       1.03461206
H       -0.61159955       0.10081402       1.89088800
H       -2.63304805      -0.53550726       0.19649904
H       -0.10256563      -1.01967623      -1.84039948
H       -0.16227703      -2.03566405       0.03595863
15
Frame=14 idx=011382 GeodesicLength=0.6588085366052647 rxn_smarts="[C:1]([C@@:2]12[C:3]([H:11])([H:12])[C@@:4]3([H:13])[O:5][C@:6]1([H:14])[C@@:7]23[H:15])([H:8])([H:9])[H:10]>>[C:1]([C:2]12[C:3]([H:11])([H:12])[C:4]([H:13])([O+:5]=[C-:6]1)[C:7]2([H:14])[H:15])([H:8])([H:9])[H:10]"
C        1.86485109       0.30549964       0.17822389
C        0.39030534       0.19377822      -0.04407268
C       -0.73167111       0.59274386       0.92731257
C       -1.62239345      -0.20865162      -0.02476831
O       -1.56077030       0.61953110      -1.22778737
C       -0.22610262       0.40080018      -1.42176554
C       -0.39980109      -1.07578412      -0.40790255
H        2.15694897      -0.15929967       1.12236012
H        2.42657743      -0.18457886      -0.61942625
H        2.16224482       1.35594550       0.19451562
H       -0.95613840       1.65522231       1.03758598
H       -0.60975790       0.09576258       1.89010987
H       -2.63422842      -0.53528657       0.19438975
H       -0.09054076      -1.02700565      -1.85121797
H       -0.16952360      -2.02867690       0.05244288
15
Frame=15 idx=011382 GeodesicLength=0.7059118289741577 rxn_smarts="[C:1]([C@@:2]12[C:3]([H:11])([H:12])[C@@:4]3([H:13])[O:5][C@:6]1([H:14])[C@@:7]23[H:15])([H:8])([H:9])[H:10]>>[C:1]([C:2]12[C:3]([H:11])([H:12])[C:4]([H:13])([O+:5]=[C-:6]1)[C:7]2([H:14])[H:15])([H:8])([H:9])[H:10]"
C        1.86472625       0.30610273       0.17654025
C        0.39011968       0.19474299      -0.04542060
C       -0.73187781       0.59034452       0.92816532
C       -1.62260335      -0.21010946      -0.02426876
O       -1.56041395       0.62469379      -1.22641860
C       -0.22968277       0.40555621      -1.41939419
C       -0.40174531      -1.07669756      -0.41084279
H        2.15654491      -0.15935972       1.12043291
H        2.42730933      -0.18414973      -0.62044030
H        2.16212276       1.35657068       0.19285133
H       -0.95613815       1.65264861       1.04056261
H       -0.60790831       0.09077128       1.88935367
H       -2.63542370      -0.53503497       0.19236249
H       -0.07822473      -1.03457780      -1.86195433
H       -0.17680485      -2.02150156       0.06847098
15
Frame=16 idx=011382 GeodesicLength=0.7530183568441849 rxn_smarts="[C:1]([C@@:2]12[C:3]([H:11])([H:12])[C@@:4]3([H:13])[O:5][C@:6]1([H:14])[C@@:7]23[H:15])([H:8])([H:9])[H:10]>>[C:1]([C:2]12[C:3]([H:11])([H:12])[C:4]([H:13])([O+:5]=[C-:6]1)[C:7]2([H:14])[H:15])([H:8])([H:9])[H:10]"
C        1.86457599       0.30669938       0.17485908
C        0.38990525       0.19570432      -0.04674926
C       -0.73208685       0.58797712       0.92903961
C       -1.62283952      -0.21155067      -0.02371065
O       -1.56010584       0.62985716      -1.22498493
C       -0.23330318       0.41026990      -1.41697827
C       -0.40373537      -1.07763177      -0.41372060
H        2.15612235      -0.15940348       1.11851671
H        2.42801391      -0.18374819      -0.62143859
H        2.16198149       1.35718820       0.19115736
H       -0.95612460       1.65010763       1.04354254
H       -0.60605166       0.08584251       1.88861986
H       -2.63663580      -0.53474900       0.19042100
H       -0.06561345      -1.04240373      -1.87260258
H       -0.18410271      -2.01415938       0.08402872
