12
Frame=0 idx=003820 GeodesicLength=0.0 rxn_smarts="[C:1]([C@@:2]1([H:10])[N:3]([H:11])[C@:4]1([C:5]#[N:6])[H:12])([H:7])([H:8])[H:9]>>[C:1](=[C:2]([N:3]([C@:4]1([H:12])[C:5]([H:8])=[N:6]1)[H:11])[H:10])([H:7])[H:9]"
C       -1.21378862       0.76960377       0.44143667
C       -0.61701494      -0.44507655       0.71735589
N       -0.25154750      -1.38208692      -0.32363248
C        0.94147447      -0.66678168       0.01311888
C        1.22867393       0.60458210      -0.66694717
N        2.12812962       0.45062972      -1.45270523
H       -1.48983955       1.43047279       1.25316939
H        0.40714661       1.41140002      -0.46002295
H       -1.66996752       0.96422789      -0.52114210
H       -0.56383832      -0.82513447       1.73028925
H       -0.63957851      -1.08147872      -1.21142805
H        1.74015035      -1.23035799       0.48050787
12
Frame=1 idx=003820 GeodesicLength=0.1104900311961474 rxn_smarts="[C:1]([C@@:2]1([H:10])[N:3]([H:11])[C@:4]1([C:5]#[N:6])[H:12])([H:7])([H:8])[H:9]>>[C:1](=[C:2]([N:3]([C@:4]1([H:12])[C:5]([H:8])=[N:6]1)[H:11])[H:10])([H:7])[H:9]"
C       -1.21917758       0.77210522       0.44722038
C       -0.62018049      -0.44624484       0.71182007
N       -0.24580510      -1.36918959      -0.33467290
C        0.95096528      -0.66395944       0.00880607
C        1.24759984       0.60041218      -0.67651229
N        2.15148684       0.41711696      -1.44997374
H       -1.47798287       1.43039335       1.26715067
H        0.39598155       1.42237319      -0.48687048
H       -1.72212929       0.95993132      -0.49323744
H       -0.56718804      -0.83667279       1.72080556
H       -0.62958988      -1.06866027      -1.22390388
H        1.73601975      -1.21760530       0.50936799
12
Frame=2 idx=003820 GeodesicLength=0.22090496309516885 rxn_smarts="[C:1]([C@@:2]1([H:10])[N:3]([H:11])[C@:4]1([C:5]#[N:6])[H:12])([H:7])([H:8])[H:9]>>[C:1](=[C:2]([N:3]([C@:4]1([H:12])[C:5]([H:8])=[N:6]1)[H:11])[H:10])([H:7])[H:9]"
C       -1.22469347       0.77471350       0.45237262
C       -0.62339766      -0.44714084       0.70597648
N       -0.23996421      -1.35580031      -0.34589174
C        0.96067391      -0.66122012       0.00468650
C        1.26758383       0.59589330      -0.68582616
N        2.17534362       0.38335579      -1.44633593
H       -1.46533080       1.43070691       1.28011977
H        0.38453114       1.43311885      -0.51446693
H       -1.77586051       0.95406538      -0.46249471
H       -0.57085945      -0.84790658       1.71091197
H       -0.61921328      -1.05518935      -1.23660661
H        1.73118689      -1.20459651       0.53755475
12
Frame=3 idx=003820 GeodesicLength=0.33123426877868123 rxn_smarts="[C:1]([C@@:2]1([H:10])[N:3]([H:11])[C@:4]1([C:5]#[N:6])[H:12])([H:7])([H:8])[H:9]>>[C:1](=[C:2]([N:3]([C@:4]1([H:12])[C:5]([H:8])=[N:6]1)[H:11])[H:10])([H:7])[H:9]"
C       -1.23044991       0.77740730       0.45677346
C       -0.62667788      -0.44773244       0.69979220
N       -0.23402001      -1.34190258      -0.35729143
C        0.97058911      -0.65855805       0.00074796
C        1.28864127       0.59098670      -0.69491073
N        2.19962005       0.34925471      -1.44189544
H       -1.45201414       1.43140754       1.29189544
H        0.37290491       1.44374542      -0.54255044
H       -1.83098704       0.94655753      -0.42865838
H       -0.57484962      -0.85876126       1.70059025
H       -0.60843351      -1.04106704      -1.24954333
H        1.72567676      -1.19133783       0.56505045
12
Frame=4 idx=003820 GeodesicLength=0.4414746851136816 rxn_smarts="[C:1]([C@@:2]1([H:10])[N:3]([H:11])[C@:4]1([C:5]#[N:6])[H:12])([H:7])([H:8])[H:9]>>[C:1](=[C:2]([N:3]([C@:4]1([H:12])[C:5]([H:8])=[N:6]1)[H:11])[H:10])([H:7])[H:9]"
C       -1.23658590       0.78015211       0.46030620
C       -0.63003484      -0.44799605       0.69323664
N       -0.22796935      -1.32748840      -0.36887602
C        0.98069719      -0.65596573      -0.00301709
C        1.31078717       0.58565051      -0.70379812
N        2.22424536       0.31471622      -1.43675056
H       -1.43815553       1.43249837       1.30229410
H        0.36118847       1.45439766      -0.57087334
H       -1.88729009       0.93734540      -0.39147463
H       -0.57915702      -0.86917929       1.68982890
H       -0.59723883      -1.02630384      -1.26272774
H        1.71951337      -1.17782697       0.59185164
12
Frame=5 idx=003820 GeodesicLength=0.5516153815887566 rxn_smarts="[C:1]([C@@:2]1([H:10])[N:3]([H:11])[C@:4]1([C:5]#[N:6])[H:12])([H:7])([H:8])[H:9]>>[C:1](=[C:2]([N:3]([C@:4]1([H:12])[C:5]([H:8])=[N:6]1)[H:11])[H:10])([H:7])[H:9]"
C       -1.24324761       0.78290353       0.46286893
C       -0.63348389      -0.44790800       0.68626403
N       -0.22179552      -1.31253202      -0.38066288
C        0.99098173      -0.65342972      -0.00662615
C        1.33403675       0.57982508      -0.71251880
N        2.24919615       0.27962878      -1.43093271
H       -1.42384992       1.43396919       1.31115377
H        0.34938329       1.46517923      -0.59930604
H       -1.94452471       0.92639221      -0.35062877
H       -0.58378878      -0.87910875       1.67858605
H       -0.58560071      -1.01089109      -1.27617106
H        1.71269322      -1.16402844       0.61797362
12
Frame=6 idx=003820 GeodesicLength=0.6616565126429146 rxn_smarts="[C:1]([C@@:2]1([H:10])[N:3]([H:11])[C@:4]1([C:5]#[N:6])[H:12])([H:7])([H:8])[H:9]>>[C:1](=[C:2]([N:3]([C@:4]1([H:12])[C:5]([H:8])=[N:6]1)[H:11])[H:10])([H:7])[H:9]"
C       -1.25062504       0.78559539       0.46436948
C       -0.63704495      -0.44746189       0.67885084
N       -0.21549341      -1.29703227      -0.39265611
C        1.00142283      -0.65093570      -0.01007247
C        1.35840363       0.57346481      -0.72109661
N        2.27439473       0.24388583      -1.42452087
H       -1.40920809       1.43584410       1.31827831
H        0.33749513       1.47626908      -0.62764273
H       -2.00233595       0.91366913      -0.30589343
H       -0.58874588      -0.88852779       1.66685595
H       -0.57350278      -0.99484404      -1.28989040
H        1.70523979      -1.14992666       0.64341802
12
Frame=7 idx=003820 GeodesicLength=0.7715874195214646 rxn_smarts="[C:1]([C@@:2]1([H:10])[N:3]([H:11])[C@:4]1([C:5]#[N:6])[H:12])([H:7])([H:8])[H:9]>>[C:1](=[C:2]([N:3]([C@:4]1([H:12])[C:5]([H:8])=[N:6]1)[H:11])[H:10])([H:7])[H:9]"
C       -1.25891556       0.78814019       0.46474989
C       -0.64074258      -0.44665853       0.67097201
N       -0.20905053      -1.28097271      -0.40486406
C        1.01199364      -0.64846003      -0.01335176
C        1.38389703       0.56651344      -0.72954779
N        2.29978748       0.20738012      -1.41754437
H       -1.39432141       1.43813797       1.32348128
H        0.32544864       1.48781089      -0.65577099
H       -2.06029611       0.89918297      -0.25703634
H       -0.59403973      -0.89743289       1.65461611
H       -0.56091704      -0.97816030      -1.30389422
H        1.69715617      -1.13548113       0.66819024
12
Frame=8 idx=003820 GeodesicLength=0.8814130736575516 rxn_smarts="[C:1]([C@@:2]1([H:10])[N:3]([H:11])[C@:4]1([C:5]#[N:6])[H:12])([H:7])([H:8])[H:9]>>[C:1](=[C:2]([N:3]([C@:4]1([H:12])[C:5]([H:8])=[N:6]1)[H:11])[H:10])([H:7])[H:9]"
C       -1.26831669       0.79044484       0.46398682
C       -0.64460714      -0.44551855       0.66259939
N       -0.20244918      -1.26434234      -0.41730801
C        1.02267086      -0.64597929      -0.01645540
C        1.41053053       0.55892244      -0.73786695
N        2.32534410       0.17001886      -1.40998203
H       -1.37926080       1.44085856       1.32660758
H        0.31307079       1.49990223      -0.68370657
H       -2.11792340       0.88302091      -0.20383544
H       -0.59968136      -0.90586102       1.64183562
H       -0.54781678      -0.96083188      -1.31820183
H        1.68843906      -1.12063475       0.69232682
12
Frame=9 idx=003820 GeodesicLength=0.9911212815169312 rxn_smarts="[C:1]([C@@:2]1([H:10])[N:3]([H:11])[C@:4]1([C:5]#[N:6])[H:12])([H:7])([H:8])[H:9]>>[C:1](=[C:2]([N:3]([C@:4]1([H:12])[C:5]([H:8])=[N:6]1)[H:11])[H:10])([H:7])[H:9]"
C       -1.27902451       0.79238634       0.46209864
C       -0.64866915      -0.44407576       0.65372108
N       -0.19567551      -1.24712484      -0.42999142
C        1.03341644      -0.64345843      -0.01936920
C        1.43829326       0.55063676      -0.74606293
N        2.35102265       0.13172279      -1.40179190
H       -1.36410325       1.44400850       1.32749661
H        0.30014201       1.51264759      -0.71145460
H       -2.17461859       0.86530390      -0.14616726
H       -0.60567885      -0.91387425       1.62848982
H       -0.53418060      -0.94284690      -1.33280854
H        1.67907610      -1.10532569       0.71583971
12
Frame=10 idx=003820 GeodesicLength=1.1007227219316005 rxn_smarts="[C:1]([C@@:2]1([H:10])[N:3]([H:11])[C@:4]1([C:5]#[N:6])[H:12])([H:7])([H:8])[H:9]>>[C:1](=[C:2]([N:3]([C@:4]1([H:12])[C:5]([H:8])=[N:6]1)[H:11])[H:10])([H:7])[H:9]"
C       -1.29122640       0.79384582       0.45914942
C       -0.65296185      -0.44237817       0.64432897
N       -0.18870854      -1.22930505      -0.44292796
C        1.04420538      -0.64086267      -0.02207196
C        1.46719382       0.54161047      -0.75410742
N        2.37678085       0.09241002      -1.39291719
H       -1.34895793       1.44756978       1.32603231
H        0.28636356       1.52610313      -0.73910656
H       -2.22974319       0.84624299      -0.08397131
H       -0.61202715      -0.92156465       1.61455299
H       -0.51998705      -0.92417953      -1.34771800
H        1.66906851      -1.08949213       0.73875672
12
Frame=11 idx=003820 GeodesicLength=1.2102191808920615 rxn_smarts="[C:1]([C@@:2]1([H:10])[N:3]([H:11])[C@:4]1([C:5]#[N:6])[H:12])([H:7])([H:8])[H:9]>>[C:1](=[C:2]([N:3]([C@:4]1([H:12])[C:5]([H:8])=[N:6]1)[H:11])[H:10])([H:7])[H:9]"
C       -1.30508525       0.79468783       0.45525648
C       -0.65751843      -0.44048907       0.63443014
N       -0.18153036      -1.21085974      -0.45612170
C        1.05500989      -0.63815008      -0.02453746
C        1.49724458       0.53179547      -0.76196826
N        2.40256503       0.05200113      -1.38329993
H       -1.33395468       1.45149707       1.32212260
H        0.27139436       1.54031321      -0.76677564
H       -2.28260004       0.82610463      -0.01729764
H       -0.61871873      -0.92905852       1.60000335
H       -0.50522018      -0.90478522      -1.36291783
H        1.65841379      -1.07305671       0.76110589
12
Frame=12 idx=003820 GeodesicLength=1.3197082664496522 rxn_smarts="[C:1]([C@@:2]1([H:10])[N:3]([H:11])[C@:4]1([C:5]#[N:6])[H:12])([H:7])([H:8])[H:9]>>[C:1](=[C:2]([N:3]([C@:4]1([H:12])[C:5]([H:8])=[N:6]1)[H:11])[H:10])([H:7])[H:9]"
C       -1.32075240       0.79480603       0.45057772
C       -0.66236130      -0.43848877       0.62403562
N       -0.17412559      -1.19179059      -0.46959324
C        1.06583075      -0.63529788      -0.02673563
C        1.52847663       0.52114551      -0.76960208
N        2.42834427       0.01039786      -1.37285723
H       -1.31925197       1.45577518       1.31572836
H        0.25482243       1.55535256      -0.79459509
H       -2.33253654       0.80521259       0.05370015
H       -0.62570663      -0.93653051       1.58481868
H       -0.48990087      -0.88462142      -1.37841582
H        1.64716122      -1.05596055       0.78293854
12
Frame=13 idx=003820 GeodesicLength=1.4289219370421853 rxn_smarts="[C:1]([C@@:2]1([H:10])[N:3]([H:11])[C@:4]1([C:5]#[N:6])[H:12])([H:7])([H:8])[H:9]>>[C:1](=[C:2]([N:3]([C@:4]1([H:12])[C:5]([H:8])=[N:6]1)[H:11])[H:10])([H:7])[H:9]"
C       -1.33827876       0.79397432       0.44533215
C       -0.66748570      -0.43636187       0.61321732
N       -0.16647384      -1.17188995      -0.48326076
C        1.07655700      -0.63218197      -0.02866196
C        1.56087313       0.50950119      -0.77706309
N        2.45400777      -0.03254570      -1.36154200
H       -1.30506994       1.46022525       1.30673967
H        0.23635458       1.57121269      -0.82252399
H       -2.37869214       0.78364565       0.12871527
H       -0.63302517      -0.94401682       1.56897789
H       -0.47393786      -0.86346481      -1.39405335
H        1.63517094      -1.03809798       0.80412284
12
Frame=14 idx=003820 GeodesicLength=1.5381698893136686 rxn_smarts="[C:1]([C@@:2]1([H:10])[N:3]([H:11])[C@:4]1([C:5]#[N:6])[H:12])([H:7])([H:8])[H:9]>>[C:1](=[C:2]([N:3]([C@:4]1([H:12])[C:5]([H:8])=[N:6]1)[H:11])[H:10])([H:7])[H:9]"
C       -1.35778793       0.79216251       0.43974984
C       -0.67290682      -0.43424845       0.60198596
N       -0.15856076      -1.15123229      -0.49718931
C        1.08727862      -0.62881681      -0.03026828
C        1.59456114       0.49684799      -0.78425167
N        2.47959218      -0.07696267      -1.34923168
H       -1.29161789       1.46486750       1.29528492
H        0.21539337       1.58800228      -0.85082572
H       -2.42062342       0.76194618       0.20738927
H       -0.64052877      -0.95180758       1.55246929
H       -0.45743961      -0.84128654      -1.40990094
H        1.62263989      -1.01947213       0.82478835
12
Frame=15 idx=003820 GeodesicLength=1.647365342789008 rxn_smarts="[C:1]([C@@:2]1([H:10])[N:3]([H:11])[C@:4]1([C:5]#[N:6])[H:12])([H:7])([H:8])[H:9]>>[C:1](=[C:2]([N:3]([C@:4]1([H:12])[C:5]([H:8])=[N:6]1)[H:11])[H:10])([H:7])[H:9]"
C       -1.37928749       0.78920799       0.43410246
C       -0.67860785      -0.43218322       0.59039918
N       -0.15035526      -1.12964944      -0.51134872
C        1.09796494      -0.62511335      -0.03153071
C        1.62963451       0.48303340      -0.79115105
N        2.50501914      -0.12306816      -1.33585099
H       -1.27910935       1.46956167       1.28137872
H        0.19147294       1.60573880      -0.87960011
H       -2.45771809       0.74034529       0.28930326
H       -0.64818690      -0.96005956       1.53524960
H       -0.44036117      -0.81783176      -1.42586418
H        1.60953458      -0.99998166       0.84491254
12
Frame=16 idx=003820 GeodesicLength=1.7564255529301966 rxn_smarts="[C:1]([C@@:2]1([H:10])[N:3]([H:11])[C@:4]1([C:5]#[N:6])[H:12])([H:7])([H:8])[H:9]>>[C:1](=[C:2]([N:3]([C@:4]1([H:12])[C:5]([H:8])=[N:6]1)[H:11])[H:10])([H:7])[H:9]"
C       -1.40273292       0.78495223       0.42867033
C       -0.68456734      -0.43021222       0.57849783
N       -0.14181265      -1.10695027      -0.52572335
C        1.10859661      -0.62097859      -0.03242723
C        1.66622680       0.46787886      -0.79773410
N        2.53021108      -0.17111253      -1.32129161
H       -1.26772755       1.47413226       1.26507730
H        0.16405797       1.62442001      -0.90901189
H       -2.48944380       0.71910224       0.37403672
H       -0.65596124      -0.96895249       1.51725034
H       -0.42264569      -0.79279419      -1.44185806
H        1.59579873      -0.97948530       0.86451372
