13
Frame=0 idx=001552 GeodesicLength=0.0 rxn_smarts="[N:1](=[C:2]1/[C:3]([H:8])([H:9])[C:4]([H:10])([H:11])[C:5]([H:12])([H:13])[O:6]1)\[H:7]>>[H:9][H:12].[N:1](=[C:2]=[C:3]([C:4]([C:5](=[O:6])[H:13])([H:10])[H:11])[H:8])[H:7]"
N        2.44727662      -0.05726192       0.40812076
C        1.21546515      -0.08699255       0.15476750
C        0.14447293      -0.98308700       0.40510208
C       -0.98437729      -0.61343305      -0.47482085
C       -0.70937416       0.82311676      -0.65056132
O        0.55810275       1.04984745      -0.53955143
H        2.88096368       0.82755950       0.17703593
H        0.31749393      -1.96839356       0.80552331
H       -0.64207103       0.32869560       1.40401838
H       -1.99028711      -0.84850013      -0.13423900
H       -0.86172939      -1.01601977      -1.49648162
H       -1.08170693       0.98160415       1.12610993
H       -1.29422918       1.56286453      -1.18502366
13
Frame=1 idx=001552 GeodesicLength=0.09302207248082466 rxn_smarts="[N:1](=[C:2]1/[C:3]([H:8])([H:9])[C:4]([H:10])([H:11])[C:5]([H:12])([H:13])[O:6]1)\[H:7]>>[H:9][H:12].[N:1](=[C:2]=[C:3]([C:4]([C:5](=[O:6])[H:13])([H:10])[H:11])[H:8])[H:7]"
N        2.45404681      -0.06940032       0.39284394
C        1.22132522      -0.09265367       0.15036191
C        0.14333837      -0.97656348       0.41366948
C       -0.98192657      -0.61161408      -0.47838644
C       -0.71714823       0.83200229      -0.64460330
O        0.55283125       1.06166380      -0.54859461
H        2.88357488       0.82617180       0.19545164
H        0.31457064      -1.96487921       0.80774175
H       -0.63732372       0.31926757       1.41815574
H       -1.98755686      -0.84971663      -0.13843221
H       -0.85851008      -1.01644405      -1.49804437
H       -1.08188215       0.98790178       1.13005743
H       -1.30533957       1.55426421      -1.20022094
13
Frame=2 idx=001552 GeodesicLength=0.1859844222963652 rxn_smarts="[N:1](=[C:2]1/[C:3]([H:8])([H:9])[C:4]([H:10])([H:11])[C:5]([H:12])([H:13])[O:6]1)\[H:7]>>[H:9][H:12].[N:1](=[C:2]=[C:3]([C:4]([C:5](=[O:6])[H:13])([H:10])[H:11])[H:8])[H:7]"
N        2.46054457      -0.08067467       0.37838313
C        1.22714333      -0.09817968       0.14635807
C        0.14237125      -0.96987617       0.42212584
C       -0.97919326      -0.60967355      -0.48207839
C       -0.72498192       0.84098598      -0.63867465
O        0.54724554       1.07398007      -0.55740509
H        2.88651543       0.82309479       0.21242889
H        0.31171119      -1.96109813       0.81002985
H       -0.63280175       0.30949622       1.43245138
H       -1.98452208      -0.85102146      -0.14287262
H       -0.85491963      -1.01677615      -1.49971014
H       -1.08265369       0.99445935       1.13380310
H       -1.31645898       1.54528340      -1.21483936
13
Frame=3 idx=001552 GeodesicLength=0.27901868904239713 rxn_smarts="[N:1](=[C:2]1/[C:3]([H:8])([H:9])[C:4]([H:10])([H:11])[C:5]([H:12])([H:13])[O:6]1)\[H:7]>>[H:9][H:12].[N:1](=[C:2]=[C:3]([C:4]([C:5](=[O:6])[H:13])([H:10])[H:11])[H:8])[H:7]"
N        2.46681519      -0.09149998       0.36478416
C        1.23291370      -0.10364628       0.14287369
C        0.14148727      -0.96308911       0.43051778
C       -0.97621554      -0.60763161      -0.48590813
C       -0.73285036       0.85003286      -0.63281036
O        0.54139140       1.08672839      -0.56596601
H        2.89010846       0.81904744       0.22773029
H        0.30875608      -1.95713968       0.81244884
H       -0.62855614       0.29933128       1.44692406
H       -1.98125078      -0.85240097      -0.14760579
H       -0.85096641      -1.01704394      -1.50148431
H       -1.08410958       1.00126945       1.13729849
H       -1.32752328       1.53604214      -1.22880270
13
Frame=4 idx=001552 GeodesicLength=0.37197507322823004 rxn_smarts="[N:1](=[C:2]1/[C:3]([H:8])([H:9])[C:4]([H:10])([H:11])[C:5]([H:12])([H:13])[O:6]1)\[H:7]>>[H:9][H:12].[N:1](=[C:2]=[C:3]([C:4]([C:5](=[O:6])[H:13])([H:10])[H:11])[H:8])[H:7]"
N        2.47296501      -0.10169949       0.35143705
C        1.23875147      -0.10922830       0.13927947
C        0.14080385      -0.95621371       0.43864868
C       -0.97308726      -0.60550235      -0.48979140
C       -0.74076335       0.85906954      -0.62716136
O        0.53528178       1.09975412      -0.57478784
H        2.89345114       0.81399614       0.24327052
H        0.30588666      -1.95298093       0.81482394
H       -0.62406608       0.28889721       1.46147057
H       -1.97775345      -0.85372523      -0.15223832
H       -0.84707741      -1.01739656      -1.50327026
H       -1.08572690       1.00855247       1.14046888
H       -1.33866546       1.52647709      -1.24214992
13
Frame=5 idx=001552 GeodesicLength=0.464962541245146 rxn_smarts="[N:1](=[C:2]1/[C:3]([H:8])([H:9])[C:4]([H:10])([H:11])[C:5]([H:12])([H:13])[O:6]1)\[H:7]>>[H:9][H:12].[N:1](=[C:2]=[C:3]([C:4]([C:5](=[O:6])[H:13])([H:10])[H:11])[H:8])[H:7]"
N        2.47896916      -0.11152058       0.33876214
C        1.24459285      -0.11484773       0.13603884
C        0.14021788      -0.94926325       0.44667527
C       -0.96974824      -0.60328782      -0.49378234
C       -0.74870439       0.86811947      -0.62165319
O        0.52891794       1.11314446      -0.58352934
H        2.89718586       0.80816671       0.25769123
H        0.30294237      -1.94867440       0.81728358
H       -0.61968396       0.27805604       1.47618357
H       -1.97403529      -0.85507196      -0.15704360
H       -0.84294847      -1.01776155      -1.50511983
H       -1.08791500       1.01621136       1.14331288
H       -1.34979069       1.51672925      -1.25481920
13
Frame=6 idx=001552 GeodesicLength=0.5579562772874281 rxn_smarts="[N:1](=[C:2]1/[C:3]([H:8])([H:9])[C:4]([H:10])([H:11])[C:5]([H:12])([H:13])[O:6]1)\[H:7]>>[H:9][H:12].[N:1](=[C:2]=[C:3]([C:4]([C:5](=[O:6])[H:13])([H:10])[H:11])[H:8])[H:7]"
N        2.48485991      -0.12100862       0.32664867
C        1.25046139      -0.12055630       0.13306144
C        0.13973806      -0.94224779       0.45457265
C       -0.96621708      -0.60099364      -0.49786315
C       -0.75666726       0.87715687      -0.61632123
O        0.52230697       1.12685945      -0.59228393
H        2.90116978       0.80167350       0.27131013
H        0.29993314      -1.94423117       0.81979261
H       -0.61530992       0.26679426       1.49106339
H       -1.97010104      -0.85641016      -0.16195064
H       -0.83865344      -1.01817300      -1.50700954
H       -1.09060290       1.02431255       1.14579382
H       -1.36091761       1.50682405      -1.26681421
13
Frame=7 idx=001552 GeodesicLength=0.6509575586206692 rxn_smarts="[N:1](=[C:2]1/[C:3]([H:8])([H:9])[C:4]([H:10])([H:11])[C:5]([H:12])([H:13])[O:6]1)\[H:7]>>[H:9][H:12].[N:1](=[C:2]=[C:3]([C:4]([C:5](=[O:6])[H:13])([H:10])[H:11])[H:8])[H:7]"
N        2.49066425      -0.13021101       0.31507899
C        1.25637084      -0.12637724       0.13034525
C        0.13936110      -0.93517536       0.46234422
C       -0.96249900      -0.59862120      -0.50202547
C       -0.76464901       0.88617176      -0.61117640
O        0.51545172       1.14089179      -0.60106960
H        2.90537590       0.79459540       0.28416640
H        0.29685341      -1.93966766       0.82233868
H       -0.61091472       0.25506913       1.50613467
H       -1.96595610      -0.85772812      -0.16694115
H       -0.83420450      -1.01864014      -1.50892832
H       -1.09380734       1.03289629       1.14788809
H       -1.37204655       1.49679634      -1.27815535
13
Frame=8 idx=001552 GeodesicLength=0.7439609704579303 rxn_smarts="[N:1](=[C:2]1/[C:3]([H:8])([H:9])[C:4]([H:10])([H:11])[C:5]([H:12])([H:13])[O:6]1)\[H:7]>>[H:9][H:12].[N:1](=[C:2]=[C:3]([C:4]([C:5](=[O:6])[H:13])([H:10])[H:11])[H:8])[H:7]"
N        2.49640751      -0.13916350       0.30399610
C        1.26233597      -0.13234514       0.12784591
C        0.13908945      -0.92805578       0.46997732
C       -0.95860854      -0.59617476      -0.50625595
C       -0.77264547       0.89515025      -0.60624232
O        0.50835541       1.15521963      -0.60995042
H        2.90975270       0.78702325       0.29644072
H        0.29370583      -1.93500132       0.82489280
H       -0.60643636       0.24284065       1.52141286
H       -1.96160927      -0.85900669      -0.17196963
H       -0.82964769      -1.01918471      -1.51085720
H       -1.09750401       1.04202546       1.14955780
H       -1.38319553       1.48667264      -1.28884799
13
Frame=9 idx=001552 GeodesicLength=0.8369895657601214 rxn_smarts="[N:1](=[C:2]1/[C:3]([H:8])([H:9])[C:4]([H:10])([H:11])[C:5]([H:12])([H:13])[O:6]1)\[H:7]>>[H:9][H:12].[N:1](=[C:2]=[C:3]([C:4]([C:5](=[O:6])[H:13])([H:10])[H:11])[H:8])[H:7]"
N        2.50211944      -0.14790770       0.29338940
C        1.26837043      -0.13847500       0.12558231
C        0.13892032      -0.92089636       0.47748256
C       -0.95454751      -0.59365200      -0.51054616
C       -0.78065696       0.90409471      -0.60151948
O        0.50101798       1.16985396      -0.61892154
H        2.91430378       0.77901032       0.30811163
H        0.29048422      -1.93025121       0.82744875
H       -0.60186294       0.23004358       1.53693923
H       -1.95706820      -0.86023890      -0.17702752
H       -0.82497711      -1.01980593      -1.51278690
H       -1.10174201       1.05174562       1.15078481
H       -1.39436144       1.47647890      -1.29893710
13
Frame=10 idx=001552 GeodesicLength=0.9299852401987975 rxn_smarts="[N:1](=[C:2]1/[C:3]([H:8])([H:9])[C:4]([H:10])([H:11])[C:5]([H:12])([H:13])[O:6]1)\[H:7]>>[H:9][H:12].[N:1](=[C:2]=[C:3]([C:4]([C:5](=[O:6])[H:13])([H:10])[H:11])[H:8])[H:7]"
N        2.50779030      -0.15649715       0.28330162
C        1.27445966      -0.14474006       0.12366662
C        0.13883713      -0.91367813       0.48489992
C       -0.95029129      -0.59103938      -0.51489590
C       -0.78868543       0.91300073      -0.59698400
O        0.49341809       1.18482410      -0.62788742
H        2.91910570       0.77054771       0.31890128
H        0.28716739      -1.92539741       0.83002161
H       -0.59722284       0.21659776       1.55277165
H       -1.95230631      -0.86142953      -0.18216486
H       -0.82012052      -1.02047130      -1.51471314
H       -1.10665703       1.06205301       1.15155044
H       -1.40549486       1.46622965      -1.30846782
13
Frame=11 idx=001552 GeodesicLength=1.023012503318155 rxn_smarts="[N:1](=[C:2]1/[C:3]([H:8])([H:9])[C:4]([H:10])([H:11])[C:5]([H:12])([H:13])[O:6]1)\[H:7]>>[H:9][H:12].[N:1](=[C:2]=[C:3]([C:4]([C:5](=[O:6])[H:13])([H:10])[H:11])[H:8])[H:7]"
N        2.51347941      -0.16493994       0.27355177
C        1.28064698      -0.15122247       0.12191232
C        0.13887028      -0.90642881       0.49217060
C       -0.94588844      -0.58834375      -0.51927289
C       -0.79673045       0.92186644      -0.59268457
O        0.48556915       1.20008831      -0.63703468
H        2.92399598       0.76176593       0.32941412
H        0.28379279      -1.92048239       0.83253833
H       -0.59236482       0.20244649       1.56892300
H       -1.94736417      -0.86253418      -0.18724344
H       -0.81522747      -1.02123033      -1.51660144
H       -1.11210956       1.07309704       1.15180915
H       -1.41666969       1.45591767      -1.31748227
13
Frame=12 idx=001552 GeodesicLength=1.116037847665198 rxn_smarts="[N:1](=[C:2]1/[C:3]([H:8])([H:9])[C:4]([H:10])([H:11])[C:5]([H:12])([H:13])[O:6]1)\[H:7]>>[H:9][H:12].[N:1](=[C:2]=[C:3]([C:4]([C:5](=[O:6])[H:13])([H:10])[H:11])[H:8])[H:7]"
N        2.51918773      -0.17327842       0.26419839
C        1.28692678      -0.15789760       0.12042751
C        0.13900399      -0.89913514       0.49933466
C       -0.94131957      -0.58555471      -0.52367453
C       -0.80479028       0.93069221      -0.58861190
O        0.47745898       1.21567588      -0.64629033
H        2.92906394       0.75265673       0.33937644
H        0.28034317      -1.91550279       0.83500658
H       -0.58731088       0.18749677       1.58545779
H       -1.94222736      -0.86355618      -0.19230083
H       -0.81023216      -1.02205940      -1.51844445
H       -1.11826354       1.08489109       1.15152030
H       -1.42784080       1.44557158      -1.32599963
13
Frame=13 idx=001552 GeodesicLength=1.2090796405949225 rxn_smarts="[N:1](=[C:2]1/[C:3]([H:8])([H:9])[C:4]([H:10])([H:11])[C:5]([H:12])([H:13])[O:6]1)\[H:7]>>[H:9][H:12].[N:1](=[C:2]=[C:3]([C:4]([C:5](=[O:6])[H:13])([H:10])[H:11])[H:8])[H:7]"
N        2.52494331      -0.18151834       0.25513844
C        1.29331835      -0.16480389       0.11913334
C        0.13925900      -0.89180210       0.50636711
C       -0.93660718      -0.58266656      -0.52807814
C       -0.81286848       0.93947977      -0.58478393
O        0.46907986       1.23157733      -0.65573464
H        2.93423199       0.74326868       0.34908294
H        0.27684363      -1.91046896       0.83737672
H       -0.58196312       0.17164665       1.60242183
H       -1.93690911      -0.86446511      -0.19726350
H       -0.80521067      -1.02297443      -1.52021660
H       -1.12508092       1.09755362       1.15064351
H       -1.43903667       1.43517335      -1.33408710
13
Frame=14 idx=001552 GeodesicLength=1.3021234914290212 rxn_smarts="[N:1](=[C:2]1/[C:3]([H:8])([H:9])[C:4]([H:10])([H:11])[C:5]([H:12])([H:13])[O:6]1)\[H:7]>>[H:9][H:12].[N:1](=[C:2]=[C:3]([C:4]([C:5](=[O:6])[H:13])([H:10])[H:11])[H:8])[H:7]"
N        2.53074811      -0.18967904       0.24643995
C        1.29982716      -0.17194649       0.11808250
C        0.13962901      -0.88443081       0.51328640
C       -0.93174548      -0.57966715      -0.53247105
C       -0.82095487       0.94823492      -0.58119977
O        0.46043234       1.24780704      -0.66534165
H        2.93952658       0.73363635       0.35837317
H        0.27328367      -1.90539634       0.83962758
H       -0.57631037       0.15475690       1.61988146
H       -1.93140770      -0.86524363      -0.20212704
H       -0.80014553      -1.02396124      -1.52190026
H       -1.13266368       1.11115356       1.14913148
H       -1.45021926       1.42473592      -1.34178277
13
Frame=15 idx=001552 GeodesicLength=1.3951783739841965 rxn_smarts="[N:1](=[C:2]1/[C:3]([H:8])([H:9])[C:4]([H:10])([H:11])[C:5]([H:12])([H:13])[O:6]1)\[H:7]>>[H:9][H:12].[N:1](=[C:2]=[C:3]([C:4]([C:5](=[O:6])[H:13])([H:10])[H:11])[H:8])[H:7]"
N        2.53662465      -0.19778215       0.23807353
C        1.30646338      -0.17933206       0.11728764
C        0.14011961      -0.87701662       0.52010095
C       -0.92674039      -0.57654670      -0.53683563
C       -0.82905123       0.95696447      -0.57787082
O        0.45150779       1.26437732      -0.67512844
H        2.94496615       0.72377991       0.36727996
H        0.26967380      -1.90029266       0.84172815
H       -0.57030403       0.13668606       1.63791012
H       -1.92572950      -0.86587197      -0.20686207
H       -0.79505107      -1.02502133      -1.52347361
H       -1.14109433       1.12579420       1.14692257
H       -1.46138485       1.41426153      -1.34913235
13
Frame=16 idx=001552 GeodesicLength=1.488237511532479 rxn_smarts="[N:1](=[C:2]1/[C:3]([H:8])([H:9])[C:4]([H:10])([H:11])[C:5]([H:12])([H:13])[O:6]1)\[H:7]>>[H:9][H:12].[N:1](=[C:2]=[C:3]([C:4]([C:5](=[O:6])[H:13])([H:10])[H:11])[H:8])[H:7]"
N        2.54258634      -0.20583890       0.23000318
C        1.31323658      -0.18696802       0.11675196
C        0.14073812      -0.86955231       0.52681634
C       -0.92159742      -0.57329246      -0.54114874
C       -0.83715155       0.96567416      -0.57481261
O        0.44230161       1.28129544      -0.68512530
H        2.95054291       0.71371811       0.37586255
H        0.26602563      -1.89516186       0.84363898
H       -0.56388222       0.11726317       1.65658373
H       -1.91987804      -0.86632302      -0.21142622
H       -0.78994889      -1.02615458      -1.52490497
H       -1.15044703       1.14159440       1.14393991
H       -1.47252604       1.40374587      -1.35617879
