14
Frame=0 idx=001901 GeodesicLength=0.0 rxn_smarts="[C:1]1([H:7])([H:8])[C:2]([H:9])([H:10])[C:3]12[C:4]([H:11])([H:12])[C:5]([H:13])([H:14])[O:6]2>>[C:1]1([H:7])([H:8])[C:2]([H:9])([H:10])[C:3]1.[C:4]1([H:11])([H:12])[C:5]([H:13])([H:14])[O:6]1"
C       -1.21823812      -0.95848982      -0.95378878
C       -1.78329294       0.29786689      -0.35059399
C       -0.54396634      -0.30652187       0.21958469
C        1.17283297       0.57527729       1.30614303
C        1.86430969       0.01981126       0.15813538
O        0.65906228       0.56936350      -0.36961801
H       -0.75000886      -0.85856420      -1.92797447
H       -1.70630484      -1.91160360      -0.78892833
H       -2.68440744       0.25429426       0.24993359
H       -1.69441416       1.19874129      -0.94829206
H        0.75879313      -0.00560201       2.10816556
H        1.27077977       1.64356098       1.45019549
H        2.73167941       0.54369322      -0.23198295
H        1.92317548      -1.06182721       0.07902089
14
Frame=1 idx=001901 GeodesicLength=0.03755846950859657 rxn_smarts="[C:1]1([H:7])([H:8])[C:2]([H:9])([H:10])[C:3]12[C:4]([H:11])([H:12])[C:5]([H:13])([H:14])[O:6]2>>[C:1]1([H:7])([H:8])[C:2]([H:9])([H:10])[C:3]1.[C:4]1([H:11])([H:12])[C:5]([H:13])([H:14])[O:6]1"
C       -1.22022804      -0.95873623      -0.95029927
C       -1.78052307       0.30224936      -0.35198446
C       -0.53615168      -0.29823992       0.21112079
C        1.15591700       0.57174352       1.29843853
C        1.86681971       0.02119935       0.15709653
O        0.66673691       0.56995220      -0.38359934
H       -0.75962426      -0.86699996      -1.92872766
H       -1.70515052      -1.91088545      -0.77121053
H       -2.67535436       0.26291592       0.25810449
H       -1.69612671       1.19928450      -0.95583719
H        0.75954369      -0.02044483       2.10201009
H        1.25534415       1.63770788       1.45886041
H        2.73751042       0.55016010      -0.21880975
H        1.93128676      -1.05990644       0.07483737
14
Frame=2 idx=001901 GeodesicLength=0.07514388276887098 rxn_smarts="[C:1]1([H:7])([H:8])[C:2]([H:9])([H:10])[C:3]12[C:4]([H:11])([H:12])[C:5]([H:13])([H:14])[O:6]2>>[C:1]1([H:7])([H:8])[C:2]([H:9])([H:10])[C:3]1.[C:4]1([H:11])([H:12])[C:5]([H:13])([H:14])[O:6]1"
C       -1.22216660      -0.95892063      -0.94688587
C       -1.77776363       0.30654560      -0.35329246
C       -0.52842279      -0.29021101       0.20258646
C        1.13929847       0.56819265       1.29064475
C        1.86926666       0.02250391       0.15611683
O        0.67437087       0.57041243      -0.39726356
H       -0.76917997      -0.87521187      -1.92939794
H       -1.70379190      -1.91000889      -0.75380703
H       -2.66621608       0.27143094       0.26625688
H       -1.69788003       1.19982074      -0.96307445
H        0.76018799      -0.03460798       2.09558668
H        1.23992635       1.63163754       1.46734966
H        2.74297954       0.55646710      -0.20575402
H        1.93939111      -1.05805052       0.07093407
14
Frame=3 idx=001901 GeodesicLength=0.11276844233377376 rxn_smarts="[C:1]1([H:7])([H:8])[C:2]([H:9])([H:10])[C:3]12[C:4]([H:11])([H:12])[C:5]([H:13])([H:14])[O:6]2>>[C:1]1([H:7])([H:8])[C:2]([H:9])([H:10])[C:3]1.[C:4]1([H:11])([H:12])[C:5]([H:13])([H:14])[O:6]1"
C       -1.22406392      -0.95904993      -0.94351473
C       -1.77500411       0.31076654      -0.35454640
C       -0.52078208      -0.28240079       0.19398042
C        1.12297871       0.56459716       1.28276336
C        1.87165266       0.02375096       0.15518171
O        0.68196468       0.57077580      -0.41060945
H       -0.77868057      -0.88324662      -1.92994589
H       -1.70224739      -1.90897055      -0.73663424
H       -2.65697575       0.27988657       0.27436518
H       -1.69965702       1.20032177      -0.97007960
H        0.76072826      -0.04819539       2.08888178
H        1.22450585       1.62531537       1.47570528
H        2.74809995       0.56266337      -0.19279782
H        1.94748074      -1.05621426       0.06725040
14
Frame=4 idx=001901 GeodesicLength=0.15042334278133063 rxn_smarts="[C:1]1([H:7])([H:8])[C:2]([H:9])([H:10])[C:3]12[C:4]([H:11])([H:12])[C:5]([H:13])([H:14])[O:6]2>>[C:1]1([H:7])([H:8])[C:2]([H:9])([H:10])[C:3]1.[C:4]1([H:11])([H:12])[C:5]([H:13])([H:14])[O:6]1"
C       -1.22590942      -0.95912394      -0.94020827
C       -1.77225493       0.31491089      -0.35572352
C       -0.51322190      -0.27481356       0.18530988
C        1.10695401       0.56099289       1.27480190
C        1.87398253       0.02492045       0.15429255
O        0.68952262       0.57103626      -0.42366283
H       -0.78812218      -0.89107966      -1.93041397
H       -1.70049652      -1.90779302      -0.71974592
H       -2.64764692       0.28824707       0.28245890
H       -1.70147746       1.20082168      -0.97680298
H        0.76113892      -0.06117427       2.08194986
H        1.20908963       1.61878806       1.48389085
H        2.75289152       0.56870600      -0.17996808
H        1.95555010      -1.05443886       0.06382162
14
Frame=5 idx=001901 GeodesicLength=0.1881179178173188 rxn_smarts="[C:1]1([H:7])([H:8])[C:2]([H:9])([H:10])[C:3]12[C:4]([H:11])([H:12])[C:5]([H:13])([H:14])[O:6]2>>[C:1]1([H:7])([H:8])[C:2]([H:9])([H:10])[C:3]1.[C:4]1([H:11])([H:12])[C:5]([H:13])([H:14])[O:6]1"
C       -1.22771354      -0.95915227      -0.93693906
C       -1.76950758       0.31899017      -0.35684743
C       -0.50574301      -0.26742047       0.17657330
C        1.09122170       0.55735811       1.26676600
C        1.87626010       0.02603642       0.15343799
O        0.69704674       0.57122037      -0.43642587
H       -0.79750935      -0.89876129      -1.93077194
H       -1.69856463      -1.90647239      -0.70307201
H       -2.63821558       0.29655703       0.29051652
H       -1.70332663       1.20130005      -0.98330761
H        0.76142935      -0.07363495       2.07478185
H        1.19365544       1.61202824       1.49194123
H        2.75736661       0.57464105      -0.16723960
H        1.96360037      -1.05269009       0.06058662
14
Frame=6 idx=001901 GeodesicLength=0.2258700096265905 rxn_smarts="[C:1]1([H:7])([H:8])[C:2]([H:9])([H:10])[C:3]12[C:4]([H:11])([H:12])[C:5]([H:13])([H:14])[O:6]2>>[C:1]1([H:7])([H:8])[C:2]([H:9])([H:10])[C:3]1.[C:4]1([H:11])([H:12])[C:5]([H:13])([H:14])[O:6]1"
C       -1.22948118      -0.95914716      -0.93368285
C       -1.76676073       0.32302703      -0.35794408
C       -0.49834708      -0.26018972       0.16777089
C        1.07578034       0.55366991       1.25866901
C        1.87849164       0.02711574       0.15259963
O        0.70453347       0.57135896      -0.44890627
H       -0.80684216      -0.90634435      -1.93100328
H       -1.69644920      -1.90501854      -0.68653572
H       -2.62867371       0.30487883       0.29852578
H       -1.70520510       1.20175071      -0.98967036
H        0.76161169      -0.08567032       2.06739449
H        1.17816674       1.60501010       1.49990882
H        2.76153604       0.58050952      -0.15461111
H        1.97163924      -1.05095071       0.05748505
14
Frame=7 idx=001901 GeodesicLength=0.2636795000870498 rxn_smarts="[C:1]1([H:7])([H:8])[C:2]([H:9])([H:10])[C:3]12[C:4]([H:11])([H:12])[C:5]([H:13])([H:14])[O:6]2>>[C:1]1([H:7])([H:8])[C:2]([H:9])([H:10])[C:3]1.[C:4]1([H:11])([H:12])[C:5]([H:13])([H:14])[O:6]1"
C       -1.23122128      -0.95912321      -0.93041734
C       -1.76401903       0.32704202      -0.35903819
C       -0.49104154      -0.25309489       0.15890200
C        1.06062713       0.54990307       1.25052147
C        1.88068545       0.02817935       0.15176720
O        0.71198002       0.57148355      -0.46111022
H       -0.81611900      -0.91388066      -1.93108904
H       -1.69415660      -1.90344514      -0.67006752
H       -2.61902029       0.31327010       0.30647571
H       -1.70711185       1.20217572      -0.99595623
H        0.76170856      -0.09737277       2.05977574
H        1.16259531       1.59770735       1.50782708
H        2.76542041       0.58635445      -0.14206307
H        1.97967271      -1.04919894       0.05447242
14
Frame=8 idx=001901 GeodesicLength=0.30161472188430405 rxn_smarts="[C:1]1([H:7])([H:8])[C:2]([H:9])([H:10])[C:3]12[C:4]([H:11])([H:12])[C:5]([H:13])([H:14])[O:6]2>>[C:1]1([H:7])([H:8])[C:2]([H:9])([H:10])[C:3]1.[C:4]1([H:11])([H:12])[C:5]([H:13])([H:14])[O:6]1"
C       -1.23294414      -0.95907884      -0.92711953
C       -1.76125782       0.33102523      -0.36014174
C       -0.48379628      -0.24612166       0.14995037
C        1.04573683       0.54606849       1.24233396
C        1.88284970       0.02925350       0.15092760
O        0.71940210       0.57160472      -0.47305251
H       -0.82536958      -0.92141538      -1.93100715
H       -1.69172826      -1.90170276      -0.65360814
H       -2.60920485       0.32177111       0.31436875
H       -1.70903735       1.20252101      -1.00219896
H        0.76166074      -0.10885604       2.05189907
H        1.14692080       1.59013073       1.51571328
H        2.76902873       0.59219072      -0.12955470
H        1.98773938      -1.04739083       0.05148971
14
Frame=9 idx=001901 GeodesicLength=0.33959959392016803 rxn_smarts="[C:1]1([H:7])([H:8])[C:2]([H:9])([H:10])[C:3]12[C:4]([H:11])([H:12])[C:5]([H:13])([H:14])[O:6]2>>[C:1]1([H:7])([H:8])[C:2]([H:9])([H:10])[C:3]1.[C:4]1([H:11])([H:12])[C:5]([H:13])([H:14])[O:6]1"
C       -1.23463749      -0.95901262      -0.92380606
C       -1.75848995       0.33499531      -0.36124167
C       -0.47663322      -0.23926618       0.14092566
C        1.03112937       0.54215593       1.23409119
C        1.88497115       0.03031012       0.15009313
O        0.72678750       0.57171567      -0.48474530
H       -0.83458632      -0.92890688      -1.93078540
H       -1.68910414      -1.89984157      -0.63720355
H       -2.59924975       0.33034488       0.32220186
H       -1.71098594       1.20284240      -1.00836920
H        0.76154144      -0.12001821       2.04382624
H        1.13112459       1.58224220       1.52353934
H        2.77234872       0.59800749      -0.11712242
H        1.99578405      -1.04556854       0.04859618
14
Frame=10 idx=001901 GeodesicLength=0.3776872007384052 rxn_smarts="[C:1]1([H:7])([H:8])[C:2]([H:9])([H:10])[C:3]12[C:4]([H:11])([H:12])[C:5]([H:13])([H:14])[O:6]2>>[C:1]1([H:7])([H:8])[C:2]([H:9])([H:10])[C:3]1.[C:4]1([H:11])([H:12])[C:5]([H:13])([H:14])[O:6]1"
C       -1.23631494      -0.95893547      -0.92045779
C       -1.75571487       0.33894850      -0.36234882
C       -0.46953333      -0.23251927       0.13182069
C        1.01677934       0.53817637       1.22580864
C        1.88707363       0.03137678       0.14925312
O        0.73415149       0.57184758      -0.49619449
H       -0.84377724      -0.93640295      -1.93040593
H       -1.68633908      -1.89783889      -0.62079965
H       -2.58914407       0.33903201       0.32998972
H       -1.71296894       1.20310878      -1.01450905
H        0.76128661      -0.13099557       2.03550520
H        1.11520872       1.57408682       1.53132100
H        2.77543357       0.60381082      -0.10472463
H        2.00385910      -1.04369550       0.04574198
14
Frame=11 idx=001901 GeodesicLength=0.4158496610537438 rxn_smarts="[C:1]1([H:7])([H:8])[C:2]([H:9])([H:10])[C:3]12[C:4]([H:11])([H:12])[C:5]([H:13])([H:14])[O:6]2>>[C:1]1([H:7])([H:8])[C:2]([H:9])([H:10])[C:3]1.[C:4]1([H:11])([H:12])[C:5]([H:13])([H:14])[O:6]1"
C       -1.23796693      -0.95883895      -0.91707871
C       -1.75293386       0.34288854      -0.36345402
C       -0.46250339      -0.22587633       0.12263402
C        1.00268926       0.53412929       1.21747561
C        1.88915015       0.03243550       0.14841075
O        0.74149649       0.57198973      -0.50741582
H       -0.85294253      -0.94387669      -1.92987404
H       -1.68339497      -1.89570791      -0.60442394
H       -2.57889320       0.34781084       0.33772064
H       -1.71498493       1.20334022      -1.02058874
H        0.76092297      -0.14173163       2.02699558
H        1.09916318       1.56563702       1.53903176
H        2.77826255       0.60960183      -0.09238396
H        2.01193521      -1.04180147       0.04295086
14
Frame=12 idx=001901 GeodesicLength=0.4541168359200831 rxn_smarts="[C:1]1([H:7])([H:8])[C:2]([H:9])([H:10])[C:3]12[C:4]([H:11])([H:12])[C:5]([H:13])([H:14])[O:6]2>>[C:1]1([H:7])([H:8])[C:2]([H:9])([H:10])[C:3]1.[C:4]1([H:11])([H:12])[C:5]([H:13])([H:14])[O:6]1"
C       -1.23960066      -0.95872856      -0.91365475
C       -1.75013739       0.34681344      -0.36457146
C       -0.45552529      -0.21932398       0.11335640
C        0.98884419       0.53002071       1.20910712
C        1.89120365       0.03350950       0.14756033
O        0.74881985       0.57216229      -0.51841392
H       -0.86210035      -0.95136350      -1.92917931
H       -1.68029439      -1.89342276      -0.58802611
H       -2.56846527       0.35671356       0.34540078
H       -1.71703948       1.20350330      -1.02665083
H        0.76042256      -0.15232264       2.01825675
H        1.08298418       1.55690603       1.54669565
H        2.78085871       0.61538168      -0.08006974
H        2.02002971      -1.03984908       0.04018910
14
Frame=13 idx=001901 GeodesicLength=0.4924669281113082 rxn_smarts="[C:1]1([H:7])([H:8])[C:2]([H:9])([H:10])[C:3]12[C:4]([H:11])([H:12])[C:5]([H:13])([H:14])[O:6]2>>[C:1]1([H:7])([H:8])[C:2]([H:9])([H:10])[C:3]1.[C:4]1([H:11])([H:12])[C:5]([H:13])([H:14])[O:6]1"
C       -1.24120903      -0.95860046      -0.91019026
C       -1.74733414       0.35072730      -0.36568797
C       -0.44860746      -0.21286095       0.10399419
C        0.97524155       0.52585526       1.20069205
C        1.89323489       0.03458295       0.14670706
O        0.75612865       0.57236280      -0.52920173
H       -0.87124215      -0.95883992      -1.92832903
H       -1.67701318      -1.89100512      -0.57163596
H       -2.55788068       0.36571633       0.35302703
H       -1.71913717       1.20362545      -1.03266449
H        0.75979910      -0.16273222       2.00932116
H        1.06667145       1.54789260       1.55428183
H        2.78322099       0.62113919      -0.06779772
H        2.02812717      -1.03786321       0.03748386
14
Frame=14 idx=001901 GeodesicLength=0.5308929279058456 rxn_smarts="[C:1]1([H:7])([H:8])[C:2]([H:9])([H:10])[C:3]12[C:4]([H:11])([H:12])[C:5]([H:13])([H:14])[O:6]2>>[C:1]1([H:7])([H:8])[C:2]([H:9])([H:10])[C:3]1.[C:4]1([H:11])([H:12])[C:5]([H:13])([H:14])[O:6]1"
C       -1.24278197      -0.95844776      -0.90668859
C       -1.74452585       0.35462214      -0.36679216
C       -0.44174556      -0.20648344       0.09455324
C        0.96187456       0.52165424       1.19223022
C        1.89523922       0.03564762       0.14585477
O        0.76342387       0.57259178      -0.53978560
H       -0.88036399      -0.96628269      -1.92732812
H       -1.67353685      -1.88845358      -0.55527853
H       -2.54714899       0.37478553       0.36059600
H       -1.72128627       1.20370761      -1.03860285
H        0.75903848      -0.17294907       2.00020305
H        1.05024821       1.53861785       1.56176652
H        2.78535537       0.62684355      -0.05558113
H        2.03620975      -1.03585377       0.03485319
14
Frame=15 idx=001901 GeodesicLength=0.5693835098553938 rxn_smarts="[C:1]1([H:7])([H:8])[C:2]([H:9])([H:10])[C:3]12[C:4]([H:11])([H:12])[C:5]([H:13])([H:14])[O:6]2>>[C:1]1([H:7])([H:8])[C:2]([H:9])([H:10])[C:3]1.[C:4]1([H:11])([H:12])[C:5]([H:13])([H:14])[O:6]1"
C       -1.24430938      -0.95826417      -0.90315517
C       -1.74171641       0.35849139      -0.36787148
C       -0.43493806      -0.20018771       0.08503994
C        0.94873709       0.51743749       1.18372092
C        1.89721295       0.03669305       0.14500836
O        0.77070713       0.57284744      -0.55017252
H       -0.88945994      -0.97366665      -1.92618447
H       -1.66984986      -1.88577227      -0.53898243
H       -2.53628381       0.38388603       0.36810687
H       -1.72349486       1.20375627      -1.04443599
H        0.75813226      -0.18295697       1.99091906
H        1.03373402       1.52910615       1.56912228
H        2.78727023       0.63246502      -0.04343420
H        2.04425863      -1.03383506       0.03231883
14
Frame=16 idx=001901 GeodesicLength=0.6079275305116338 rxn_smarts="[C:1]1([H:7])([H:8])[C:2]([H:9])([H:10])[C:3]12[C:4]([H:11])([H:12])[C:5]([H:13])([H:14])[O:6]2>>[C:1]1([H:7])([H:8])[C:2]([H:9])([H:10])[C:3]1.[C:4]1([H:11])([H:12])[C:5]([H:13])([H:14])[O:6]1"
C       -1.24578085      -0.95804425      -0.89959428
C       -1.73891038       0.36232965      -0.36891511
C       -0.42818488      -0.19396819       0.07546215
C        0.93582321       0.51322286       1.17516432
C        1.89915199       0.03770933       0.14417172
O        0.77797913       0.57313005      -0.56036822
H       -0.89852031      -0.98096998      -1.92490432
H       -1.66593743      -1.88296657      -0.52277310
H       -2.52530087       0.39298560       0.37555759
H       -1.72577064       1.20377803      -1.05013863
H        0.75707479      -0.19274224       1.98148639
H        1.01714826       1.51938077       1.57632565
H        2.78897422       0.63797614      -0.03137163
H        2.05225374      -1.03182120       0.02989747
