10
Frame=0 idx=004613 GeodesicLength=0.0 rxn_smarts="[N:1]([c:2]1[c:3]([H:9])[n:4][n:5][n:6]1[H:10])([H:7])[H:8]>>[N:1]([C@@:2]1([H:9])[C:3]#[N+:4][N-:5][N:6]1[H:10])([H:7])[H:8]"
N       -1.50094962       0.17160401       0.40968429
C       -0.15873908       0.18232488      -0.01276587
C        0.86945123       1.19207726       0.25650008
N        2.04441342       0.45802943       0.14133716
N        1.82186760      -0.81043218      -0.04312489
N        0.54631337      -1.03355695      -0.11012344
H       -2.17103160       0.08653173      -0.33869728
H       -1.70022835       0.99485186       0.95820349
H        0.04666765       0.72925783      -1.02113263
H        0.20223537      -1.97068787      -0.23988093
10
Frame=1 idx=004613 GeodesicLength=0.06150321625549531 rxn_smarts="[N:1]([c:2]1[c:3]([H:9])[n:4][n:5][n:6]1[H:10])([H:7])[H:8]>>[N:1]([C@@:2]1([H:9])[C:3]#[N+:4][N-:5][N:6]1[H:10])([H:7])[H:8]"
N       -1.50002650       0.16793546       0.41024359
C       -0.15955753       0.18135778      -0.01752842
C        0.87029864       1.18621039       0.25094884
N        2.04475642       0.45484022       0.14383380
N        1.82154002      -0.81438999      -0.04249842
N        0.54547189      -1.03409737      -0.11623459
H       -2.17203452       0.07918758      -0.33604065
H       -1.70094160       0.99196278       0.95701373
H        0.05032560       0.76062508      -1.02528398
H        0.20016757      -1.97363193      -0.22445392
10
Frame=2 idx=004613 GeodesicLength=0.12302564850602794 rxn_smarts="[N:1]([c:2]1[c:3]([H:9])[n:4][n:5][n:6]1[H:10])([H:7])[H:8]>>[N:1]([C@@:2]1([H:9])[C:3]#[N+:4][N-:5][N:6]1[H:10])([H:7])[H:8]"
N       -1.49910764       0.16420873       0.41060947
C       -0.16037438       0.18026201      -0.02243161
C        0.87112521       1.18017316       0.24553421
N        2.04506032       0.45160805       0.14581296
N        1.82118335      -0.81842709      -0.04214437
N        0.54461190      -1.03486245      -0.12198796
H       -2.17296541       0.07186167      -0.33362917
H       -1.70167808       0.98896257       0.95569274
H        0.05397059       0.79257777      -1.02884535
H        0.19817414      -1.97636441      -0.20861091
10
Frame=3 idx=004613 GeodesicLength=0.18454285508518425 rxn_smarts="[N:1]([c:2]1[c:3]([H:9])[n:4][n:5][n:6]1[H:10])([H:7])[H:8]>>[N:1]([C@@:2]1([H:9])[C:3]#[N+:4][N-:5][N:6]1[H:10])([H:7])[H:8]"
N       -1.49819836       0.16044849       0.41081504
C       -0.16119246       0.17901814      -0.02743693
C        0.87192366       1.17398754       0.24014312
N        2.04533181       0.44834931       0.14726746
N        1.82080894      -0.82253950      -0.04197064
N        0.54373223      -1.03586692      -0.12716439
H       -2.17383195       0.06453939      -0.33141769
H       -1.70243394       0.98590977       0.95421084
H        0.05759130       0.82501411      -1.03179329
H        0.19626877      -1.97886034      -0.19265352
10
Frame=4 idx=004613 GeodesicLength=0.24603809247765132 rxn_smarts="[N:1]([c:2]1[c:3]([H:9])[n:4][n:5][n:6]1[H:10])([H:7])[H:8]>>[N:1]([C@@:2]1([H:9])[C:3]#[N+:4][N-:5][N:6]1[H:10])([H:7])[H:8]"
N       -1.49730826       0.15667881       0.41089087
C       -0.16201334       0.17761879      -0.03251584
C        0.87268717       1.16769394       0.23467899
N        2.04558403       0.44510612       0.14820063
N        1.82043394      -0.82672773      -0.04189471
N        0.54283531      -1.03714664      -0.13161812
H       -2.17464181       0.05721942      -0.32937564
H       -1.70321431       0.98286381       0.95256233
H        0.06118002       0.85786608      -1.03411344
H        0.19445725      -1.98117260      -0.17681506
10
Frame=5 idx=004613 GeodesicLength=0.3077601251396209 rxn_smarts="[N:1]([c:2]1[c:3]([H:9])[n:4][n:5][n:6]1[H:10])([H:7])[H:8]>>[N:1]([C@@:2]1([H:9])[C:3]#[N+:4][N-:5][N:6]1[H:10])([H:7])[H:8]"
N       -1.49642634       0.15290795       0.41088615
C       -0.16285388       0.17604871      -0.03763313
C        0.87339008       1.16131562       0.22900988
N        2.04578557       0.44187660       0.14863583
N        1.82004860      -0.83098039      -0.04178975
N        0.54191501      -1.03869314      -0.13520959
H       -2.17539352       0.04987354      -0.32744856
H       -1.70398803       0.97986335       0.95075241
H        0.06477724       0.89111803      -1.03586653
H        0.19274526      -1.98333029      -0.16133671
10
Frame=6 idx=004613 GeodesicLength=0.36961567365122683 rxn_smarts="[N:1]([c:2]1[c:3]([H:9])[n:4][n:5][n:6]1[H:10])([H:7])[H:8]>>[N:1]([C@@:2]1([H:9])[C:3]#[N+:4][N-:5][N:6]1[H:10])([H:7])[H:8]"
N       -1.49559920       0.14916498       0.41081256
C       -0.16373076       0.17430532      -0.04277735
C        0.87403404       1.15492095       0.22306383
N        2.04597780       0.43873638       0.14860005
N        1.81970716      -0.83531513      -0.04164040
N        0.54099589      -1.04056474      -0.13796825
H       -2.17616067       0.04253808      -0.32562393
H       -1.70479267       0.97696323       0.94879417
H        0.06842103       0.92474319      -1.03699017
H        0.19114737      -1.98549224      -0.14627051
10
Frame=7 idx=004613 GeodesicLength=0.4312379073765137 rxn_smarts="[N:1]([c:2]1[c:3]([H:9])[n:4][n:5][n:6]1[H:10])([H:7])[H:8]>>[N:1]([C@@:2]1([H:9])[C:3]#[N+:4][N-:5][N:6]1[H:10])([H:7])[H:8]"
N       -1.49471511       0.14539766       0.41057297
C       -0.16455522       0.17240083      -0.04807443
C        0.87464400       1.14833754       0.21700773
N        2.04611070       0.43553268       0.14784230
N        1.81934094      -0.83969717      -0.04136773
N        0.54007885      -1.04259670      -0.13952990
H       -2.17678531       0.03521048      -0.32398277
H       -1.70552932       0.97401635       0.94663654
H        0.07181761       0.95885593      -1.03747527
H        0.18959284      -1.98745758      -0.13162944
10
Frame=8 idx=004613 GeodesicLength=0.49285472415553055 rxn_smarts="[N:1]([c:2]1[c:3]([H:9])[n:4][n:5][n:6]1[H:10])([H:7])[H:8]>>[N:1]([C@@:2]1([H:9])[C:3]#[N+:4][N-:5][N:6]1[H:10])([H:7])[H:8]"
N       -1.49386490       0.14163530       0.41020351
C       -0.16540675       0.17031994      -0.05347934
C        0.87519794       1.14170772       0.21070855
N        2.04625899       0.43239777       0.14649299
N        1.81903124      -0.84415969      -0.04100726
N        0.53916255      -1.04491289      -0.14020301
H       -2.17741658       0.02793236      -0.32250848
H       -1.70626400       0.97110369       0.94434861
H        0.07517626       0.99348020      -1.03726846
H        0.18812526      -1.98950441      -0.11728711
10
Frame=9 idx=004613 GeodesicLength=0.5534063323360094 rxn_smarts="[N:1]([c:2]1[c:3]([H:9])[n:4][n:5][n:6]1[H:10])([H:7])[H:8]>>[N:1]([C@@:2]1([H:9])[C:3]#[N+:4][N-:5][N:6]1[H:10])([H:7])[H:8]"
N       -1.49302412       0.13789234       0.40959229
C       -0.16627131       0.16812182      -0.05914750
C        0.87568498       1.13497791       0.20445957
N        2.04637815       0.42938782       0.14429793
N        1.81872872      -0.84866408      -0.04072148
N        0.53823476      -1.04744978      -0.13994906
H       -2.17799919       0.02080658      -0.32130219
H       -1.70699465       0.96812123       0.94191881
H        0.07852992       1.02840599      -1.03613390
H        0.18673275      -1.99159982      -0.10301447
10
Frame=10 idx=004613 GeodesicLength=0.6143816382427314 rxn_smarts="[N:1]([c:2]1[c:3]([H:9])[n:4][n:5][n:6]1[H:10])([H:7])[H:8]>>[N:1]([C@@:2]1([H:9])[C:3]#[N+:4][N-:5][N:6]1[H:10])([H:7])[H:8]"
N       -1.49219818       0.13411633       0.40883592
C       -0.16714347       0.16570466      -0.06493405
C        0.87610715       1.12815468       0.19781832
N        2.04646390       0.42636192       0.14151462
N        1.81846809      -0.85324607      -0.04025672
N        0.53732061      -1.05022960      -0.13897098
H       -2.17857004       0.01371322      -0.32026876
H       -1.70768164       0.96512012       0.93934640
H        0.08182414       1.06409866      -1.03423779
H        0.18540945      -1.99379393      -0.08884697
10
Frame=11 idx=004613 GeodesicLength=0.6755527873385668 rxn_smarts="[N:1]([c:2]1[c:3]([H:9])[n:4][n:5][n:6]1[H:10])([H:7])[H:8]>>[N:1]([C@@:2]1([H:9])[C:3]#[N+:4][N-:5][N:6]1[H:10])([H:7])[H:8]"
N       -1.49139704       0.13029492       0.40786913
C       -0.16802402       0.16307353      -0.07089167
C        0.87646620       1.12122304       0.19085985
N        2.04655028       0.42335460       0.13810196
N        1.81824195      -0.85790795      -0.03980590
N        0.53639989      -1.05325678      -0.13733210
H       -2.17912642       0.00668768      -0.31949408
H       -1.70833818       0.96204489       0.93662676
H        0.08508705       1.10059976      -1.03143388
H        0.18414029      -1.99611369      -0.07450007
10
Frame=12 idx=004613 GeodesicLength=0.7367708595173895 rxn_smarts="[N:1]([c:2]1[c:3]([H:9])[n:4][n:5][n:6]1[H:10])([H:7])[H:8]>>[N:1]([C@@:2]1([H:9])[C:3]#[N+:4][N-:5][N:6]1[H:10])([H:7])[H:8]"
N       -1.49061694       0.12641719       0.40661336
C       -0.16892297       0.16019117      -0.07708139
C        0.87677211       1.11416437       0.18356303
N        2.04663903       0.42034255       0.13404113
N        1.81800908      -0.86270207      -0.03952255
N        0.53547667      -1.05652750      -0.13514913
H       -2.17964444      -0.00023409      -0.31904294
H       -1.70897012       0.95884973       0.93371352
H        0.08827934       1.13800238      -1.02747537
H        0.18297823      -1.99850375      -0.05965965
10
Frame=13 idx=004613 GeodesicLength=0.7979590217707508 rxn_smarts="[N:1]([c:2]1[c:3]([H:9])[n:4][n:5][n:6]1[H:10])([H:7])[H:8]>>[N:1]([C@@:2]1([H:9])[C:3]#[N+:4][N-:5][N:6]1[H:10])([H:7])[H:8]"
N       -1.48985057       0.12248797       0.40508987
C       -0.16982775       0.15709663      -0.08353656
C        0.87698540       1.10694104       0.17598538
N        2.04668631       0.41730358       0.12911227
N        1.81781788      -0.86756074      -0.03916029
N        0.53456139      -1.06000735      -0.13225263
H       -2.18015513      -0.00707006      -0.31889607
H       -1.70955071       0.95554913       0.93063870
H        0.09145296       1.17626741      -1.02242424
H        0.18188022      -2.00100761      -0.04455643
10
Frame=14 idx=004613 GeodesicLength=0.8590957799953903 rxn_smarts="[N:1]([c:2]1[c:3]([H:9])[n:4][n:5][n:6]1[H:10])([H:7])[H:8]>>[N:1]([C@@:2]1([H:9])[C:3]#[N+:4][N-:5][N:6]1[H:10])([H:7])[H:8]"
N       -1.48910516       0.11849310       0.40324905
C       -0.17074118       0.15375201      -0.09029200
C        0.87714118       1.09959112       0.16801599
N        2.04673017       0.41426441       0.12336447
N        1.81764366      -0.87253932      -0.03884582
N        0.53364015      -1.06372096      -0.12875774
H       -2.18065771      -0.01381983      -0.31910904
H       -1.71008026       0.95211795       0.92736845
H        0.09458187       1.21547923      -1.01605074
H        0.18084728      -2.00361772      -0.02894261
10
Frame=15 idx=004613 GeodesicLength=0.9202466434362728 rxn_smarts="[N:1]([c:2]1[c:3]([H:9])[n:4][n:5][n:6]1[H:10])([H:7])[H:8]>>[N:1]([C@@:2]1([H:9])[C:3]#[N+:4][N-:5][N:6]1[H:10])([H:7])[H:8]"
N       -1.48838024       0.11442152       0.40104409
C       -0.17166428       0.15013400      -0.09738986
C        0.87723389       1.09207379       0.15961267
N        2.04675872       0.41117487       0.11671871
N        1.81747933      -0.87765204      -0.03862028
N        0.53271837      -1.06765955      -0.12470591
H       -2.18114919      -0.02049493      -0.31972215
H       -1.71056230       0.94854003       0.92386058
H        0.09766341       1.25576000      -1.00816923
H        0.17990228      -2.00629770      -0.01262862
10
Frame=16 idx=004613 GeodesicLength=0.9814076595386033 rxn_smarts="[N:1]([c:2]1[c:3]([H:9])[n:4][n:5][n:6]1[H:10])([H:7])[H:8]>>[N:1]([C@@:2]1([H:9])[C:3]#[N+:4][N-:5][N:6]1[H:10])([H:7])[H:8]"
N       -1.48767544       0.11026237       0.39842872
C       -0.17259519       0.14623030      -0.10487657
C        0.87726196       1.08437430       0.15073980
N        2.04676959       0.40801952       0.10906894
N        1.81732735      -0.88290573      -0.03850443
N        0.53178788      -1.07182538      -0.12011383
H       -2.18163475      -0.02711378      -0.32078517
H       -1.71099077       0.94480171       0.92008326
H        0.10071070       1.29718979      -0.99858233
H        0.17903866      -2.00903309       0.00454161
