14
Frame=0 idx=005609 GeodesicLength=0.0 rxn_smarts="[C:1]([C:2]1([H:10])[O:3][C:4]([H:11])([H:12])[C:5]([H:13])([H:14])[O:6]1)([H:7])([H:8])[H:9]>>[C:1]([C@@:2]1([H:10])[O+:3]=[C-:4][C:5]([H:13])([H:14])[O:6]1)([H:7])([H:8])[H:9].[H:11][H:12]"
C       -1.87655156      -0.19337643       0.37827444
C       -0.55808584      -0.68599436      -0.14582084
O       -0.07690268       0.19073138      -1.21212093
C        1.15780524       0.60870689      -0.95359108
C        1.62689474      -0.25728801       0.17864520
O        0.42533309      -0.65097608       0.83713190
H       -2.19565432      -0.81562052       1.21454184
H       -2.63220804      -0.23862544      -0.40573138
H       -1.77191616       0.83595953       0.72384290
H       -0.63169744      -1.68249513      -0.60094761
H        1.24496123       1.86805406      -0.73140968
H        0.87078771       1.92565355       0.08452249
H        2.29065961       0.22896791       0.88811479
H        2.12657447      -1.13369729      -0.25545198
14
Frame=1 idx=005609 GeodesicLength=0.052582837217677945 rxn_smarts="[C:1]([C:2]1([H:10])[O:3][C:4]([H:11])([H:12])[C:5]([H:13])([H:14])[O:6]1)([H:7])([H:8])[H:9]>>[C:1]([C@@:2]1([H:10])[O+:3]=[C-:4][C:5]([H:13])([H:14])[O:6]1)([H:7])([H:8])[H:9].[H:11][H:12]"
C       -1.88108456      -0.19951832       0.38070943
C       -0.56069144      -0.68587176      -0.14437603
O       -0.08167958       0.19528759      -1.20696308
C        1.15458775       0.61102350      -0.94671538
C        1.62421436      -0.26063173       0.18159204
O        0.42221497      -0.65273025       0.83921470
H       -2.20063401      -0.82816859       1.21200368
H       -2.63500869      -0.24093923      -0.40519239
H       -1.77868065       0.82779653       0.73281549
H       -0.63101441      -1.68149645      -0.60245679
H        1.26973588       1.88520190      -0.74901309
H        0.88468910       1.94190370       0.06991932
H        2.28822281       0.22379514       0.89236575
H        2.12512847      -1.13565203      -0.25390365
14
Frame=2 idx=005609 GeodesicLength=0.10515331516800165 rxn_smarts="[C:1]([C:2]1([H:10])[O:3][C:4]([H:11])([H:12])[C:5]([H:13])([H:14])[O:6]1)([H:7])([H:8])[H:9]>>[C:1]([C@@:2]1([H:10])[O+:3]=[C-:4][C:5]([H:13])([H:14])[O:6]1)([H:7])([H:8])[H:9].[H:11][H:12]"
C       -1.88570147      -0.20581558       0.38320767
C       -0.56337320      -0.68574927      -0.14290919
O       -0.08655364       0.20004181      -1.20159264
C        1.15120255       0.61368131      -0.93949620
C        1.62141550      -0.26388646       0.18465227
O        0.41901386      -0.65464043       0.84132709
H       -2.20565598      -0.84100527       1.20936226
H       -2.63789153      -0.24326383      -0.40457158
H       -1.78556003       0.81937029       0.74202559
H       -0.63035518      -1.68038922      -0.60414130
H        1.29514962       1.90190521      -0.76707337
H        0.89906788       1.95843692       0.05480327
H        2.28558068       0.21867901       0.89683130
H        2.12366095      -1.13736449      -0.25242517
14
Frame=3 idx=005609 GeodesicLength=0.15771836803460526 rxn_smarts="[C:1]([C:2]1([H:10])[O:3][C:4]([H:11])([H:12])[C:5]([H:13])([H:14])[O:6]1)([H:7])([H:8])[H:9]>>[C:1]([C@@:2]1([H:10])[O+:3]=[C-:4][C:5]([H:13])([H:14])[O:6]1)([H:7])([H:8])[H:9].[H:11][H:12]"
C       -1.89040511      -0.21227520       0.38577099
C       -0.56613282      -0.68562179      -0.14142056
O       -0.09153082       0.20501254      -1.19599501
C        1.14764552       0.61669303      -0.93191675
C        1.61849551      -0.26704399       0.18783069
O        0.41572764      -0.65671135       0.84346862
H       -2.21072017      -0.85414570       1.20660798
H       -2.64085969      -0.24559821      -0.40386509
H       -1.79256137       0.81066607       0.75148642
H       -0.62971775      -1.67916041      -0.60601328
H        1.32121225       1.91813159      -0.78561402
H        0.91394541       1.97525119       0.03915507
H        2.28272842       0.21362233       0.90152038
H        2.12217297      -1.13882011      -0.25101543
14
Frame=4 idx=005609 GeodesicLength=0.2102851297574351 rxn_smarts="[C:1]([C:2]1([H:10])[O:3][C:4]([H:11])([H:12])[C:5]([H:13])([H:14])[O:6]1)([H:7])([H:8])[H:9]>>[C:1]([C@@:2]1([H:10])[O+:3]=[C-:4][C:5]([H:13])([H:14])[O:6]1)([H:7])([H:8])[H:9].[H:11][H:12]"
C       -1.89519865      -0.21890484       0.38840130
C       -0.56897204      -0.68548331      -0.13991005
O       -0.09661751       0.21022117      -1.19015375
C        1.14391144       0.62007274      -0.92395866
C        1.61545156      -0.27009455       0.19113238
O        0.41235411      -0.65894725       0.84563888
H       -2.21582625      -0.86760654       1.20373033
H       -2.64391661      -0.24794194      -0.40306881
H       -1.79969288       0.80166722       0.76121222
H       -0.62909962      -1.67779497      -0.60808597
H        1.34793601       1.93384463      -0.80466016
H        0.92934392       1.99234373       0.02295278
H        2.27966081       0.20862655       0.90644241
H        2.12066571      -1.14000264      -0.24967292
14
Frame=5 idx=005609 GeodesicLength=0.262872338068734 rxn_smarts="[C:1]([C:2]1([H:10])[O:3][C:4]([H:11])([H:12])[C:5]([H:13])([H:14])[O:6]1)([H:7])([H:8])[H:9]>>[C:1]([C@@:2]1([H:10])[O+:3]=[C-:4][C:5]([H:13])([H:14])[O:6]1)([H:7])([H:8])[H:9].[H:11][H:12]"
C       -1.90008437      -0.22571133       0.39109970
C       -0.57189221      -0.68532800      -0.13837828
O       -0.10181957       0.21568728      -1.18405326
C        1.13999612       0.62383437      -0.91560330
C        1.61228116      -0.27302965       0.19456165
O        0.40889159      -0.66135265       0.84783667
H       -2.22097265      -0.88140222       1.20071942
H       -2.64706531      -0.25029421      -0.40217886
H       -1.80696152       0.79235858       0.77121509
H       -0.62849836      -1.67627822      -0.61037249
H        1.37532675       1.94900815      -0.82423748
H        0.94528427       2.00970985       0.00618049
H        2.27637373       0.20369384       0.91160652
H        2.11914037      -1.14089578      -0.24839587
14
Frame=6 idx=005609 GeodesicLength=0.31546252408225584 rxn_smarts="[C:1]([C:2]1([H:10])[O:3][C:4]([H:11])([H:12])[C:5]([H:13])([H:14])[O:6]1)([H:7])([H:8])[H:9]>>[C:1]([C@@:2]1([H:10])[O+:3]=[C-:4][C:5]([H:13])([H:14])[O:6]1)([H:7])([H:8])[H:9].[H:11][H:12]"
C       -1.90506590      -0.23270442       0.39386904
C       -0.57489536      -0.68514849      -0.13682476
O       -0.10714316       0.22143767      -1.17767146
C        1.13589056       0.62800483      -0.90681889
C        1.60898011      -0.27583748       0.19812763
O        0.40533739      -0.66393608       0.85006192
H       -2.22615961      -0.89555395       1.19756062
H       -2.65030918      -0.25265273      -0.40119037
H       -1.81437587       0.78271836       0.78151413
H       -0.62791079      -1.67459028      -0.61289043
H        1.40339838       1.96357137      -0.84438111
H        0.96179564       2.02734126      -0.01119818
H        2.27285974       0.19882581       0.91702942
H        2.11759805      -1.14147588      -0.24718756
14
Frame=7 idx=005609 GeodesicLength=0.36805410261306903 rxn_smarts="[C:1]([C:2]1([H:10])[O:3][C:4]([H:11])([H:12])[C:5]([H:13])([H:14])[O:6]1)([H:7])([H:8])[H:9]>>[C:1]([C@@:2]1([H:10])[O+:3]=[C-:4][C:5]([H:13])([H:14])[O:6]1)([H:7])([H:8])[H:9].[H:11][H:12]"
C       -1.91014650      -0.23989304       0.39671101
C       -0.57798314      -0.68493690      -0.13524930
O       -0.11259478       0.22749795      -1.17098689
C        1.13158627       0.63261043      -0.89757502
C        1.60554505      -0.27850633       0.20183806
O        0.40168915      -0.66670354       0.85231419
H       -2.23138565      -0.91008032       1.19423948
H       -2.65365178      -0.25501673      -0.40009850
H       -1.82194518       0.77272547       0.79212465
H       -0.62733304      -1.67271087      -0.61565623
H        1.43215977       1.97748145      -0.86512508
H        0.97890676       2.04522745      -0.02921092
H        2.26911336       0.19402317       0.92272551
H        2.11603971      -1.14171821      -0.24605095
14
Frame=8 idx=005609 GeodesicLength=0.4206612555343089 rxn_smarts="[C:1]([C:2]1([H:10])[O:3][C:4]([H:11])([H:12])[C:5]([H:13])([H:14])[O:6]1)([H:7])([H:8])[H:9]>>[C:1]([C@@:2]1([H:10])[O+:3]=[C-:4][C:5]([H:13])([H:14])[O:6]1)([H:7])([H:8])[H:9].[H:11][H:12]"
C       -1.91532840      -0.24728612       0.39962635
C       -0.58115664      -0.68468565      -0.13365168
O       -0.11818045       0.23389191      -1.16397850
C        1.12707422       0.63767958      -0.88783745
C        1.60197259      -0.28102514       0.20570134
O        0.39794555      -0.66966180       0.85459287
H       -2.23664796      -0.92499885       1.19074263
H       -2.65709563      -0.25738543      -0.39890018
H       -1.82967736       0.76236078       0.80306061
H       -0.62676081      -1.67062020      -0.61868609
H        1.46161793       1.99068613      -0.88650301
H        0.99664133       2.06335902      -0.04788553
H        2.26513128       0.18928349       0.92870982
H        2.11446434      -1.14159771      -0.24499118
14
Frame=9 idx=005609 GeodesicLength=0.47307184415117204 rxn_smarts="[C:1]([C:2]1([H:10])[O:3][C:4]([H:11])([H:12])[C:5]([H:13])([H:14])[O:6]1)([H:7])([H:8])[H:9]>>[C:1]([C@@:2]1([H:10])[O+:3]=[C-:4][C:5]([H:13])([H:14])[O:6]1)([H:7])([H:8])[H:9].[H:11][H:12]"
C       -1.92062233      -0.25490733       0.40262215
C       -0.58442042      -0.68437225      -0.13203186
O       -0.12391764       0.24069015      -1.15659179
C        1.12233573       0.64327497      -0.87753597
C        1.59825284      -0.28336581       0.20974484
O        0.39409898      -0.67282233       0.85689364
H       -2.24195001      -0.94036544       1.18703401
H       -2.66065014      -0.25975334      -0.39758297
H       -1.83759764       0.75157193       0.81437152
H       -0.62618399      -1.66826214      -0.62202334
H        1.49178951       2.00305059      -0.90857120
H        1.01510155       2.08167959      -0.06733370
H        2.26089129       0.18463321       0.93502126
H        2.11287229      -1.14105180      -0.24401660
14
Frame=10 idx=005609 GeodesicLength=0.5254633848218582 rxn_smarts="[C:1]([C:2]1([H:10])[O:3][C:4]([H:11])([H:12])[C:5]([H:13])([H:14])[O:6]1)([H:7])([H:8])[H:9]>>[C:1]([C@@:2]1([H:10])[O+:3]=[C-:4][C:5]([H:13])([H:14])[O:6]1)([H:7])([H:8])[H:9].[H:11][H:12]"
C       -1.92602623      -0.26275988       0.40569580
C       -0.58777356      -0.68399307      -0.13038931
O       -0.12980616       0.24790207      -1.14881343
C        1.11736527       0.64941097      -0.86664441
C        1.59438578      -0.28552247       0.21396786
O        0.39015113      -0.67619085       0.85921858
H       -2.24728563      -0.95618582       1.18310004
H       -2.66431427      -0.26211681      -0.39614615
H       -1.84570546       0.74034530       0.82606165
H       -0.62560011      -1.66562633      -0.62567535
H        1.52267160       2.01454871      -0.93137348
H        1.03427553       2.10020919      -0.08754392
H        2.25639694       0.18005096       0.94167077
H        2.11126518      -1.14007198      -0.24312867
14
Frame=11 idx=005609 GeodesicLength=0.5778505409362583 rxn_smarts="[C:1]([C:2]1([H:10])[O:3][C:4]([H:11])([H:12])[C:5]([H:13])([H:14])[O:6]1)([H:7])([H:8])[H:9]>>[C:1]([C@@:2]1([H:10])[O+:3]=[C-:4][C:5]([H:13])([H:14])[O:6]1)([H:7])([H:8])[H:9].[H:11][H:12]"
C       -1.93154308      -0.27085657       0.40884815
C       -0.59121649      -0.68353392      -0.12872384
O       -0.13585315       0.25556674      -1.14060912
C        1.11215330       0.65612284      -0.85511367
C        1.59036850      -0.28747951       0.21838312
O        0.38610004      -0.67977389       0.86156584
H       -2.25265261      -0.97248910       1.17891533
H       -2.66809047      -0.26446995      -0.39458523
H       -1.85401201       0.72865000       0.83815608
H       -0.62500164      -1.66267892      -0.62966752
H        1.55425987       2.02510148      -0.95495893
H        1.05420061       2.11893079      -0.10856076
H        2.25164311       0.17553283       0.94868043
H        2.10964403      -1.13862281      -0.24232989
14
Frame=12 idx=005609 GeodesicLength=0.630244196618079 rxn_smarts="[C:1]([C:2]1([H:10])[O:3][C:4]([H:11])([H:12])[C:5]([H:13])([H:14])[O:6]1)([H:7])([H:8])[H:9]>>[C:1]([C@@:2]1([H:10])[O+:3]=[C-:4][C:5]([H:13])([H:14])[O:6]1)([H:7])([H:8])[H:9].[H:11][H:12]"
C       -1.93717740      -0.27921323       0.41208082
C       -0.59475078      -0.68297736      -0.12703525
O       -0.14206871       0.26373445      -1.13193493
C        1.10668657       0.66345294      -0.84288539
C        1.58619586      -0.28921569       0.22300639
O        0.38194277      -0.68358007       0.86393350
H       -2.25804889      -0.98931480       1.17444462
H       -2.67198287      -0.26680438      -0.39289289
H       -1.86253149       0.71644283       0.85068954
H       -0.62438031      -1.65937635      -0.63403130
H        1.58655398       2.03461147      -0.97939324
H        1.07493139       2.13782049      -0.13043964
H        2.24661882       0.17108181       0.95608134
H        2.10801107      -1.13666212      -0.24162357
14
Frame=13 idx=005609 GeodesicLength=0.6826526235602226 rxn_smarts="[C:1]([C:2]1([H:10])[O:3][C:4]([H:11])([H:12])[C:5]([H:13])([H:14])[O:6]1)([H:7])([H:8])[H:9]>>[C:1]([C@@:2]1([H:10])[O+:3]=[C-:4][C:5]([H:13])([H:14])[O:6]1)([H:7])([H:8])[H:9].[H:11][H:12]"
C       -1.94293110      -0.28784386       0.41539272
C       -0.59837587      -0.68230509      -0.12532388
O       -0.14846050       0.27245162      -1.12274838
C        1.10095300       0.67144828      -0.82989497
C        1.58186464      -0.29071090       0.22785393
O        0.37767842      -0.68761730       0.86631837
H       -2.26346863      -1.00669474       1.16965539
H       -2.67599342      -0.26911302      -0.39106414
H       -1.87127595       0.70368578       0.86368827
H       -0.62372577      -1.65567455      -0.63879747
H        1.61953546       2.04297305      -1.00473646
H        1.09651445       2.15685262      -0.15323003
H        2.24131853       0.16669276       0.96390292
H        2.10636675      -1.13414463      -0.24101627
14
Frame=14 idx=005609 GeodesicLength=0.7350553657817046 rxn_smarts="[C:1]([C:2]1([H:10])[O:3][C:4]([H:11])([H:12])[C:5]([H:13])([H:14])[O:6]1)([H:7])([H:8])[H:9]>>[C:1]([C@@:2]1([H:10])[O+:3]=[C-:4][C:5]([H:13])([H:14])[O:6]1)([H:7])([H:8])[H:9].[H:11][H:12]"
C       -1.94880887      -0.29677038       0.41878549
C       -0.60209246      -0.68149287      -0.12358911
O       -0.15503913       0.28178692      -1.11298743
C        1.09493200       0.68017929      -0.81604906
C        1.57736789      -0.29193609       0.23295178
O        0.37330410      -0.69190051       0.86871794
H       -2.26890866      -1.02468150       1.16449655
H       -2.68012538      -0.27138162      -0.38909042
H       -1.88026226       0.69032019       0.87719870
H       -0.62302504      -1.65151145      -0.64400994
H        1.65319574       2.05004166      -1.03107765
H        1.11902012       2.17598910      -0.17701977
H        2.23572862       0.16236393       0.97219195
H        2.10471334      -1.13100667      -0.24051903
14
Frame=15 idx=005609 GeodesicLength=0.7874537492456136 rxn_smarts="[C:1]([C:2]1([H:10])[O:3][C:4]([H:11])([H:12])[C:5]([H:13])([H:14])[O:6]1)([H:7])([H:8])[H:9]>>[C:1]([C@@:2]1([H:10])[O+:3]=[C-:4][C:5]([H:13])([H:14])[O:6]1)([H:7])([H:8])[H:9].[H:11][H:12]"
C       -1.95481261      -0.30601186       0.42225732
C       -0.60589909      -0.68051445      -0.12183146
O       -0.16181272       0.29180743      -1.10258960
C        1.08860394       0.68972017      -0.80124699
C        1.57270048      -0.29286237       0.23832487
O        0.36881923      -0.69644418       0.87112709
H       -2.27436089      -1.04331965       1.15891858
H       -2.68438007      -0.27359744      -0.38696492
H       -1.88950508       0.67629009       0.89125930
H       -0.62226336      -1.64682192      -0.64971364
H        1.68750607       2.05566279      -1.05850562
H        1.14251168       2.19518332      -0.20188621
H        2.22983917       0.15808767       0.98099524
H        2.10305324      -1.12717960      -0.24014396
14
Frame=16 idx=005609 GeodesicLength=0.8398261339761608 rxn_smarts="[C:1]([C:2]1([H:10])[O:3][C:4]([H:11])([H:12])[C:5]([H:13])([H:14])[O:6]1)([H:7])([H:8])[H:9]>>[C:1]([C@@:2]1([H:10])[O+:3]=[C-:4][C:5]([H:13])([H:14])[O:6]1)([H:7])([H:8])[H:9].[H:11][H:12]"
C       -1.96094585      -0.31559408       0.42580655
C       -0.60979423      -0.67933667      -0.12005085
O       -0.16879124       0.30260001      -1.09147362
C        1.08194156       0.70017042      -0.78535494
C        1.56785523      -0.29345198       0.24400826
O        0.36422195      -0.70126803       0.87354111
H       -2.27981803      -1.06267235       1.15285359
H       -2.68875890      -0.27574060      -0.38467963
H       -1.89902359       0.66152140       0.90592421
H       -0.62142142      -1.64152230      -0.65596643
H        1.72242998       2.05963556      -1.08713741
H        1.16707958       2.21437463      -0.22793676
H        2.22363547       0.15385927       0.99037706
H        2.10138950      -1.12257529      -0.23991115
