12
Frame=0 idx=004347 GeodesicLength=0.0 rxn_smarts="[C:1](#[C:2][C:3]([C:4]([C:5]#[C:6][H:12])([H:10])[H:11])([H:8])[H:9])[H:7]>>[C:1](#[C:2][C:3](/[C:4](=[C:5](\[C:6][H:12])[H:10])[H:11])([H:8])[H:9])[H:7]"
C        2.86298421      -0.51408693       1.07158467
C        1.73430204      -0.15104472       0.91096947
C        0.35691709       0.27807033       0.69382053
C       -0.25529055      -0.30188817      -0.55158501
C       -1.59186058      -0.13137675      -0.84109405
C       -2.85765834      -0.00903077      -0.60340679
H        3.86700772      -0.83413497       1.22227120
H        0.31743396       1.37110613       0.66489097
H       -0.27862150      -0.01698067       1.53867056
H       -1.08699536       0.34256706      -1.78584674
H        0.38887361      -0.80715489      -1.26156936
H       -3.45709235       0.77395432      -1.05870550
12
Frame=1 idx=004347 GeodesicLength=0.055685227881984455 rxn_smarts="[C:1](#[C:2][C:3]([C:4]([C:5]#[C:6][H:12])([H:10])[H:11])([H:8])[H:9])[H:7]>>[C:1](#[C:2][C:3](/[C:4](=[C:5](\[C:6][H:12])[H:10])[H:11])([H:8])[H:9])[H:7]"
C        2.87144635      -0.48402491       1.05084936
C        1.73438921      -0.14273249       0.90147365
C        0.34594753       0.25759770       0.70049137
C       -0.26067786      -0.31259084      -0.55219106
C       -1.59547927      -0.13190893      -0.84879396
C       -2.85050145       0.04736806      -0.59073347
H        3.87929040      -0.78805091       1.20930196
H        0.27928347       1.34963142       0.69211812
H       -0.27600551      -0.06825411       1.54392326
H       -1.05339265       0.32978384      -1.79576871
H        0.37030297      -0.87179855      -1.23303321
H       -3.44460319       0.81497973      -1.07763732
12
Frame=2 idx=004347 GeodesicLength=0.11129981194370536 rxn_smarts="[C:1](#[C:2][C:3]([C:4]([C:5]#[C:6][H:12])([H:10])[H:11])([H:8])[H:9])[H:7]>>[C:1](#[C:2][C:3](/[C:4](=[C:5](\[C:6][H:12])[H:10])[H:11])([H:8])[H:9])[H:7]"
C        2.87986607      -0.45554654       1.02714005
C        1.73539197      -0.13495384       0.88888083
C        0.33704348       0.23810202       0.70562695
C       -0.26587172      -0.32130998      -0.55376182
C       -1.59900278      -0.12851331      -0.85524595
C       -2.84106621       0.10318615      -0.57694519
H        3.88856108      -0.74546812       1.20535581
H        0.24489658       1.32818461       0.71820357
H       -0.27010896      -0.11764923       1.54747498
H       -1.02072219       0.31946985      -1.80467049
H        0.34818089      -0.93228284      -1.20499952
H       -3.43716820       0.84678122      -1.09705922
12
Frame=3 idx=004347 GeodesicLength=0.1669622261796019 rxn_smarts="[C:1](#[C:2][C:3]([C:4]([C:5]#[C:6][H:12])([H:10])[H:11])([H:8])[H:9])[H:7]>>[C:1](#[C:2][C:3](/[C:4](=[C:5](\[C:6][H:12])[H:10])[H:11])([H:8])[H:9])[H:7]"
C        2.88609026      -0.42765823       1.00790676
C        1.73500592      -0.12755177       0.87842996
C        0.32797314       0.21928610       0.71111357
C       -0.27049330      -0.33007902      -0.55506427
C       -1.60157733      -0.12395617      -0.86224234
C       -2.82936406       0.15716389      -0.56615690
H        3.89701858      -0.70414841       1.19464935
H        0.21173238       1.30659320       0.74350964
H       -0.26492382      -0.16458896       1.55049514
H       -0.98636589       0.30844670      -1.81357432
H        0.32505467      -0.99000278      -1.17519054
H       -3.43015055       0.87649543      -1.11387606
12
Frame=4 idx=004347 GeodesicLength=0.2226912760802189 rxn_smarts="[C:1](#[C:2][C:3]([C:4]([C:5]#[C:6][H:12])([H:10])[H:11])([H:8])[H:9])[H:7]>>[C:1](#[C:2][C:3](/[C:4](=[C:5](\[C:6][H:12])[H:10])[H:11])([H:8])[H:9])[H:7]"
C        2.89061641      -0.40130984       0.99130064
C        1.73367135      -0.12118122       0.86911262
C        0.31913320       0.20098792       0.71652968
C       -0.27476379      -0.33873158      -0.55631319
C       -1.60338179      -0.11777979      -0.86948929
C       -2.81570816       0.20983709      -0.55723459
H        3.90485180      -0.66332283       1.18102884
H        0.18046150       1.28486763       0.76772023
H       -0.25992039      -0.20918088       1.55285316
H       -0.95082390       0.29734147      -1.82214672
H        0.30048023      -1.04455969      -1.14455813
H       -3.42461646       0.90303172      -1.12880324
12
Frame=5 idx=004347 GeodesicLength=0.27850785623106394 rxn_smarts="[C:1](#[C:2][C:3]([C:4]([C:5]#[C:6][H:12])([H:10])[H:11])([H:8])[H:9])[H:7]>>[C:1](#[C:2][C:3](/[C:4](=[C:5](\[C:6][H:12])[H:10])[H:11])([H:8])[H:9])[H:7]"
C        2.89376676      -0.37640253       0.97656325
C        1.73162035      -0.11574149       0.86041066
C        0.31059627       0.18325297       0.72149411
C       -0.27872035      -0.34735033      -0.55778339
C       -1.60447557      -0.11039036      -0.87711247
C       -2.80037996       0.26077301      -0.54979336
H        3.91172686      -0.62326913       1.16670958
H        0.15103428       1.26319622       0.79034353
H       -0.25499936      -0.25138394       1.55437768
H       -0.91441282       0.28604849      -1.83046854
H        0.27477214      -1.09564791      -1.11396082
H       -3.42052859       0.92691499      -1.14078025
12
Frame=6 idx=004347 GeodesicLength=0.3344145692991593 rxn_smarts="[C:1](#[C:2][C:3]([C:4]([C:5]#[C:6][H:12])([H:10])[H:11])([H:8])[H:9])[H:7]>>[C:1](#[C:2][C:3](/[C:4](=[C:5](\[C:6][H:12])[H:10])[H:11])([H:8])[H:9])[H:7]"
C        2.89558047      -0.35282267       0.96381478
C        1.72878787      -0.11129896       0.85261064
C        0.30220148       0.16603143       0.72612287
C       -0.28238732      -0.35604807      -0.55939009
C       -1.60479292      -0.10201679      -0.88524169
C       -2.78355544       0.30987283      -0.54385347
H        3.91778822      -0.58380842       1.15108943
H        0.12321300       1.24166204       0.81139525
H       -0.25049001      -0.29124646       1.55524666
H       -0.87698516       0.27437288      -1.83851927
H        0.24821847      -1.14342471      -1.08352806
H       -3.41757867       0.94872690      -1.14974707
12
Frame=7 idx=004347 GeodesicLength=0.39043765958778126 rxn_smarts="[C:1](#[C:2][C:3]([C:4]([C:5]#[C:6][H:12])([H:10])[H:11])([H:8])[H:9])[H:7]>>[C:1](#[C:2][C:3](/[C:4](=[C:5](\[C:6][H:12])[H:10])[H:11])([H:8])[H:9])[H:7]"
C        2.89626265      -0.33124434       0.95229333
C        1.72536668      -0.10826428       0.84518511
C        0.29404210       0.14909370       0.73013960
C       -0.28593244      -0.36496267      -0.56133515
C       -1.60447843      -0.09274309      -0.89389690
C       -2.76545776       0.35730179      -0.53901191
H        3.92315297      -0.54348423       1.13607751
H        0.09716016       1.22018858       0.83062948
H       -0.24630123      -0.32900074       1.55536821
H       -0.83881926       0.26216947      -1.84638650
H        0.22066370      -1.18822696      -1.05377900
H       -3.41565913       0.96917278      -1.15528377
12
Frame=8 idx=004347 GeodesicLength=0.446496986104206 rxn_smarts="[C:1](#[C:2][C:3]([C:4]([C:5]#[C:6][H:12])([H:10])[H:11])([H:8])[H:9])[H:7]>>[C:1](#[C:2][C:3](/[C:4](=[C:5](\[C:6][H:12])[H:10])[H:11])([H:8])[H:9])[H:7]"
C        2.89581010      -0.31070793       0.94276100
C        1.72127192      -0.10595814       0.83880739
C        0.28589816       0.13277059       0.73390143
C       -0.28917678      -0.37386731      -0.56338596
C       -1.60330331      -0.08275879      -0.90317063
C       -2.74621366       0.40265777      -0.53548302
H        3.92763317      -0.50426664       1.11947134
H        0.07230803       1.19914845       0.84835208
H       -0.24276718      -0.36450216       1.55505207
H       -0.79961587       0.24938442      -1.85394450
H        0.19277719      -1.22981918      -1.02454118
H       -3.41462176       0.98791892      -1.15782003
12
Frame=9 idx=004347 GeodesicLength=0.5026039350087497 rxn_smarts="[C:1](#[C:2][C:3]([C:4]([C:5]#[C:6][H:12])([H:10])[H:11])([H:8])[H:9])[H:7]>>[C:1](#[C:2][C:3](/[C:4](=[C:5](\[C:6][H:12])[H:10])[H:11])([H:8])[H:9])[H:7]"
C        2.89467893      -0.29293932       0.93363565
C        1.71712875      -0.10479395       0.83197033
C        0.27833974       0.11713075       0.73656573
C       -0.29230054      -0.38253006      -0.56614314
C       -1.60160887      -0.07185011      -0.91287700
C       -2.72603843       0.44638239      -0.53217333
H        3.93097585      -0.46495309       1.10634408
H        0.04960242       1.17881130       0.86375787
H       -0.23921219      -0.39749385       1.55380119
H       -0.76024398       0.23638400      -1.86138697
H        0.16419145      -1.26818845      -0.99693346
H       -3.41551314       1.00404039      -1.15656095
12
Frame=10 idx=004347 GeodesicLength=0.5587510407765887 rxn_smarts="[C:1](#[C:2][C:3]([C:4]([C:5]#[C:6][H:12])([H:10])[H:11])([H:8])[H:9])[H:7]>>[C:1](#[C:2][C:3](/[C:4](=[C:5](\[C:6][H:12])[H:10])[H:11])([H:8])[H:9])[H:7]"
C        2.89230155      -0.27590074       0.92735338
C        1.71208610      -0.10434438       0.82701563
C        0.27043632       0.10203741       0.73941740
C       -0.29500314      -0.39114838      -0.56882443
C       -1.59874579      -0.06030363      -0.92347647
C       -2.70494518       0.48785154      -0.53041113
H        3.93369050      -0.42654341       1.08897360
H        0.02747455       1.15902082       0.87813694
H       -0.23697660      -0.42855124       1.55250551
H       -0.71928019       0.22262232      -1.86849296
H        0.13560186      -1.30394167      -0.96953731
H       -3.41663998       1.01920137      -1.15266017
12
Frame=11 idx=004347 GeodesicLength=0.6149054348441042 rxn_smarts="[C:1](#[C:2][C:3]([C:4]([C:5]#[C:6][H:12])([H:10])[H:11])([H:8])[H:9])[H:7]>>[C:1](#[C:2][C:3](/[C:4](=[C:5](\[C:6][H:12])[H:10])[H:11])([H:8])[H:9])[H:7]"
C        2.88951578      -0.26093101       0.92123382
C        1.70715071      -0.10428218       0.82148142
C        0.26305568       0.08791663       0.74112672
C       -0.29751826      -0.39927782      -0.57224744
C       -1.59533011      -0.04805821      -0.93454430
C       -2.68330015       0.52737404      -0.52877643
H        3.93496417      -0.38949342       1.07527336
H        0.00704799       1.14026489       0.89023527
H       -0.23473554      -0.45712262       1.55028991
H       -0.67821881       0.20845059      -1.87549834
H        0.10676185      -1.33652333      -0.94382969
H       -3.41939330       1.03168245      -1.14474429
12
Frame=12 idx=004347 GeodesicLength=0.6709708919412445 rxn_smarts="[C:1](#[C:2][C:3]([C:4]([C:5]#[C:6][H:12])([H:10])[H:11])([H:8])[H:9])[H:7]>>[C:1](#[C:2][C:3](/[C:4](=[C:5](\[C:6][H:12])[H:10])[H:11])([H:8])[H:9])[H:7]"
C        2.88609114      -0.24589842       0.91710838
C        1.70201070      -0.10306341       0.81665100
C        0.25578411       0.07552990       0.74225783
C       -0.29931520      -0.40642392      -0.57621299
C       -1.59095304      -0.03550986      -0.94640818
C       -2.66164823       0.56330982      -0.52769867
H        3.93479882      -0.35830476       1.06119465
H       -0.01284993       1.12327577       0.90050001
H       -0.23297966      -0.48279438       1.54755641
H       -0.63649925       0.19422512      -1.88237878
H        0.07904787      -1.36548225      -0.91945814
H       -3.42348731       1.04113638      -1.13311152
12
Frame=13 idx=004347 GeodesicLength=0.7270198411854331 rxn_smarts="[C:1](#[C:2][C:3]([C:4]([C:5]#[C:6][H:12])([H:10])[H:11])([H:8])[H:9])[H:7]>>[C:1](#[C:2][C:3](/[C:4](=[C:5](\[C:6][H:12])[H:10])[H:11])([H:8])[H:9])[H:7]"
C        2.88223425      -0.23245689       0.91372572
C        1.69680764      -0.10207758       0.81181509
C        0.24877429       0.06413533       0.74256446
C       -0.30084504      -0.41302287      -0.58081228
C       -1.58588586      -0.02224728      -0.95895575
C       -2.63989468       0.59709489      -0.52692405
H        3.93371214      -0.32877248       1.04897929
H       -0.03155894       1.10744597       0.90885825
H       -0.23162191      -0.50617482       1.54419031
H       -0.59432678       0.17956119      -1.88919562
H        0.05128965      -1.39179672      -0.89643643
H       -3.42868476       1.04831124      -1.11780899
12
Frame=14 idx=004347 GeodesicLength=0.783085472767981 rxn_smarts="[C:1](#[C:2][C:3]([C:4]([C:5]#[C:6][H:12])([H:10])[H:11])([H:8])[H:9])[H:7]>>[C:1](#[C:2][C:3](/[C:4](=[C:5](\[C:6][H:12])[H:10])[H:11])([H:8])[H:9])[H:7]"
C        2.87746070      -0.21940975       0.91318106
C        1.69094572      -0.10113574       0.80882102
C        0.24139019       0.05357887       0.74315092
C       -0.30185609      -0.41901817      -0.58538776
C       -1.57956236      -0.00809836      -0.97238081
C       -2.61782017       0.62916685      -0.52741035
H        3.93205415      -0.30169442       1.03233508
H       -0.05010601       1.09254662       0.91660187
H       -0.23160866      -0.52784788       1.54089055
H       -0.55051275       0.16443895      -1.89546473
H        0.02389929      -1.41557501      -0.87391701
H       -3.43428402       1.05304803      -1.10041983
12
Frame=15 idx=004347 GeodesicLength=0.839104837978306 rxn_smarts="[C:1](#[C:2][C:3]([C:4]([C:5]#[C:6][H:12])([H:10])[H:11])([H:8])[H:9])[H:7]>>[C:1](#[C:2][C:3](/[C:4](=[C:5](\[C:6][H:12])[H:10])[H:11])([H:8])[H:9])[H:7]"
C        2.87245914      -0.20688797       0.91301278
C        1.68514902      -0.09953234       0.80551548
C        0.23426231       0.04433833       0.74278385
C       -0.30253277      -0.42424894      -0.59071589
C       -1.57263137       0.00652618      -0.98647085
C       -2.59623635       0.65845006      -0.52794490
H        3.92934002      -0.27818893       1.01826849
H       -0.06790736       1.07908522       0.92242184
H       -0.23173862      -0.54722484       1.53688878
H       -0.50650928       0.14884811      -1.90168558
H       -0.00314731      -1.43668249      -0.85287393
H       -3.44050743       1.05551763      -1.07920009
12
Frame=16 idx=004347 GeodesicLength=0.8951198328577729 rxn_smarts="[C:1](#[C:2][C:3]([C:4]([C:5]#[C:6][H:12])([H:10])[H:11])([H:8])[H:9])[H:7]>>[C:1](#[C:2][C:3](/[C:4](=[C:5](\[C:6][H:12])[H:10])[H:11])([H:8])[H:9])[H:7]"
C        2.86731912      -0.19422784       0.91281683
C        1.67939453      -0.09729261       0.80181741
C        0.22732691       0.03620952       0.74154760
C       -0.30297623      -0.42883797      -0.59672638
C       -1.56515291       0.02164051      -1.00116319
C       -2.57528058       0.68511297      -0.52849169
H        3.92569611      -0.25806912       1.00683095
H       -0.08516869       1.06681584       0.92660395
H       -0.23193448      -0.56472445       1.53224593
H       -0.46235328       0.13255896      -1.90781778
H       -0.03003641      -1.45543098      -0.83315632
H       -3.44683410       1.05624519      -1.05450733
