10
Frame=0 idx=004455 GeodesicLength=0.0 rxn_smarts="[C:1]([C@@:2]([O:3][H:10])([C:4]#[N:5])[H:9])([H:6])([H:7])[H:8]>>[C:1]([C:2]([O:3][H:10])=[C:4]=[N:5][H:9])([H:6])([H:7])[H:8]"
C       -1.17330128      -0.04285363      -0.05445568
C        0.32804203      -0.04008474      -0.06698822
O        0.93850297      -1.21681759      -0.37315159
C        1.07648150       1.20904371      -0.41386630
N        1.21870020       1.09676186       0.84432596
H       -1.51955958      -0.04727375      -1.09048672
H       -1.55391866       0.85385827       0.43034931
H       -1.56335770      -0.92738041       0.44919856
H        0.58350008       0.15215149       1.25585651
H        1.66491044      -1.03740521      -0.98078184
10
Frame=1 idx=004455 GeodesicLength=0.10151592523900527 rxn_smarts="[C:1]([C@@:2]([O:3][H:10])([C:4]#[N:5])[H:9])([H:6])([H:7])[H:8]>>[C:1]([C:2]([O:3][H:10])=[C:4]=[N:5][H:9])([H:6])([H:7])[H:8]"
C       -1.17722638      -0.04489369      -0.05816334
C        0.32436550      -0.04383367      -0.06460866
O        0.92647202      -1.22187814      -0.38960444
C        1.06721804       1.20301658      -0.40383620
N        1.23891888       1.11883212       0.84778966
H       -1.52160305      -0.04959600      -1.09475562
H       -1.55946143       0.85140189       0.42629593
H       -1.56884376      -0.92959738       0.44407166
H        0.60091697       0.15779081       1.26897045
H        1.66924320      -1.04124253      -0.97615942
10
Frame=2 idx=004455 GeodesicLength=0.203005978207068 rxn_smarts="[C:1]([C@@:2]([O:3][H:10])([C:4]#[N:5])[H:9])([H:6])([H:7])[H:8]>>[C:1]([C:2]([O:3][H:10])=[C:4]=[N:5][H:9])([H:6])([H:7])[H:8]"
C       -1.18134802      -0.04705355      -0.06195572
C        0.32047310      -0.04790356      -0.06211578
O        0.91420939      -1.22673623      -0.40666312
C        1.05798824       1.19675011      -0.39313198
N        1.25941520       1.14184779       0.85067519
H       -1.52376157      -0.05152818      -1.09914158
H       -1.56515265       0.84865477       0.42251609
H       -1.57458752      -0.93210841       0.43851377
H        0.61915640       0.16355871       1.28205521
H        1.67360743      -1.04548146      -0.97075208
10
Frame=3 idx=004455 GeodesicLength=0.30447238863116505 rxn_smarts="[C:1]([C@@:2]([O:3][H:10])([C:4]#[N:5])[H:9])([H:6])([H:7])[H:8]>>[C:1]([C:2]([O:3][H:10])=[C:4]=[N:5][H:9])([H:6])([H:7])[H:8]"
C       -1.18566676      -0.04934052      -0.06583769
C        0.31636148      -0.05231498      -0.05948389
O        0.90172141      -1.23135312      -0.42437315
C        1.04879621       1.19022581      -0.38169271
N        1.28016994       1.16587417       0.85293200
H       -1.52601958      -0.05303845      -1.10365099
H       -1.57099721       0.84559387       0.41902684
H       -1.58060174      -0.93493461       0.43247954
H        0.63828190       0.16946538       1.29511138
H        1.67795435      -1.05017757      -0.96451132
10
Frame=4 idx=004455 GeodesicLength=0.4059148845900814 rxn_smarts="[C:1]([C@@:2]([O:3][H:10])([C:4]#[N:5])[H:9])([H:6])([H:7])[H:8]>>[C:1]([C:2]([O:3][H:10])=[C:4]=[N:5][H:9])([H:6])([H:7])[H:8]"
C       -1.19018324      -0.05176320      -0.06981213
C        0.31202754      -0.05709281      -0.05668345
O        0.88901088      -1.23567859      -0.44279668
C        1.03964222       1.18342587      -0.36945577
N        1.30116172       1.19098151       0.85449895
H       -1.52836035      -0.05408627      -1.10829057
H       -1.57700108       0.84219181       0.41585566
H       -1.58690104      -0.93809937       0.42591515
H        0.65836366       0.17552089       1.30813427
H        1.68223969      -1.05539985      -0.95736543
10
Frame=5 idx=004455 GeodesicLength=0.5073485431771826 rxn_smarts="[C:1]([C@@:2]([O:3][H:10])([C:4]#[N:5])[H:9])([H:6])([H:7])[H:8]>>[C:1]([C:2]([O:3][H:10])=[C:4]=[N:5][H:9])([H:6])([H:7])[H:8]"
C       -1.19489142      -0.05432937      -0.07388361
C        0.30747376      -0.06226395      -0.05368077
O        0.87609636      -1.23966805      -0.46197991
C        1.03054245       1.17632379      -0.35633816
N        1.32235028       1.21724638       0.85530464
H       -1.53075896      -0.05462912      -1.11307627
H       -1.58316460       0.83842440       0.41302885
H       -1.59349298      -0.94163762       0.41876587
H        0.67946163       0.18175616       1.32114258
H        1.68638349      -1.06122264      -0.94928323
10
Frame=6 idx=004455 GeodesicLength=0.6087989062835512 rxn_smarts="[C:1]([C@@:2]([O:3][H:10])([C:4]#[N:5])[H:9])([H:6])([H:7])[H:8]>>[C:1]([C:2]([O:3][H:10])=[C:4]=[N:5][H:9])([H:6])([H:7])[H:8]"
C       -1.19979005      -0.05704981      -0.07805740
C        0.30269727      -0.06785570      -0.05042871
O        0.86299820      -1.24324815      -0.48196931
C        1.02149841       1.16889957      -0.34224467
N        1.34371741       1.24473748       0.85524342
H       -1.53317668      -0.05462015      -1.11800833
H       -1.58950033       0.83424949       0.41057175
H       -1.60039611      -0.94557239       0.41095718
H        0.70164541       0.18818920       1.33414781
H        1.69030648      -1.06772955      -0.94021174
10
Frame=7 idx=004455 GeodesicLength=0.7102074278657923 rxn_smarts="[C:1]([C@@:2]([O:3][H:10])([C:4]#[N:5])[H:9])([H:6])([H:7])[H:8]>>[C:1]([C:2]([O:3][H:10])=[C:4]=[N:5][H:9])([H:6])([H:7])[H:8]"
C       -1.20486505      -0.05993640      -0.08233966
C        0.29771002      -0.07389900      -0.04686745
O        0.84975672      -1.24635347      -0.50277038
C        1.01252579       1.16112053      -0.32707080
N        1.36521409       1.27350107       0.85422051
H       -1.53557432      -0.05401738      -1.12309498
H       -1.59600388       0.82963192       0.40849256
H       -1.60761080      -0.94992646       0.40242021
H        0.72496038       0.19487353       1.34718392
H        1.69388704      -1.07499435      -0.93017391
10
Frame=8 idx=004455 GeodesicLength=0.8116024813082311 rxn_smarts="[C:1]([C@@:2]([O:3][H:10])([C:4]#[N:5])[H:9])([H:6])([H:7])[H:8]>>[C:1]([C:2]([O:3][H:10])=[C:4]=[N:5][H:9])([H:6])([H:7])[H:8]"
C       -1.21010550      -0.06299511      -0.08673819
C        0.29252303      -0.08042960      -0.04293199
O        0.83641728      -1.24891049      -0.52440094
C        1.00363877       1.15295868      -0.31068410
N        1.38678266       1.30359786       0.85208726
H       -1.53792168      -0.05274487      -1.12833583
H       -1.60267862       0.82451761       0.40681840
H       -1.61512911      -0.95473695       0.39304723
H        0.74946599       0.20187671       1.36031235
H        1.69700716      -1.08313385      -0.91917419
10
Frame=9 idx=004455 GeodesicLength=0.9129045299064569 rxn_smarts="[C:1]([C@@:2]([O:3][H:10])([C:4]#[N:5])[H:9])([H:6])([H:7])[H:8]>>[C:1]([C:2]([O:3][H:10])=[C:4]=[N:5][H:9])([H:6])([H:7])[H:8]"
C       -1.21549973      -0.06622671      -0.09125897
C        0.28710355      -0.08744071      -0.03846566
O        0.82303328      -1.25075054      -0.54670932
C        0.99473563       1.14437356      -0.29306330
N        1.40852523       1.33499448       0.84861288
H       -1.53999178      -0.05078568      -1.13374562
H       -1.60961686       0.81886006       0.40559178
H       -1.62302461      -0.96000330       0.38271700
H        0.77521707       0.20909105       1.37355490
H        1.69951821      -1.09211222      -0.90723370
10
Frame=10 idx=004455 GeodesicLength=1.014242208070201 rxn_smarts="[C:1]([C@@:2]([O:3][H:10])([C:4]#[N:5])[H:9])([H:6])([H:7])[H:8]>>[C:1]([C:2]([O:3][H:10])=[C:4]=[N:5][H:9])([H:6])([H:7])[H:8]"
C       -1.22102154      -0.06964929      -0.09591170
C        0.28149762      -0.09500830      -0.03346727
O        0.80966785      -1.25184837      -0.56978500
C        0.98592374       1.13534730      -0.27394852
N        1.43027334       1.36777827       0.84365701
H       -1.54186101      -0.04804061      -1.13932803
H       -1.61674955       0.81261321       0.40481817
H       -1.63123510      -0.96578221       0.37135305
H        0.80222492       0.21671544       1.38702773
H        1.70127973      -1.10212542      -0.89441545
10
Frame=11 idx=004455 GeodesicLength=1.1156015512832989 rxn_smarts="[C:1]([C@@:2]([O:3][H:10])([C:4]#[N:5])[H:9])([H:6])([H:7])[H:8]>>[C:1]([C:2]([O:3][H:10])=[C:4]=[N:5][H:9])([H:6])([H:7])[H:8]"
C       -1.22664029      -0.07326817      -0.10070459
C        0.27571326      -0.10315460      -0.02784576
O        0.79640618      -1.25210950      -0.59348793
C        0.97719852       1.12584065      -0.25321117
N        1.45201033       1.40192963       0.83703503
H       -1.54340074      -0.04450030      -1.14509589
H       -1.62409732       0.80574895       0.40447991
H       -1.63977383      -0.97207055       0.35888531
H        0.83047940       0.22476626       1.40083949
H        1.70210449      -1.11318238      -0.88089440
10
Frame=12 idx=004455 GeodesicLength=1.2169694493382113 rxn_smarts="[C:1]([C@@:2]([O:3][H:10])([C:4]#[N:5])[H:9])([H:6])([H:7])[H:8]>>[C:1]([C:2]([O:3][H:10])=[C:4]=[N:5][H:9])([H:6])([H:7])[H:8]"
C       -1.23232559      -0.07708612      -0.10564115
C        0.26975699      -0.11191075      -0.02150712
O        0.78333161      -1.25143919      -0.61767894
C        0.96855993       1.11582148      -0.23069449
N        1.47368655       1.43741690       0.82851231
H       -1.54448345      -0.04013391      -1.15104174
H       -1.63168749       0.79823230       0.40456526
H       -1.64864570      -0.97885616       0.34522234
H        0.85997294       0.23326587       1.41511165
H        1.70183421      -1.12531043      -0.86684812
10
Frame=13 idx=004455 GeodesicLength=1.318229243022186 rxn_smarts="[C:1]([C@@:2]([O:3][H:10])([C:4]#[N:5])[H:9])([H:6])([H:7])[H:8]>>[C:1]([C:2]([O:3][H:10])=[C:4]=[N:5][H:9])([H:6])([H:7])[H:8]"
C       -1.23803319      -0.08109062      -0.11073346
C        0.26364893      -0.12130569      -0.01435706
O        0.77054044      -1.24979654      -0.64213559
C        0.96001722       1.10523034      -0.20622202
N        1.49516655       1.47414055       0.81783191
H       -1.54500937      -0.03490217      -1.15717406
H       -1.63950813       0.79005987       0.40503781
H       -1.65782749      -0.98612118       0.33029633
H        0.89069352       0.24225005       1.42999761
H        1.70031151      -1.13846461      -0.85254146
10
Frame=14 idx=004455 GeodesicLength=1.4193853169732453 rxn_smarts="[C:1]([C@@:2]([O:3][H:10])([C:4]#[N:5])[H:9])([H:6])([H:7])[H:8]>>[C:1]([C:2]([O:3][H:10])=[C:4]=[N:5][H:9])([H:6])([H:7])[H:8]"
C       -1.24373170      -0.08526762      -0.11598337
C        0.25738430      -0.13136481      -0.00629439
O        0.75812414      -1.24712406      -0.66659794
C        0.95157295       1.09402249      -0.17956814
N        1.51635483       1.51198079       0.80464595
H       -1.54482414      -0.02879339      -1.16347162
H       -1.64760350       0.78121376       0.40584736
H       -1.66733419      -0.99379950       0.31402469
H        0.92262923       0.25169383       1.44565936
H        1.69742809      -1.15256149      -0.83826189
10
Frame=15 idx=004455 GeodesicLength=1.5203951224806649 rxn_smarts="[C:1]([C@@:2]([O:3][H:10])([C:4]#[N:5])[H:9])([H:6])([H:7])[H:8]>>[C:1]([C:2]([O:3][H:10])=[C:4]=[N:5][H:9])([H:6])([H:7])[H:8]"
C       -1.24937490      -0.08958417      -0.12140516
C        0.25096397      -0.14212280       0.00279319
O        0.74616435      -1.24345602      -0.69072260
C        0.94324517       1.08212048      -0.15045839
N        1.53702308       1.55076382       0.78855806
H       -1.54379378      -0.02176365      -1.16994961
H       -1.65597059       0.77172048       0.40691985
H       -1.67715873      -1.00183218       0.29634788
H        0.95581336       0.26157640       1.46229717
H        1.69308806      -1.16742236      -0.82438040
10
Frame=16 idx=004455 GeodesicLength=1.6213510887379194 rxn_smarts="[C:1]([C@@:2]([O:3][H:10])([C:4]#[N:5])[H:9])([H:6])([H:7])[H:8]>>[C:1]([C:2]([O:3][H:10])=[C:4]=[N:5][H:9])([H:6])([H:7])[H:8]"
C       -1.25493616      -0.09400378      -0.12700889
C        0.24437331      -0.15359868       0.01299177
O        0.73471405      -1.23879195      -0.71423640
C        0.93506570       1.06946715      -0.11859285
N        1.55692272       1.59033280       0.76908274
H       -1.54179146      -0.01374152      -1.17662901
H       -1.66462898       0.76159994       0.40824306
H       -1.68734110      -1.01017519       0.27717934
H        0.99032489       0.27181829       1.48011778
H        1.68729702      -1.18290705      -0.81114755
