19
Frame=0 idx=010398 GeodesicLength=0.0 rxn_smarts="[C:1]([C:2]1([H:11])[C:3]([H:12])([H:13])[C:4]2([C:5]([H:14])([H:15])[C:6]2([H:16])[H:17])[C:7]1([H:18])[H:19])([H:8])([H:9])[H:10]>>[C:1]([C:2][H:11])([H:8])([H:9])[H:10].[C:3]1([H:12])([H:13])[C:4]2([C:5]([H:14])([H:15])[C:6]2([H:16])[H:17])[C:7]1([H:18])[H:19]"
C       -2.64877956       0.50841172       0.17599987
C       -1.95176530      -0.62029314      -0.52102200
C       -0.03574430      -0.20609479      -0.96726194
C        1.12662153      -0.07248442      -0.04181321
C        2.54352665      -0.47379085      -0.09211420
C        2.14336900       0.96789037       0.18834346
C       -0.05499842      -0.53501085       0.67229112
H       -3.70869258       0.29796153      -0.01699528
H       -2.44455541       1.47931013      -0.28488381
H       -2.54353805       0.61352959       1.26691714
H       -2.00210826      -1.53386707       0.07997436
H        0.03570864      -1.01898110      -1.67307156
H       -0.38183316       0.73164410      -1.37730465
H        2.98276829      -0.69198315      -1.05825194
H        2.94834551      -1.05106592       0.73072991
H        2.32241324       1.69793491      -0.59216462
H        2.28378707       1.34032181       1.19629967
H       -0.53397091       0.14537492       1.36107549
H       -0.08055398      -1.57880784       0.95325226
19
Frame=1 idx=010398 GeodesicLength=0.05078890622905211 rxn_smarts="[C:1]([C:2]1([H:11])[C:3]([H:12])([H:13])[C:4]2([C:5]([H:14])([H:15])[C:6]2([H:16])[H:17])[C:7]1([H:18])[H:19])([H:8])([H:9])[H:10]>>[C:1]([C:2][H:11])([H:8])([H:9])[H:10].[C:3]1([H:12])([H:13])[C:4]2([C:5]([H:14])([H:15])[C:6]2([H:16])[H:17])[C:7]1([H:18])[H:19]"
C       -2.67036147       0.49357905       0.17694123
C       -1.94125996      -0.61669711      -0.51280860
C       -0.03316693      -0.18612489      -0.96863898
C        1.13036978      -0.06583460      -0.04277873
C        2.54186472      -0.48770435      -0.09409307
C        2.16358122       0.96003767       0.18243364
C       -0.05550060      -0.51183160       0.67918923
H       -3.72245714       0.26390333      -0.03812979
H       -2.47599522       1.47236147      -0.27095253
H       -2.58443271       0.58692622       1.27017773
H       -1.99565880      -1.54229424       0.06879818
H        0.03960447      -0.98955419      -1.68601508
H       -0.37509509       0.75673873      -1.37190846
H        2.97591748      -0.71586415      -1.06025418
H        2.93905333      -1.06867698       0.72984629
H        2.35174724       1.68491682      -0.60070927
H        2.31076122       1.33350371       1.18901545
H       -0.52206056       0.18162220       1.36434171
H       -0.07691100      -1.54900711       0.98554521
19
Frame=2 idx=010398 GeodesicLength=0.10131133320009084 rxn_smarts="[C:1]([C:2]1([H:11])[C:3]([H:12])([H:13])[C:4]2([C:5]([H:14])([H:15])[C:6]2([H:16])[H:17])[C:7]1([H:18])[H:19])([H:8])([H:9])[H:10]>>[C:1]([C:2][H:11])([H:8])([H:9])[H:10].[C:3]1([H:12])([H:13])[C:4]2([C:5]([H:14])([H:15])[C:6]2([H:16])[H:17])[C:7]1([H:18])[H:19]"
C       -2.69165156       0.47805837       0.17792026
C       -1.93061193      -0.61283805      -0.50423718
C       -0.03067021      -0.16567207      -0.96994900
C        1.13394250      -0.05904577      -0.04368933
C        2.53959216      -0.50185818      -0.09601835
C        2.18374640       0.95175587       0.17639447
C       -0.05600993      -0.48791294       0.68633760
H       -3.73502066       0.22948189      -0.05968431
H       -2.50754949       1.46465904      -0.25655630
H       -2.62505267       0.55881670       1.27307468
H       -1.98829568      -1.55056829       0.05696274
H        0.04322174      -0.95931113      -1.69897685
H       -0.36830257       0.78233103      -1.36630705
H        2.96816430      -0.74013030      -1.06217996
H        2.92899638      -1.08641721       0.72908718
H        2.38109925       1.67118965      -0.60948271
H        2.33789983       1.32623121       1.18154268
H       -0.51000117       0.21887392       1.36722802
H       -0.07349669      -1.51764374       1.01853338
19
Frame=3 idx=010398 GeodesicLength=0.15127837930405524 rxn_smarts="[C:1]([C:2]1([H:11])[C:3]([H:12])([H:13])[C:4]2([C:5]([H:14])([H:15])[C:6]2([H:16])[H:17])[C:7]1([H:18])[H:19])([H:8])([H:9])[H:10]>>[C:1]([C:2][H:11])([H:8])([H:9])[H:10].[C:3]1([H:12])([H:13])[C:4]2([C:5]([H:14])([H:15])[C:6]2([H:16])[H:17])[C:7]1([H:18])[H:19]"
C       -2.71238227       0.46200915       0.17892669
C       -1.91979724      -0.60873754      -0.49522546
C       -0.02827731      -0.14495311      -0.97118737
C        1.13725368      -0.05220985      -0.04455811
C        2.53663204      -0.51611155      -0.09789151
C        2.20356238       0.94309524       0.17027534
C       -0.05649788      -0.46350060       0.69368077
H       -3.74614970       0.19509513      -0.08162982
H       -2.53876513       1.45628509      -0.24173919
H       -2.66507571       0.52944380       1.27553821
H       -1.98010981      -1.55860610       0.04458605
H        0.04652937      -0.92855065      -1.71181942
H       -0.36142197       0.80816413      -1.36061836
H        2.95946510      -0.76449567      -1.06400116
H        2.91817265      -1.10411816       0.72840909
H        2.41002396       1.65688994      -0.61836147
H        2.36480809       1.31852339       1.17391509
H       -0.49773223       0.25677049       1.36975149
H       -0.07023801      -1.48499314       1.05194914
19
Frame=4 idx=010398 GeodesicLength=0.2008530219573349 rxn_smarts="[C:1]([C:2]1([H:11])[C:3]([H:12])([H:13])[C:4]2([C:5]([H:14])([H:15])[C:6]2([H:16])[H:17])[C:7]1([H:18])[H:19])([H:8])([H:9])[H:10]>>[C:1]([C:2][H:11])([H:8])([H:9])[H:10].[C:3]1([H:12])([H:13])[C:4]2([C:5]([H:14])([H:15])[C:6]2([H:16])[H:17])[C:7]1([H:18])[H:19]"
C       -2.73260195       0.44543741       0.17995857
C       -1.90888602      -0.60440550      -0.48578471
C       -0.02599681      -0.12397946      -0.97238904
C        1.14031672      -0.04532342      -0.04538488
C        2.53303078      -0.53045578      -0.09971238
C        2.22307127       0.93405109       0.16409153
C       -0.05697638      -0.43859478       0.70124205
H       -3.75589386       0.16078652      -0.10394102
H       -2.56970741       1.44722907      -0.22651188
H       -2.70453790       0.49879500       1.27757161
H       -1.97113931      -1.56636123       0.03168752
H        0.04952021      -0.89731083      -1.72457365
H       -0.35445598       0.83421870      -1.35490304
H        2.94987903      -0.78894827      -1.06575136
H        2.90663258      -1.12176602       0.72783717
H        2.43857634       1.64200716      -0.62735267
H        2.39152517       1.31037514       1.16618446
H       -0.48525062       0.29528719       1.37196915
H       -0.06710585      -1.45104196       1.08576256
19
Frame=5 idx=010398 GeodesicLength=0.24999972399698792 rxn_smarts="[C:1]([C:2]1([H:11])[C:3]([H:12])([H:13])[C:4]2([C:5]([H:14])([H:15])[C:6]2([H:16])[H:17])[C:7]1([H:18])[H:19])([H:8])([H:9])[H:10]>>[C:1]([C:2][H:11])([H:8])([H:9])[H:10].[C:3]1([H:12])([H:13])[C:4]2([C:5]([H:14])([H:15])[C:6]2([H:16])[H:17])[C:7]1([H:18])[H:19]"
C       -2.75224852       0.42835006       0.18101111
C       -1.89785467      -0.59986672      -0.47588182
C       -0.02384050      -0.10277123      -0.97354063
C        1.14310170      -0.03838725      -0.04616636
C        2.52873914      -0.54487405      -0.10147543
C        2.24221141       0.92462620       0.15784031
C       -0.05743696      -0.41321063       0.70901861
H       -3.76418128       0.12666025      -0.12666638
H       -2.60026976       1.43748936      -0.21082954
H       -2.74340235       0.46684242       1.27913700
H       -1.96136474      -1.57379593       0.01829555
H        0.05218681      -0.86563929      -1.73718360
H       -0.34740151       0.86046876      -1.34916805
H        2.93934940      -0.81346256      -1.06741328
H        2.89433225      -1.13933958       0.72736953
H        2.46667863       1.62654792      -0.63645162
H        2.41798965       1.30178610       1.15833468
H       -0.47253165       0.33438022       1.37387823
H       -0.06405704      -1.41580405       1.11989170
19
Frame=6 idx=010398 GeodesicLength=0.2987580171531993 rxn_smarts="[C:1]([C:2]1([H:11])[C:3]([H:12])([H:13])[C:4]2([C:5]([H:14])([H:15])[C:6]2([H:16])[H:17])[C:7]1([H:18])[H:19])([H:8])([H:9])[H:10]>>[C:1]([C:2][H:11])([H:8])([H:9])[H:10].[C:3]1([H:12])([H:13])[C:4]2([C:5]([H:14])([H:15])[C:6]2([H:16])[H:17])[C:7]1([H:18])[H:19]"
C       -2.77130096       0.41075741       0.18207955
C       -1.88671504      -0.59514809      -0.46549074
C       -0.02182291      -0.08135566      -0.97464400
C        1.14559676      -0.03140192      -0.04689884
C        2.52374751      -0.55934351      -0.10317852
C        2.26095924       0.91482700       0.15152634
C       -0.05787330      -0.38736593       0.71701877
H       -3.77099991       0.09282155      -0.14984926
H       -2.63038194       1.42706396      -0.19465767
H       -2.78166855       0.43356808       1.28020787
H       -1.95081221      -1.58087247       0.00444015
H        0.05451727      -0.83359727      -1.74962012
H       -0.34025940       0.88687867      -1.34344385
H        2.92786401      -0.83800437      -1.06899018
H        2.88127398      -1.15681016       0.72701117
H        2.49429546       1.61052288      -0.64565609
H        2.44418349       1.29275953       1.15037498
H       -0.45955126       0.37400054       1.37550278
H       -0.06105224      -1.37930025       1.15426766
19
Frame=7 idx=010398 GeodesicLength=0.3471007063164892 rxn_smarts="[C:1]([C:2]1([H:11])[C:3]([H:12])([H:13])[C:4]2([C:5]([H:14])([H:15])[C:6]2([H:16])[H:17])[C:7]1([H:18])[H:19])([H:8])([H:9])[H:10]>>[C:1]([C:2][H:11])([H:8])([H:9])[H:10].[C:3]1([H:12])([H:13])[C:4]2([C:5]([H:14])([H:15])[C:6]2([H:16])[H:17])[C:7]1([H:18])[H:19]"
C       -2.78971216       0.39266919       0.18314936
C       -1.87543685      -0.59026009      -0.45461120
C       -0.01994533      -0.05972129      -0.97568518
C        1.14777164      -0.02435976      -0.04757225
C        2.51800191      -0.57386613      -0.10480833
C        2.27926209       0.90463875       0.14514708
C       -0.05828695      -0.36105474       0.72523730
H       -3.77625942       0.05929487      -0.17343076
H       -2.66005737       1.41593575      -0.17799787
H       -2.81927106       0.39897372       1.28070397
H       -1.93943997      -1.58754558      -0.00986994
H        0.05651678      -0.80119288      -1.76184354
H       -0.33302103       0.91346059      -1.33771374
H        2.91536251      -0.86257660      -1.07045456
H        2.86739735      -1.17418126       0.72676958
H        2.52137509       1.59390767      -0.65496546
H        2.47004989       1.28327451       1.14228752
H       -0.44629885       0.41412494       1.37683629
H       -0.05800827      -1.34152166       1.18882172
19
Frame=8 idx=010398 GeodesicLength=0.39512382687305847 rxn_smarts="[C:1]([C:2]1([H:11])[C:3]([H:12])([H:13])[C:4]2([C:5]([H:14])([H:15])[C:6]2([H:16])[H:17])[C:7]1([H:18])[H:19])([H:8])([H:9])[H:10]>>[C:1]([C:2][H:11])([H:8])([H:9])[H:10].[C:3]1([H:12])([H:13])[C:4]2([C:5]([H:14])([H:15])[C:6]2([H:16])[H:17])[C:7]1([H:18])[H:19]"
C       -2.80751277       0.37393851       0.18422782
C       -1.86396513      -0.58522717      -0.44319483
C       -0.01822949      -0.03773941      -0.97663288
C        1.14962019      -0.01718254      -0.04817589
C        2.51141764      -0.58851007      -0.10635119
C        2.29720172       0.89401641       0.13865501
C       -0.05867153      -0.33408876       0.73370709
H       -3.77993401       0.02604431      -0.19765155
H       -2.68932031       1.40401479      -0.16066288
H       -2.85634591       0.36270887       1.28061358
H       -1.92707590      -1.59379654      -0.02465196
H        0.05817685      -0.76827439      -1.77382770
H       -0.32572980       0.94034930      -1.33191234
H        2.90169578      -0.88734148      -1.07178078
H        2.85256722      -1.19152850       0.72666771
H        2.54805746       1.57658535      -0.66446356
H        2.49576057       1.27329652       1.13399898
H       -0.43276080       0.45497980       1.37782246
H       -0.05495177      -1.30224501       1.22361291
19
Frame=9 idx=010398 GeodesicLength=0.44291411271495 rxn_smarts="[C:1]([C:2]1([H:11])[C:3]([H:12])([H:13])[C:4]2([C:5]([H:14])([H:15])[C:6]2([H:16])[H:17])[C:7]1([H:18])[H:19])([H:8])([H:9])[H:10]>>[C:1]([C:2][H:11])([H:8])([H:9])[H:10].[C:3]1([H:12])([H:13])[C:4]2([C:5]([H:14])([H:15])[C:6]2([H:16])[H:17])[C:7]1([H:18])[H:19]"
C       -2.82469271       0.35458414       0.18531959
C       -1.85232944      -0.58006806      -0.43125701
C       -0.01667969      -0.01543579      -0.97751216
C        1.15113457      -0.00986892      -0.04870828
C        2.50399454      -0.60325045      -0.10778710
C        2.31476457       0.88296261       0.13205269
C       -0.05903475      -0.30648270       0.74243074
H       -3.78201422      -0.00683759      -0.22246563
H       -2.71816045       1.39129002      -0.14260381
H       -2.89285179       0.32475929       1.27989188
H       -1.91378632      -1.59958040      -0.03992223
H        0.05949040      -0.73491018      -1.78558091
H       -0.31836435       0.96751200      -1.32608928
H        2.88686960      -0.91227130      -1.07295555
H        2.83678336      -1.20880770       0.72675132
H        2.57433171       1.55854617      -0.67416523
H        2.52128551       1.26283387       1.12552463
H       -0.41892563       0.49651562       1.37849672
H       -0.05181491      -1.26149062       1.25857965
19
Frame=10 idx=010398 GeodesicLength=0.49045234163546164 rxn_smarts="[C:1]([C:2]1([H:11])[C:3]([H:12])([H:13])[C:4]2([C:5]([H:14])([H:15])[C:6]2([H:16])[H:17])[C:7]1([H:18])[H:19])([H:8])([H:9])[H:10]>>[C:1]([C:2][H:11])([H:8])([H:9])[H:10].[C:3]1([H:12])([H:13])[C:4]2([C:5]([H:14])([H:15])[C:6]2([H:16])[H:17])[C:7]1([H:18])[H:19]"
C       -2.84117700       0.33462687       0.18642254
C       -1.84051350      -0.57480664      -0.41876696
C       -0.01531138       0.00714871      -0.97832045
C        1.15228265      -0.00242284      -0.04916815
C        2.49568799      -0.61805563      -0.10909910
C        2.33187094       0.87148515       0.12533996
C       -0.05937253      -0.27826438       0.75139766
H       -3.78241112      -0.03918053      -0.24789804
H       -2.74646252       1.37776488      -0.12374478
H       -2.92871128       0.28508404       1.27846677
H       -1.89957317      -1.60485275      -0.05565898
H        0.06045393      -0.70118931      -1.79705358
H       -0.31092805       0.99489760      -1.32028064
H        2.87083617      -0.93732462      -1.07394912
H        2.82001214      -1.22596792       0.72703924
H        2.60009328       1.53979588      -0.68406750
H        2.54653093       1.25189654       1.11685399
H       -0.40476230       0.53866685       1.37885908
H       -0.04854520      -1.21930189       1.29362806
19
Frame=11 idx=010398 GeodesicLength=0.5377576989923538 rxn_smarts="[C:1]([C:2]1([H:11])[C:3]([H:12])([H:13])[C:4]2([C:5]([H:14])([H:15])[C:6]2([H:16])[H:17])[C:7]1([H:18])[H:19])([H:8])([H:9])[H:10]>>[C:1]([C:2][H:11])([H:8])([H:9])[H:10].[C:3]1([H:12])([H:13])[C:4]2([C:5]([H:14])([H:15])[C:6]2([H:16])[H:17])[C:7]1([H:18])[H:19]"
C       -2.85691445       0.31408359       0.18753477
C       -1.82851418      -0.56946903      -0.40570003
C       -0.01414050       0.02997722      -0.97905916
C        1.15304205       0.00515623      -0.04955257
C        2.48647019      -0.63289529      -0.11027114
C        2.34846698       0.85959226       0.11851786
C       -0.05968313      -0.24945416       0.76060429
H       -3.78106346      -0.07082836      -0.27396665
H       -2.77415015       1.36343234      -0.10401580
H       -2.96386161       0.24364755       1.27626609
H       -1.88445939      -1.60956774      -0.07185338
H        0.06105903      -0.66719723      -1.80820957
H       -0.30342383       1.02245847      -1.31452356
H        2.85356491      -0.96246410      -1.07473917
H        2.80223465      -1.24296306       0.72755344
H        2.62527049       1.52033756      -0.69417221
H        2.57143508       1.24049560       1.10798397
H       -0.39024537       0.58137696       1.37892138
H       -0.04508732      -1.17571881       1.32868144
19
Frame=12 idx=010398 GeodesicLength=0.584859163079588 rxn_smarts="[C:1]([C:2]1([H:11])[C:3]([H:12])([H:13])[C:4]2([C:5]([H:14])([H:15])[C:6]2([H:16])[H:17])[C:7]1([H:18])[H:19])([H:8])([H:9])[H:10]>>[C:1]([C:2][H:11])([H:8])([H:9])[H:10].[C:3]1([H:12])([H:13])[C:4]2([C:5]([H:14])([H:15])[C:6]2([H:16])[H:17])[C:7]1([H:18])[H:19]"
C       -2.87185151       0.29298213       0.18865536
C       -1.81633150      -0.56408859      -0.39203093
C       -0.01318302       0.05299623      -0.97973350
C        1.15339013       0.01286387      -0.04985950
C        2.47632042      -0.64773224      -0.11128869
C        2.36449031       0.84730206       0.11158919
C       -0.05996579      -0.22008635       0.77004768
H       -3.77790970      -0.10159148      -0.30069645
H       -2.80113070       1.34829858      -0.08333482
H       -2.99823768       0.20042202       1.27321295
H       -1.86848919      -1.61368563      -0.08849531
H        0.06129843      -0.63304721      -1.81901456
H       -0.29585335       1.05013075      -1.30886836
H        2.83503796      -0.98763964      -1.07530792
H        2.78344380      -1.25974090       0.72831567
H        2.64977846       1.50019117      -0.70447999
H        2.59592199       1.22865380       1.09891668
H       -0.37534857       0.62457527       1.37870399
H       -0.04138049      -1.13080384       1.36366851
19
Frame=13 idx=010398 GeodesicLength=0.6318508920007905 rxn_smarts="[C:1]([C:2]1([H:11])[C:3]([H:12])([H:13])[C:4]2([C:5]([H:14])([H:15])[C:6]2([H:16])[H:17])[C:7]1([H:18])[H:19])([H:8])([H:9])[H:10]>>[C:1]([C:2][H:11])([H:8])([H:9])[H:10].[C:3]1([H:12])([H:13])[C:4]2([C:5]([H:14])([H:15])[C:6]2([H:16])[H:17])[C:7]1([H:18])[H:19]"
C       -2.88596075       0.27132130       0.18977786
C       -1.80397748      -0.55871454      -0.37773536
C       -0.01245959       0.07618092      -0.98035538
C        1.15331658       0.02070923      -0.05008284
C        2.46521631      -0.66254154      -0.11213444
C        2.37993064       0.83463342       0.10455793
C       -0.06021711      -0.19016789       0.77973860
H       -3.77293048      -0.13133068      -0.32811020
H       -2.82734837       1.33233909      -0.06163343
H       -3.03179915       0.15536393       1.26923057
H       -1.85172220      -1.61718998      -0.10558433
H        0.06114680      -0.59881085      -1.82947142
H       -0.28821611       1.07789024      -1.30336019
H        2.81521636      -1.01282721      -1.07564522
H        2.76362067      -1.27626892       0.72936072
H        2.67360170       1.47937485      -0.71500297
H        2.61999839       1.21639450       1.08966512
H       -0.36003286       0.66823069       1.37822969
H       -0.03738334      -1.08458657       1.39855530
19
Frame=14 idx=010398 GeodesicLength=0.6786719989181993 rxn_smarts="[C:1]([C:2]1([H:11])[C:3]([H:12])([H:13])[C:4]2([C:5]([H:14])([H:15])[C:6]2([H:16])[H:17])[C:7]1([H:18])[H:19])([H:8])([H:9])[H:10]>>[C:1]([C:2][H:11])([H:8])([H:9])[H:10].[C:3]1([H:12])([H:13])[C:4]2([C:5]([H:14])([H:15])[C:6]2([H:16])[H:17])[C:7]1([H:18])[H:19]"
C       -2.89919346       0.24906043       0.19089597
C       -1.79136507      -0.55333334      -0.36278970
C       -0.01197871       0.09960766      -0.98087178
C        1.15278974       0.02872303      -0.05020382
C        2.45308040      -0.67735294      -0.11276337
C        2.39474159       0.82150709       0.09738577
C       -0.06044081      -0.15960793       0.78964876
H       -3.76597392      -0.16001633      -0.35612926
H       -2.85293352       1.31542829      -0.03880733
H       -3.06447707       0.10834360       1.26412968
H       -1.83398724      -1.61997062      -0.12318594
H        0.06062653      -0.56437590      -1.83952452
H       -0.28054693       1.10579842      -1.29789641
H        2.79399243      -1.03811093      -1.07564685
H        2.74267040      -1.29254330       0.73072136
H        2.69670284       1.45772280      -0.72577937
H        2.64362916       1.20364247       1.08012770
H       -0.34432401       0.71240380       1.37740594
H       -0.03301235      -1.03692630       1.43328317
19
Frame=15 idx=010398 GeodesicLength=0.7254150964846741 rxn_smarts="[C:1]([C:2]1([H:11])[C:3]([H:12])([H:13])[C:4]2([C:5]([H:14])([H:15])[C:6]2([H:16])[H:17])[C:7]1([H:18])[H:19])([H:8])([H:9])[H:10]>>[C:1]([C:2][H:11])([H:8])([H:9])[H:10].[C:3]1([H:12])([H:13])[C:4]2([C:5]([H:14])([H:15])[C:6]2([H:16])[H:17])[C:7]1([H:18])[H:19]"
C       -2.91150143       0.22616580       0.19200726
C       -1.77848059      -0.54802142      -0.34715643
C       -0.01176523       0.12323898      -0.98129320
C        1.15178680       0.03693220      -0.05022974
C        2.43986572      -0.69213900      -0.11318286
C        2.40888444       0.80793940       0.09008820
C       -0.06063664      -0.12837644       0.79979113
H       -3.75700327      -0.18742230      -0.38487216
H       -2.87773729       1.29752387      -0.01474409
H       -3.09619215       0.05927783       1.25784203
H       -1.81531256      -1.62200590      -0.14124452
H        0.05972530      -0.52985787      -1.84913641
H       -0.27286785       1.13380076      -1.29255267
H        2.77131461      -1.06344827      -1.07532974
H        2.72054997      -1.30853711       0.73239251
H        2.71903287       1.43526078      -0.73679132
H        2.66678311       1.19039958       1.07033443
H       -0.32819378       0.75711291       1.37625818
H       -0.02825203      -0.98784378       1.46781940
19
Frame=16 idx=010398 GeodesicLength=0.7722956057198206 rxn_smarts="[C:1]([C:2]1([H:11])[C:3]([H:12])([H:13])[C:4]2([C:5]([H:14])([H:15])[C:6]2([H:16])[H:17])[C:7]1([H:18])[H:19])([H:8])([H:9])[H:10]>>[C:1]([C:2][H:11])([H:8])([H:9])[H:10].[C:3]1([H:12])([H:13])[C:4]2([C:5]([H:14])([H:15])[C:6]2([H:16])[H:17])[C:7]1([H:18])[H:19]"
C       -2.92287551       0.20255314       0.19311617
C       -1.76530870      -0.54281841      -0.33083776
C       -0.01183507       0.14716664      -0.98164072
C        1.15030238       0.04539240      -0.05014217
C        2.42548934      -0.70693201      -0.11333370
C        2.42242660       0.79390386       0.08263465
C       -0.06081470      -0.09636643       0.81018596
H       -3.74596229      -0.21352869      -0.41432292
H       -2.90184669       1.27849492       0.01070291
H       -3.12691608       0.00793987       1.25024022
H       -1.79566699      -1.62327449      -0.15983750
H        0.05840800      -0.49515277      -1.85838791
H       -0.26516344       1.16201557      -1.28732929
H        2.74703147      -1.08894539      -1.07463291
H        2.69712678      -1.32426824       0.73448831
H        2.74071129       1.41189204      -0.74813365
H        2.68959033       1.17666266       1.06025364
H       -0.31161553       0.80246951       1.37476517
H       -0.02308120      -0.93720418       1.50221152
