11
Frame=0 idx=008695 GeodesicLength=0.0 rxn_smarts="[O:1]=[C:2]([c:3]1[c:4]([H:9])[n:5][c:6]([H:10])[n:7]1[H:11])[H:8]>>[O:1]=[C:2]([C@@:3]12[C:4]([H:9])=[N:5][C@:6]1([H:10])[N:7]2[H:11])[H:8]"
O       -1.75374799      -1.65475390       0.10192390
C       -1.54772965      -0.45153581       0.19101613
C       -0.38212054       0.18967802      -0.28336713
C        0.30225825       1.42549107      -0.03438405
N        1.58967190       1.20333551      -0.00872369
C        1.38552321      -0.18923385       0.05703735
N        0.69386836      -0.72465196      -0.94640168
H       -2.29013555       0.22880676       0.64928889
H       -0.14318421       2.40572243       0.10666221
H        1.73406245      -0.74532963       0.92916705
H        0.41153382      -1.68752861      -0.76221893
11
Frame=1 idx=008695 GeodesicLength=0.033318877894932084 rxn_smarts="[O:1]=[C:2]([c:3]1[c:4]([H:9])[n:5][c:6]([H:10])[n:7]1[H:11])[H:8]>>[O:1]=[C:2]([C@@:3]12[C:4]([H:9])=[N:5][C@:6]1([H:10])[N:7]2[H:11])[H:8]"
O       -1.76302486      -1.65267879       0.10223817
C       -1.54984950      -0.45241396       0.19998954
C       -0.37739711       0.18403229      -0.27145887
C        0.29964173       1.42646673      -0.03517858
N        1.58751197       1.20366724      -0.00294344
C        1.38905245      -0.18902716       0.06258950
N        0.68943909      -0.72086762      -0.94120343
H       -2.30045205       0.23396924       0.63516773
H       -0.14732598       2.40668586       0.09916371
H        1.75890902      -0.75252541       0.92001407
H        0.41349523      -1.68730843      -0.76837840
11
Frame=2 idx=008695 GeodesicLength=0.0666036057036278 rxn_smarts="[O:1]=[C:2]([c:3]1[c:4]([H:9])[n:5][c:6]([H:10])[n:7]1[H:11])[H:8]>>[O:1]=[C:2]([C@@:3]12[C:4]([H:9])=[N:5][C@:6]1([H:10])[N:7]2[H:11])[H:8]"
O       -1.77247749      -1.65040058       0.10245046
C       -1.55211048      -0.45320043       0.20903854
C       -0.37266644       0.17832791      -0.25925907
C        0.29694094       1.42734679      -0.03613306
N        1.58524904       1.20397102       0.00302271
C        1.39257459      -0.18885352       0.06836109
N        0.68501268      -0.71720708      -0.93570773
H       -2.31046868       0.23911725       0.62066175
H       -0.15157726       2.40746701       0.09174634
H        1.78411740      -0.75953272       0.91021377
H        0.41540569      -1.68703565      -0.77439479
11
Frame=3 idx=008695 GeodesicLength=0.09985335936327719 rxn_smarts="[O:1]=[C:2]([c:3]1[c:4]([H:9])[n:5][c:6]([H:10])[n:7]1[H:11])[H:8]>>[O:1]=[C:2]([C@@:3]12[C:4]([H:9])=[N:5][C@:6]1([H:10])[N:7]2[H:11])[H:8]"
O       -1.78201618      -1.64791305       0.10262190
C       -1.55457366      -0.45384856       0.21788332
C       -0.36792730       0.17256793      -0.24685451
C        0.29415503       1.42810087      -0.03728836
N        1.58284836       1.20422433       0.00923022
C        1.39603980      -0.18871106       0.07439631
N        0.68059610      -0.71367182      -0.92991192
H       -2.31997192       0.24421709       0.60601965
H       -0.15592784       2.40802078       0.08438557
H        1.80953042      -0.76629848       0.89980856
H        0.41724718      -1.68668803      -0.78029075
11
Frame=4 idx=008695 GeodesicLength=0.1330263219191601 rxn_smarts="[O:1]=[C:2]([c:3]1[c:4]([H:9])[n:5][c:6]([H:10])[n:7]1[H:11])[H:8]>>[O:1]=[C:2]([C@@:3]12[C:4]([H:9])=[N:5][C@:6]1([H:10])[N:7]2[H:11])[H:8]"
O       -1.79163261      -1.64523915       0.10273287
C       -1.55738011      -0.45428561       0.22603594
C       -0.36318996       0.16678897      -0.23451252
C        0.29127843       1.42876722      -0.03887930
N        1.58031871       1.20442624       0.01564392
C        1.39941702      -0.18862076       0.08076722
N        0.67631828      -0.71032450      -0.92384293
H       -2.32873755       0.24922722       0.59189785
H       -0.16040015       2.40837270       0.07720826
H        1.83489409      -0.77277816       0.88900464
H        0.41911385      -1.68633418      -0.78605596
11
Frame=5 idx=008695 GeodesicLength=0.16611814405526865 rxn_smarts="[O:1]=[C:2]([c:3]1[c:4]([H:9])[n:5][c:6]([H:10])[n:7]1[H:11])[H:8]>>[O:1]=[C:2]([C@@:3]12[C:4]([H:9])=[N:5][C@:6]1([H:10])[N:7]2[H:11])[H:8]"
O       -1.80131065      -1.64238423       0.10271179
C       -1.56054125      -0.45448992       0.23327834
C       -0.35845555       0.16099714      -0.22234433
C        0.28831704       1.42932645      -0.04097774
N        1.57763848       1.20456463       0.02225836
C        1.40266858      -0.18857905       0.08751484
N        0.67220964      -0.70718943      -0.91750315
H       -2.33666319       0.25414353       0.57864112
H       -0.16497328       2.40849650       0.07021361
H        1.86007952      -0.77890104       0.87788948
H        0.42103066      -1.68598458      -0.79168232
11
Frame=6 idx=008695 GeodesicLength=0.19911832271023186 rxn_smarts="[O:1]=[C:2]([c:3]1[c:4]([H:9])[n:5][c:6]([H:10])[n:7]1[H:11])[H:8]>>[O:1]=[C:2]([C@@:3]12[C:4]([H:9])=[N:5][C@:6]1([H:10])[N:7]2[H:11])[H:8]"
O       -1.81105175      -1.63936410       0.10251329
C       -1.56404845      -0.45445763       0.23951363
C       -0.35372990       0.15520043      -0.21042891
C        0.28527848       1.42976849      -0.04364289
N        1.57480574       1.20463662       0.02903289
C        1.40578709      -0.18858832       0.09465601
N        0.66830093      -0.70429020      -0.91090169
H       -2.34375165       0.25899213       0.56643413
H       -0.16963767       2.40838864       0.06345434
H        1.88501546      -0.78462461       0.86652768
H        0.42303171      -1.68566144      -0.79715848
11
Frame=7 idx=008695 GeodesicLength=0.23203865101444743 rxn_smarts="[O:1]=[C:2]([c:3]1[c:4]([H:9])[n:5][c:6]([H:10])[n:7]1[H:11])[H:8]>>[O:1]=[C:2]([C@@:3]12[C:4]([H:9])=[N:5][C@:6]1([H:10])[N:7]2[H:11])[H:8]"
O       -1.82088120      -1.63619067       0.10209727
C       -1.56784635      -0.45422538       0.24489429
C       -0.34901310       0.14939277      -0.19867016
C        0.28217138       1.43006967      -0.04672805
N        1.57182388       1.20463893       0.03599412
C        1.40879207      -0.18865607       0.10218848
N        0.66456868      -0.70160112      -0.90403505
H       -2.35016536       0.26380794       0.55515059
H       -0.17436950       2.40806975       0.05677981
H        1.90980317      -0.78995949       0.85483078
H        0.42511633      -1.68534632      -0.80250207
11
Frame=8 idx=008695 GeodesicLength=0.26488676384969967 rxn_smarts="[O:1]=[C:2]([c:3]1[c:4]([H:9])[n:5][c:6]([H:10])[n:7]1[H:11])[H:8]>>[O:1]=[C:2]([C@@:3]12[C:4]([H:9])=[N:5][C@:6]1([H:10])[N:7]2[H:11])[H:8]"
O       -1.83080561      -1.63289775       0.10151527
C       -1.57189704      -0.45383045       0.24959896
C       -0.34430824       0.14356879      -0.18695078
C        0.27901089       1.43021887      -0.05006570
N        1.56871252       1.20457739       0.04318282
C        1.41171578      -0.18879365       0.11010004
N        0.66098143      -0.69909275      -0.89690221
H       -2.35609568       0.26862599       0.54453201
H       -0.17914256       2.40758014       0.05006635
H        1.93456100      -0.79493296       0.84267205
H        0.42726751      -1.68502362      -0.80774881
11
Frame=9 idx=008695 GeodesicLength=0.2976920656800997 rxn_smarts="[O:1]=[C:2]([c:3]1[c:4]([H:9])[n:5][c:6]([H:10])[n:7]1[H:11])[H:8]>>[O:1]=[C:2]([C@@:3]12[C:4]([H:9])=[N:5][C@:6]1([H:10])[N:7]2[H:11])[H:8]"
O       -1.84080232      -1.62946457       0.10080195
C       -1.57613997      -0.45328601       0.25376544
C       -0.33961438       0.13771584      -0.17517023
C        0.27579405       1.43016573      -0.05353497
N        1.56545485       1.20442427       0.05063182
C        1.41456439      -0.18900760       0.11839020
N        0.65748930      -0.69673072      -0.88948503
H       -2.36164117       0.27347598       0.53433973
H       -0.18394370       2.40688459       0.04323435
H        1.95938387      -0.79953586       0.82992736
H        0.42945509      -1.68464166      -0.81290063
11
Frame=10 idx=008695 GeodesicLength=0.330413046620405 rxn_smarts="[O:1]=[C:2]([c:3]1[c:4]([H:9])[n:5][c:6]([H:10])[n:7]1[H:11])[H:8]>>[O:1]=[C:2]([C@@:3]12[C:4]([H:9])=[N:5][C@:6]1([H:10])[N:7]2[H:11])[H:8]"
O       -1.85082283      -1.62590223       0.09999965
C       -1.58057110      -0.45255845       0.25720424
C       -0.33494146       0.13185600      -0.16354719
C        0.27253959       1.42992727      -0.05732906
N        1.56205986       1.20417355       0.05814673
C        1.41730925      -0.18930037       0.12705090
N        0.65414732      -0.69458967      -0.88181578
H       -2.36673588       0.27838078       0.52476307
H       -0.18876092       2.40593713       0.03665771
H        1.98404208      -0.80365297       0.81677544
H        0.43173409      -1.68427102      -0.81790571
11
Frame=11 idx=008695 GeodesicLength=0.363057142133673 rxn_smarts="[O:1]=[C:2]([c:3]1[c:4]([H:9])[n:5][c:6]([H:10])[n:7]1[H:11])[H:8]>>[O:1]=[C:2]([C@@:3]12[C:4]([H:9])=[N:5][C@:6]1([H:10])[N:7]2[H:11])[H:8]"
O       -1.86093208      -1.62222978       0.09904007
C       -1.58517298      -0.45168168       0.26003979
C       -0.33029175       0.12597943      -0.15200386
C        0.26925997       1.42949714      -0.06133311
N        1.55855158       1.20383972       0.06576592
C        1.41997395      -0.18967521       0.13609446
N        0.65094771      -0.69266603      -0.87388561
H       -2.37147812       0.28334346       0.51573619
H       -0.19357020       2.40478648       0.03019270
H        2.00861092      -0.80727353       0.80313239
H        0.43410099      -1.68392000      -0.82277893
11
Frame=12 idx=008695 GeodesicLength=0.39563644921778385 rxn_smarts="[O:1]=[C:2]([c:3]1[c:4]([H:9])[n:5][c:6]([H:10])[n:7]1[H:11])[H:8]>>[O:1]=[C:2]([C@@:3]12[C:4]([H:9])=[N:5][C@:6]1([H:10])[N:7]2[H:11])[H:8]"
O       -1.87108925      -1.61845253       0.09799754
C       -1.58990989      -0.45066930       0.26237852
C       -0.32566927       0.12008524      -0.14046406
C        0.26596134       1.42885374      -0.06540810
N        1.55493050       1.20339945       0.07354112
C        1.42256512      -0.19015027       0.14552267
N        0.64785948      -0.69091664      -0.86569387
H       -2.37595116       0.28836823       0.50707323
H       -0.19835234       2.40343589       0.02371237
H        2.03311960      -0.81041432       0.78890385
H        0.43653586      -1.68353949      -0.82756328
11
Frame=13 idx=008695 GeodesicLength=0.4281591248270313 rxn_smarts="[O:1]=[C:2]([c:3]1[c:4]([H:9])[n:5][c:6]([H:10])[n:7]1[H:11])[H:8]>>[O:1]=[C:2]([C@@:3]12[C:4]([H:9])=[N:5][C@:6]1([H:10])[N:7]2[H:11])[H:8]"
O       -1.88128615      -1.61458008       0.09690470
C       -1.59476315      -0.44953102       0.26428326
C       -0.32107650       0.11416935      -0.12888103
C        0.26265181       1.42798552      -0.06946074
N        1.55120453       1.20284083       0.08150188
C        1.42508996      -0.19074002       0.15534203
N        0.64486588      -0.68932758      -0.85723676
H       -2.38021151       0.29345992       0.49866464
H       -0.20308884       2.40189428       0.01714331
H        2.05758506      -0.81305846       0.77401694
H        0.43902890      -1.68311274      -0.83227822
11
Frame=14 idx=008695 GeodesicLength=0.46063449154927183 rxn_smarts="[O:1]=[C:2]([c:3]1[c:4]([H:9])[n:5][c:6]([H:10])[n:7]1[H:11])[H:8]>>[O:1]=[C:2]([C@@:3]12[C:4]([H:9])=[N:5][C@:6]1([H:10])[N:7]2[H:11])[H:8]"
O       -1.89152604      -1.61061341       0.09576211
C       -1.59971360      -0.44827798       0.26581189
C       -0.31651515       0.10822486      -0.11721759
C        0.25933877       1.42688185      -0.07342078
N        1.54738119       1.20215340       0.08966671
C        1.42755588      -0.19145615       0.16556112
N        0.64195615      -0.68789144      -0.84850607
H       -2.38429255       0.29861959       0.49044044
H       -0.20776346       2.40016444       0.01042393
H        2.08200306      -0.81517806       0.75841174
H        0.44157575      -1.68262710      -0.83693350
11
Frame=15 idx=008695 GeodesicLength=0.4930718608817227 rxn_smarts="[O:1]=[C:2]([c:3]1[c:4]([H:9])[n:5][c:6]([H:10])[n:7]1[H:11])[H:8]>>[O:1]=[C:2]([C@@:3]12[C:4]([H:9])=[N:5][C@:6]1([H:10])[N:7]2[H:11])[H:8]"
O       -1.90180713      -1.60655509       0.09457800
C       -1.60474486      -0.44691805       0.26700687
C       -0.31198639       0.10224555      -0.10544963
C        0.25603042       1.42553389      -0.07723266
N        1.54346820       1.20132492       0.09805747
C        1.42996944      -0.19231271       0.17618784
N        0.63912399      -0.68660297      -0.83949800
H       -2.38821701       0.30384770       0.48235050
H       -0.21236064       2.39824717       0.00350210
H        2.10634957      -0.81673978       0.74204116
H        0.44417441      -1.68207063      -0.84154364
11
Frame=16 idx=008695 GeodesicLength=0.5254816419693029 rxn_smarts="[O:1]=[C:2]([c:3]1[c:4]([H:9])[n:5][c:6]([H:10])[n:7]1[H:11])[H:8]>>[O:1]=[C:2]([C@@:3]12[C:4]([H:9])=[N:5][C@:6]1([H:10])[N:7]2[H:11])[H:8]"
O       -1.91211951      -1.60241087       0.09338305
C       -1.60983880      -0.44545954       0.26792149
C       -0.30748885       0.09622331      -0.09354181
C        0.25273620       1.42393325      -0.08083908
N        1.53947568       1.20034374       0.10669362
C        1.43234347      -0.19332367       0.18722042
N        0.63635779      -0.68545565      -0.83020991
H       -2.39201176       0.30914683       0.47430250
H       -0.21686401       2.39614075      -0.00365812
H        2.13059181      -0.81770946       0.72485386
H        0.44681798      -1.68142869      -0.84612602
