16
Frame=0 idx=004678 GeodesicLength=0.0 rxn_smarts="[C:1]([C:2]([C:3]([H:10])([H:11])[H:12])([O:4][H:13])[C:5]([O:6][H:16])([H:14])[H:15])([H:7])([H:8])[H:9]>>[C:1]([C:2]1([C:3]([H:10])([H:11])[H:12])[O:4][C:5]1([H:14])[H:15])([H:7])([H:8])[H:9].[O:6]([H:13])[H:16]"
C       -1.47556305      -1.04083129      -0.33124472
C       -0.36347295      -0.07402754       0.06144236
C       -0.80949630       1.37856036      -0.05941374
O        0.16981646      -0.38527128       1.30646020
C        0.91400013      -0.35774342      -0.60626590
O        2.39857519       0.36057454       0.75142417
H       -1.12865918      -2.07154716      -0.24876843
H       -2.29818564      -0.90630179       0.37419836
H       -1.84737841      -0.86183868      -1.34328914
H       -1.14161261       1.61444087      -1.07420106
H       -1.63681515       1.55484450       0.62865032
H        0.00548435       2.05222136       0.21006685
H        1.53990297       0.14763309       1.28907858
H        1.20828817      -1.39785967      -0.66178824
H        1.45432584       0.34580456      -1.22445500
H        3.01079025      -0.35865840       0.92810539
16
Frame=1 idx=004678 GeodesicLength=0.07314938378126383 rxn_smarts="[C:1]([C:2]([C:3]([H:10])([H:11])[H:12])([O:4][H:13])[C:5]([O:6][H:16])([H:14])[H:15])([H:7])([H:8])[H:9]>>[C:1]([C:2]1([C:3]([H:10])([H:11])[H:12])[O:4][C:5]1([H:14])[H:15])([H:7])([H:8])[H:9].[O:6]([H:13])[H:16]"
C       -1.47993545      -1.03971806      -0.33525365
C       -0.36567065      -0.07780064       0.05822320
C       -0.80237680       1.37727981      -0.05478353
O        0.17448112      -0.39854143       1.29992053
C        0.91726971      -0.36919628      -0.59735038
O        2.39061848       0.37624686       0.74827126
H       -1.13766269      -2.07207294      -0.25420755
H       -2.30368669      -0.90309013       0.36842241
H       -1.84787979      -0.85727336      -1.34801622
H       -1.13353335       1.61853769      -1.06853477
H       -1.62830291       1.55521830       0.63461843
H        0.01678682       2.04531291       0.21576249
H        1.52653904       0.15031628       1.30478234
H        1.20323669      -1.41153638      -0.66113670
H        1.44348766       0.32814852      -1.23508744
H        3.02662881      -0.32183113       0.92436958
16
Frame=2 idx=004678 GeodesicLength=0.14630110457806533 rxn_smarts="[C:1]([C:2]([C:3]([H:10])([H:11])[H:12])([O:4][H:13])[C:5]([O:6][H:16])([H:14])[H:15])([H:7])([H:8])[H:9]>>[C:1]([C:2]1([C:3]([H:10])([H:11])[H:12])[O:4][C:5]1([H:14])[H:15])([H:7])([H:8])[H:9].[O:6]([H:13])[H:16]"
C       -1.48407865      -1.03855886      -0.33915739
C       -0.36768359      -0.08144700       0.05502961
C       -0.79523605       1.37598858      -0.05020945
O        0.17913359      -0.41153963       1.29344710
C        0.92062139      -0.38043376      -0.58844862
O        2.38264799       0.39137397       0.74507514
H       -1.14636772      -2.07249808      -0.25945227
H       -2.30897208      -0.89981886       0.36271889
H       -1.84812731      -0.85281572      -1.35264827
H       -1.12542004       1.62254576      -1.06291780
H       -1.61979550       1.55553922       0.64050115
H        0.02798327       2.03849322       0.22135755
H        1.51291751       0.15258570       1.32066827
H        1.19797002      -1.42493537      -0.66091473
H        1.43264135       0.31032654      -1.24530685
H        3.04176583      -0.28480570       0.92025765
16
Frame=3 idx=004678 GeodesicLength=0.21945648808714346 rxn_smarts="[C:1]([C:2]([C:3]([H:10])([H:11])[H:12])([O:4][H:13])[C:5]([O:6][H:16])([H:14])[H:15])([H:7])([H:8])[H:9]>>[C:1]([C:2]1([C:3]([H:10])([H:11])[H:12])[O:4][C:5]1([H:14])[H:15])([H:7])([H:8])[H:9].[O:6]([H:13])[H:16]"
C       -1.48800235      -1.03735502      -0.34296013
C       -0.36951482      -0.08497501       0.05185946
C       -0.78807027       1.37468493      -0.04569021
O        0.18377280      -0.42428073       1.28704077
C        0.92405302      -0.39146883      -0.57956608
O        2.37468841       0.40596748       0.74182727
H       -1.15478961      -2.07282764      -0.26451158
H       -2.31404919      -0.89648787       0.35708567
H       -1.84813423      -0.84846039      -1.35718817
H       -1.11726496       1.62646824      -1.05735005
H       -1.61128977       1.55580839       0.64629890
H        0.03908230       2.03175633       0.22686110
H        1.49901882       0.15445747       1.33674238
H        1.19249615      -1.43805303      -0.66109867
H        1.42178938       0.29234368      -1.25511699
H        3.05621434      -0.24757800       0.91576633
16
Frame=4 idx=004678 GeodesicLength=0.292616234855511 rxn_smarts="[C:1]([C:2]([C:3]([H:10])([H:11])[H:12])([O:4][H:13])[C:5]([O:6][H:16])([H:14])[H:15])([H:7])([H:8])[H:9]>>[C:1]([C:2]1([C:3]([H:10])([H:11])[H:12])[O:4][C:5]1([H:14])[H:15])([H:7])([H:8])[H:9].[O:6]([H:13])[H:16]"
C       -1.49171525      -1.03610784      -0.34666585
C       -0.37116760      -0.08839198       0.04871106
C       -0.78087648       1.37336759      -0.04122495
O        0.18839707      -0.43677800       1.28070277
C        0.92756256      -0.40231300      -0.57070692
O        2.36676465       0.42003653       0.73852083
H       -1.16294194      -2.07306612      -0.26939335
H       -2.31892502      -0.89309716       0.35152015
H       -1.84791211      -0.84420290      -1.36163894
H       -1.10906060       1.63030785      -1.05183214
H       -1.60278410       1.55602719       0.65201081
H        0.05009134       2.02509665       0.23228215
H        1.48482059       0.15594643       1.35301294
H        1.18682510      -1.45088459      -0.66166195
H        1.41093498       0.27420724      -1.26451905
H        3.06998683      -0.21014790       0.91088244
16
Frame=5 idx=004678 GeodesicLength=0.3657811436326704 rxn_smarts="[C:1]([C:2]([C:3]([H:10])([H:11])[H:12])([O:4][H:13])[C:5]([O:6][H:16])([H:14])[H:15])([H:7])([H:8])[H:9]>>[C:1]([C:2]1([C:3]([H:10])([H:11])[H:12])[O:4][C:5]1([H:14])[H:15])([H:7])([H:8])[H:9].[O:6]([H:13])[H:16]"
C       -1.49522609      -1.03481824      -0.35027896
C       -0.37264536      -0.09170507       0.04558283
C       -0.77365136       1.37203523      -0.03681219
O        0.19300480      -0.44904513       1.27443386
C        0.93114757      -0.41297801      -0.56187528
O        2.35890031       0.43358994       0.73514696
H       -1.17083835      -2.07321750      -0.27410633
H       -2.32360662      -0.88964654       0.34601931
H       -1.84747220      -0.84003789      -1.36600393
H       -1.10079903       1.63406773      -1.04636387
H       -1.59427631       1.55619689       0.65763686
H        0.06101823       2.01850805       0.23763040
H        1.47029809       0.15706491       1.36948885
H        1.18096842      -1.46342643      -0.66257486
H        1.40008179       0.25592298      -1.27351494
H        3.08309613      -0.17251091       0.90559128
16
Frame=6 idx=004678 GeodesicLength=0.4389517005564891 rxn_smarts="[C:1]([C:2]([C:3]([H:10])([H:11])[H:12])([O:4][H:13])[C:5]([O:6][H:16])([H:14])[H:15])([H:7])([H:8])[H:9]>>[C:1]([C:2]1([C:3]([H:10])([H:11])[H:12])[O:4][C:5]1([H:14])[H:15])([H:7])([H:8])[H:9].[O:6]([H:13])[H:16]"
C       -1.49854299      -1.03348693      -0.35380400
C       -0.37395169      -0.09492086       0.04247346
C       -0.76639184       1.37068674      -0.03245025
O        0.19759420      -0.46109517       1.26823472
C        0.93480543      -0.42347492      -0.55307477
O        2.35111882       0.44663490       0.73169655
H       -1.17849150      -2.07328525      -0.27865913
H       -2.32810081      -0.88613576       0.34057959
H       -1.84682471      -0.83596003      -1.37028675
H       -1.09247246       1.63775103      -1.04094476
H       -1.58576461       1.55631876       0.66317711
H        0.07187045       2.01198429       0.24291584
H        1.45542379       0.15782378       1.38618027
H        1.17493948      -1.47567521      -0.66380492
H        1.38923407       0.23749719      -1.28210588
H        3.09555438      -0.13466255       0.89987293
16
Frame=7 idx=004678 GeodesicLength=0.5121279116488356 rxn_smarts="[C:1]([C:2]([C:3]([H:10])([H:11])[H:12])([O:4][H:13])[C:5]([O:6][H:16])([H:14])[H:15])([H:7])([H:8])[H:9]>>[C:1]([C:2]1([C:3]([H:10])([H:11])[H:12])[O:4][C:5]1([H:14])[H:15])([H:7])([H:8])[H:9].[O:6]([H:13])[H:16]"
C       -1.50167363      -1.03211450      -0.35724540
C       -0.37509025      -0.09804522       0.03938158
C       -0.75909520       1.36932142      -0.02813738
O        0.20216378      -0.47294046       1.26210554
C        0.93853334      -0.43381376      -0.54430914
O        2.34344411       0.45917631       0.72815945
H       -1.18591292      -2.07327250      -0.28306044
H       -2.33241382      -0.88256501       0.33519782
H       -1.84597957      -0.83196398      -1.37449080
H       -1.08407381       1.64136116      -1.03557414
H       -1.57724756       1.55639421       0.66863181
H        0.08265522       2.00551919       0.24814837
H        1.44016749       0.15823298       1.40309808
H        1.16875336      -1.48762802      -0.66531823
H        1.37839699       0.21893708      -1.29029303
H        3.10737245      -0.09659889       0.89370590
16
Frame=8 idx=004678 GeodesicLength=0.5853099491756206 rxn_smarts="[C:1]([C:2]([C:3]([H:10])([H:11])[H:12])([O:4][H:13])[C:5]([O:6][H:16])([H:14])[H:15])([H:7])([H:8])[H:9]>>[C:1]([C:2]1([C:3]([H:10])([H:11])[H:12])[O:4][C:5]1([H:14])[H:15])([H:7])([H:8])[H:9].[O:6]([H:13])[H:16]"
C       -1.50462614      -1.03070221      -0.36060799
C       -0.37606507      -0.10108347       0.03630609
C       -0.75175956       1.36793984      -0.02387159
O        0.20671223      -0.48459293       1.25604651
C        0.94232908      -0.44400401      -0.53558152
O        2.33590235       0.47121767       0.72452589
H       -1.19311391      -2.07318348      -0.28731917
H       -2.33655327      -0.87893531       0.32987003
H       -1.84494705      -0.82804505      -1.37862000
H       -1.07559713       1.64490284      -1.03025102
H       -1.56872517       1.55642586       0.67400133
H        0.09337962       1.99910789       0.25333824
H        1.42449656       0.15830211       1.42025463
H        1.16242756      -1.49928378      -0.66707886
H        1.36757721       0.20025100      -1.29807677
H        3.11856270      -0.05831698       0.88706421
16
Frame=9 idx=004678 GeodesicLength=0.6584938352759103 rxn_smarts="[C:1]([C:2]([C:3]([H:10])([H:11])[H:12])([O:4][H:13])[C:5]([O:6][H:16])([H:14])[H:15])([H:7])([H:8])[H:9]>>[C:1]([C:2]1([C:3]([H:10])([H:11])[H:12])[O:4][C:5]1([H:14])[H:15])([H:7])([H:8])[H:9].[O:6]([H:13])[H:16]"
C       -1.50740479      -1.02924789      -0.36389684
C       -0.37687957      -0.10404013       0.03324725
C       -0.74437968       1.36653974      -0.01965022
O        0.21123519      -0.49606310       1.25005971
C        0.94618811      -0.45405506      -0.52689218
O        2.32850853       0.48276856       0.72078916
H       -1.20010316      -2.07301659      -0.29144386
H       -2.34052190      -0.87524429       0.32459094
H       -1.84373082      -0.82419578      -1.38267907
H       -1.06702983       1.64837748      -1.02497445
H       -1.56019423       1.55641350       0.67928432
H        0.10405117       1.99274040       0.25849865
H        1.40837555       0.15802350       1.43766710
H        1.15597839      -1.51063953      -0.66904253
H        1.35678080       0.18144244      -1.30545676
H        3.12912624      -0.01980326       0.87989879
16
Frame=10 idx=004678 GeodesicLength=0.7316695392340951 rxn_smarts="[C:1]([C:2]([C:3]([H:10])([H:11])[H:12])([O:4][H:13])[C:5]([O:6][H:16])([H:14])[H:15])([H:7])([H:8])[H:9]>>[C:1]([C:2]1([C:3]([H:10])([H:11])[H:12])[O:4][C:5]1([H:14])[H:15])([H:7])([H:8])[H:9].[O:6]([H:13])[H:16]"
C       -1.51000949      -1.02775698      -0.36710652
C       -0.37753753      -0.10690964       0.03019954
C       -0.73696917       1.36512795      -0.01548021
O        0.21573886      -0.50734388       1.24413823
C        0.95010802      -0.46395202      -0.51825574
O        2.32132287       0.49378724       0.71693192
H       -1.20686904      -2.07277534      -0.29543281
H       -2.34431292      -0.87150754       0.31937722
H       -1.84234605      -0.82042290      -1.38665792
H       -1.05839101       1.65178597      -1.01975141
H       -1.55167169       1.55636005       0.68447258
H        0.11466238       1.98641929       0.26362423
H        1.39175963       0.15744737       1.45533624
H        1.14942976      -1.52167273      -0.67119829
H        1.34602071       0.16256242      -1.31242826
H        3.13906468       0.01885073       0.87223119
16
Frame=11 idx=004678 GeodesicLength=0.8048349765405175 rxn_smarts="[C:1]([C:2]([C:3]([H:10])([H:11])[H:12])([O:4][H:13])[C:5]([O:6][H:16])([H:14])[H:15])([H:7])([H:8])[H:9]>>[C:1]([C:2]1([C:3]([H:10])([H:11])[H:12])[O:4][C:5]1([H:14])[H:15])([H:7])([H:8])[H:9].[O:6]([H:13])[H:16]"
C       -1.51244867      -1.02622948      -0.37024439
C       -0.37804363      -0.10969704       0.02716392
C       -0.72952324       1.36370591      -0.01135745
O        0.22021945      -0.51844846       1.23828473
C        0.95408601      -0.47370684      -0.50967022
O        2.31436417       0.50428859       0.71294991
H       -1.21342410      -2.07246333      -0.29929720
H       -2.34793559      -0.86772399       0.31422030
H       -1.84080075      -0.81671949      -1.39056426
H       -1.04966845       1.65513505      -1.01458000
H       -1.54315703       1.55627017       0.68956500
H        0.12522294       1.98013817       0.26873167
H        1.37460913       0.15655914       1.47328448
H        1.14280307      -1.53238968      -0.67349690
H        1.33530592       0.14361313      -1.31899122
H        3.14839077       0.05766815       0.86400162
16
Frame=12 idx=004678 GeodesicLength=0.87798967611101 rxn_smarts="[C:1]([C:2]([C:3]([H:10])([H:11])[H:12])([O:4][H:13])[C:5]([O:6][H:16])([H:14])[H:15])([H:7])([H:8])[H:9]>>[C:1]([C:2]1([C:3]([H:10])([H:11])[H:12])[O:4][C:5]1([H:14])[H:15])([H:7])([H:8])[H:9].[O:6]([H:13])[H:16]"
C       -1.51472810      -1.02466394      -0.37331578
C       -0.37840145      -0.11240713       0.02414050
C       -0.72203636       1.36227264      -0.00727761
O        0.22467483      -0.52938918       1.23249890
C        0.95811828      -0.48332890      -0.50113690
O        2.30765200       0.51427797       0.70883011
H       -1.21977796      -2.07208063      -0.30304738
H       -2.35139471      -0.86389265       0.30911570
H       -1.83910086      -0.81307659      -1.39440223
H       -1.04085032       1.65842891      -1.00945656
H       -1.53464652       1.55614500       0.69456357
H        0.13574303       1.97388673       0.27383479
H        1.35687515       0.15535450       1.49152985
H        1.13611910      -1.54279633      -0.67589615
H        1.32464370       0.12459993      -1.32514854
H        3.15711019       0.09666967       0.85516774
16
Frame=13 idx=004678 GeodesicLength=0.9511335464915011 rxn_smarts="[C:1]([C:2]([C:3]([H:10])([H:11])[H:12])([O:4][H:13])[C:5]([O:6][H:16])([H:14])[H:15])([H:7])([H:8])[H:9]>>[C:1]([C:2]1([C:3]([H:10])([H:11])[H:12])[O:4][C:5]1([H:14])[H:15])([H:7])([H:8])[H:9].[O:6]([H:13])[H:16]"
C       -1.51685374      -1.02305902      -0.37632633
C       -0.37861426      -0.11504430       0.02112957
C       -0.71450256       1.36082827      -0.00323576
O        0.22910400      -0.54017818       1.22678057
C        0.96220159      -0.49282790      -0.49265685
O        2.30120703       0.52376168       0.70455823
H       -1.22594007      -2.07162803      -0.30669418
H       -2.35469552      -0.86001248       0.30405876
H       -1.83725292      -0.80948516      -1.39817641
H       -1.03192456       1.66167328      -1.00437688
H       -1.52613643       1.55598707       0.69947067
H        0.14623372       1.96765547       0.27894879
H        1.33850718       0.15382356       1.51009169
H        1.12939946      -1.55290210      -0.67835347
H        1.31404231       0.10552656      -1.33090432
H        3.16522478       0.13588129       0.84568594
16
Frame=14 idx=004678 GeodesicLength=1.0242691175325793 rxn_smarts="[C:1]([C:2]([C:3]([H:10])([H:11])[H:12])([O:4][H:13])[C:5]([O:6][H:16])([H:14])[H:15])([H:7])([H:8])[H:9]>>[C:1]([C:2]1([C:3]([H:10])([H:11])[H:12])[O:4][C:5]1([H:14])[H:15])([H:7])([H:8])[H:9].[O:6]([H:13])[H:16]"
C       -1.51883250      -1.02141393      -0.37928286
C       -0.37868580      -0.11761337       0.01813316
C       -0.70691574       1.35937393       0.00077386
O        0.23350371      -0.55082929       1.22113184
C        0.96633486      -0.50221432      -0.48422665
O        2.29505134       0.53274351       0.70012699
H       -1.23192153      -2.07110802      -0.31024826
H       -2.35784748      -0.85608237       0.29904069
H       -1.83526105      -0.80593578      -1.40189347
H       -1.02287639       1.66487592      -0.99933627
H       -1.51762545       1.55579993       0.70428747
H        0.15670669       1.96143578       0.28409120
H        1.31944560       0.15195483       1.52899460
H        1.12266756      -1.56271991      -0.68082232
H        1.30351242       0.08639818      -1.33625784
H        3.17274375       0.17533491       0.83548788
16
Frame=15 idx=004678 GeodesicLength=1.097409716305215 rxn_smarts="[C:1]([C:2]([C:3]([H:10])([H:11])[H:12])([O:4][H:13])[C:5]([O:6][H:16])([H:14])[H:15])([H:7])([H:8])[H:9]>>[C:1]([C:2]1([C:3]([H:10])([H:11])[H:12])[O:4][C:5]1([H:14])[H:15])([H:7])([H:8])[H:9].[O:6]([H:13])[H:16]"
C       -1.52069670      -1.01974497      -0.38219454
C       -0.37862450      -0.12012164       0.01514981
C       -0.69928012       1.35793472       0.00475791
O        0.23787880      -0.56137006       1.21554991
C        0.97053554      -0.51150771      -0.47584812
O        2.28924797       0.54123175       0.69551984
H       -1.23775504      -2.07055944      -0.31372171
H       -2.36090018      -0.85211363       0.29405024
H       -1.83315852      -0.80243251      -1.40556297
H       -1.01371296       1.66807632      -0.99432679
H       -1.50913247       1.55561295       0.70902196
H        0.16718034       1.95525170       0.28927753
H        1.29964615       0.14973717       1.54825952
H        1.11596387      -1.57229276      -0.68327123
H        1.29308968       0.06722212      -1.34121417
H        3.17971815       0.21507598       0.82455283
16
Frame=16 idx=004678 GeodesicLength=1.1705009025894009 rxn_smarts="[C:1]([C:2]([C:3]([H:10])([H:11])[H:12])([O:4][H:13])[C:5]([O:6][H:16])([H:14])[H:15])([H:7])([H:8])[H:9]>>[C:1]([C:2]1([C:3]([H:10])([H:11])[H:12])[O:4][C:5]1([H:14])[H:15])([H:7])([H:8])[H:9].[O:6]([H:13])[H:16]"
C       -1.52234841      -1.01798951      -0.38505013
C       -0.37840504      -0.12255586       0.01218394
C       -0.69154665       1.35642976       0.00872257
O        0.24222866      -0.57174417       1.21003610
C        0.97473587      -0.52067596      -0.46752545
O        2.28368747       0.54923434       0.69069816
H       -1.24335672      -2.06985022      -0.31710235
H       -2.36369555      -0.84804861       0.28910250
H       -1.83083691      -0.79893987      -1.40917263
H       -1.00437314       1.67116314      -0.98934117
H       -1.50055480       1.55533818       0.71368029
H        0.17765161       1.94898057       0.29451848
H        1.27900317       0.14714776       1.56789641
H        1.10923416      -1.58153000      -0.68565579
H        1.28268753       0.04798516      -1.34579054
H        3.18588876       0.25505530       0.81279961
