13
Frame=0 idx=001199 GeodesicLength=0.0 rxn_smarts="[C:1]([C:2](=[O:3])[N:4]1[C:5]([H:10])([H:11])[C:6]1([H:12])[H:13])([H:7])([H:8])[H:9]>>[C:1]([C:2](=[O:3])[N+:4]([C-:5]([H:10])[H:11])=[C:6]([H:12])[H:13])([H:7])([H:8])[H:9]"
C        1.84886366      -0.04364141      -0.23970666
C        0.67888372       0.74119024       0.27113311
O        0.74958895       1.77786773       0.87066441
N       -0.58846301       0.15981111       0.03104202
C       -0.89735260      -1.06793223      -0.48403012
C       -1.75058515       0.61666014       0.53591179
H        2.71365099       0.61239152      -0.29269218
H        2.06249131      -0.86766259       0.44246340
H        1.63542055      -0.47786594      -1.21756924
H       -1.37868153      -1.78332692       0.16090748
H       -0.67094682      -1.31010007      -1.51651834
H       -1.80162135       0.97123520       1.55939603
H       -2.60124872       0.67137325      -0.12100174
13
Frame=1 idx=001199 GeodesicLength=0.03875992299799167 rxn_smarts="[C:1]([C:2](=[O:3])[N:4]1[C:5]([H:10])([H:11])[C:6]1([H:12])[H:13])([H:7])([H:8])[H:9]>>[C:1]([C:2](=[O:3])[N+:4]([C-:5]([H:10])[H:11])=[C:6]([H:12])[H:13])([H:7])([H:8])[H:9]"
C        1.85216387      -0.03931178      -0.24680779
C        0.68222807       0.73689730       0.27689607
O        0.74943755       1.77640803       0.87147846
N       -0.57940178       0.13229987       0.07681998
C       -0.91088440      -1.07202758      -0.47356001
C       -1.75332984       0.60342470       0.53824038
H        2.71133510       0.62354717      -0.30835295
H        2.08247985      -0.86082517       0.43300937
H        1.63256133      -0.47430040      -1.22273552
H       -1.41240580      -1.79590212       0.14642754
H       -0.65469195      -1.30494777      -1.50064136
H       -1.81810220       0.98062543       1.55244842
H       -2.58138981       0.69411233      -0.14322260
13
Frame=2 idx=001199 GeodesicLength=0.0778591119586392 rxn_smarts="[C:1]([C:2](=[O:3])[N:4]1[C:5]([H:10])([H:11])[C:6]1([H:12])[H:13])([H:7])([H:8])[H:9]>>[C:1]([C:2](=[O:3])[N+:4]([C-:5]([H:10])[H:11])=[C:6]([H:12])[H:13])([H:7])([H:8])[H:9]"
C        1.85483424      -0.03403927      -0.25512553
C        0.68486221       0.73035361       0.28541894
O        0.74891684       1.77274037       0.87501040
N       -0.56962970       0.10089337       0.12866964
C       -0.92318047      -1.07723051      -0.46011507
C       -1.75510325       0.59071828       0.53872898
H        2.70705599       0.63705627      -0.32583996
H        2.10455006      -0.85378476       0.41994738
H        1.62771530      -0.46806789      -1.22956101
H       -1.44901166      -1.80794360       0.13152194
H       -0.63888962      -1.30092667      -1.48126616
H       -1.83720608       0.99074615       1.54258864
H       -2.55491386       0.71948465      -0.16997820
13
Frame=3 idx=001199 GeodesicLength=0.11673114287141258 rxn_smarts="[C:1]([C:2](=[O:3])[N:4]1[C:5]([H:10])([H:11])[C:6]1([H:12])[H:13])([H:7])([H:8])[H:9]>>[C:1]([C:2](=[O:3])[N+:4]([C-:5]([H:10])[H:11])=[C:6]([H:12])[H:13])([H:7])([H:8])[H:9]"
C        1.85620488      -0.02863556      -0.26363897
C        0.68619635       0.72305533       0.29428532
O        0.74786234       1.76817318       0.87895091
N       -0.56033059       0.06954283       0.18104383
C       -0.93426587      -1.08176374      -0.44536583
C       -1.75553893       0.57887980       0.53753153
H        2.70143488       0.65053195      -0.34233118
H        2.12468690      -0.84756089       0.40528552
H        1.62173778      -0.46011381      -1.23720031
H       -1.48347526      -1.81814146       0.11773601
H       -0.62395617      -1.29771047      -1.46008207
H       -1.85631894       0.99864584       1.53126233
H       -2.52423737       0.74509699      -0.19747708
13
Frame=4 idx=001199 GeodesicLength=0.15514070950087058 rxn_smarts="[C:1]([C:2](=[O:3])[N:4]1[C:5]([H:10])([H:11])[C:6]1([H:12])[H:13])([H:7])([H:8])[H:9]>>[C:1]([C:2](=[O:3])[N+:4]([C-:5]([H:10])[H:11])=[C:6]([H:12])[H:13])([H:7])([H:8])[H:9]"
C        1.85630846      -0.02356516      -0.27176018
C        0.68647416       0.71606215       0.30196844
O        0.74684798       1.76297761       0.88316046
N       -0.55214618       0.04181137       0.22799670
C       -0.94452757      -1.08450618      -0.43087272
C       -1.75478877       0.56863592       0.53456078
H        2.69543380       0.66243946      -0.35597766
H        2.14077138      -0.84251175       0.39040979
H        1.61557685      -0.45110830      -1.24528281
H       -1.51304257      -1.82568037       0.10646247
H       -0.60959958      -1.29643135      -1.43794743
H       -1.87381266       1.00267077       1.51977062
H       -2.49349530       0.76920582      -0.22248846
13
Frame=5 idx=001199 GeodesicLength=0.19297779854116331 rxn_smarts="[C:1]([C:2](=[O:3])[N:4]1[C:5]([H:10])([H:11])[C:6]1([H:12])[H:13])([H:7])([H:8])[H:9]>>[C:1]([C:2](=[O:3])[N+:4]([C-:5]([H:10])[H:11])=[C:6]([H:12])[H:13])([H:7])([H:8])[H:9]"
C        1.85571411      -0.01896671      -0.27941619
C        0.68608060       0.70982071       0.30840544
O        0.74605204       1.75787426       0.88737831
N       -0.54524503       0.01818543       0.26911285
C       -0.95433261      -1.08567133      -0.41720415
C       -1.75352615       0.55981155       0.53042341
H        2.68998316       0.67261746      -0.36684250
H        2.15316704      -0.83898738       0.37569041
H        1.60987295      -0.44144752      -1.25363951
H       -1.53797859      -1.83131629       0.09768371
H       -0.59574737      -1.29684132      -1.41572362
H       -1.88982993       1.00355488       1.50873454
H       -2.46421022       0.79136625      -0.24460268
13
Frame=6 idx=001199 GeodesicLength=0.2306673817760769 rxn_smarts="[C:1]([C:2](=[O:3])[N:4]1[C:5]([H:10])([H:11])[C:6]1([H:12])[H:13])([H:7])([H:8])[H:9]>>[C:1]([C:2](=[O:3])[N+:4]([C-:5]([H:10])[H:11])=[C:6]([H:12])[H:13])([H:7])([H:8])[H:9]"
C        1.85453500      -0.01446619      -0.28704984
C        0.68544086       0.70369080       0.31485291
O        0.74581713       1.75200435       0.89317998
N       -0.53926914      -0.00241237       0.30596680
C       -0.96359536      -1.08603070      -0.40362335
C       -1.75180238       0.55233644       0.52485220
H        2.68474772       0.68190337      -0.37585548
H        2.16316525      -0.83678674       0.35997088
H        1.60393164      -0.43024520      -1.26272461
H       -1.55998018      -1.83546663       0.09126503
H       -0.58206205      -1.29933052      -1.39263647
H       -1.90519608       1.00283406       1.49723451
H       -2.43573242       0.81196933      -0.26543255
13
Frame=7 idx=001199 GeodesicLength=0.2683782723718455 rxn_smarts="[C:1]([C:2](=[O:3])[N:4]1[C:5]([H:10])([H:11])[C:6]1([H:12])[H:13])([H:7])([H:8])[H:9]>>[C:1]([C:2](=[O:3])[N+:4]([C-:5]([H:10])[H:11])=[C:6]([H:12])[H:13])([H:7])([H:8])[H:9]"
C        1.85282373      -0.00989944      -0.29481084
C        0.68475468       0.69742918       0.32177794
O        0.74623633       1.74515829       0.90093447
N       -0.53405735      -0.02070033       0.33961543
C       -0.97233132      -1.08596064      -0.38989215
C       -1.74961565       0.54601893       0.51793246
H        2.67955043       0.69068217      -0.38354803
H        2.17140569      -0.83566217       0.34293732
H        1.59743701      -0.41728810      -1.27257692
H       -1.57999547      -1.83846978       0.08677882
H       -0.56833910      -1.30387501      -1.36842679
H       -1.92021794       1.00128434       1.48488735
H       -2.40765103       0.83128257      -0.28560906
13
Frame=8 idx=001199 GeodesicLength=0.30620043909987565 rxn_smarts="[C:1]([C:2](=[O:3])[N:4]1[C:5]([H:10])([H:11])[C:6]1([H:12])[H:13])([H:7])([H:8])[H:9]>>[C:1]([C:2](=[O:3])[N+:4]([C-:5]([H:10])[H:11])=[C:6]([H:12])[H:13])([H:7])([H:8])[H:9]"
C        1.85061757      -0.00519924      -0.30273607
C        0.68411443       0.69095301       0.32940088
O        0.74729188       1.73739272       0.91057615
N       -0.52949580      -0.03718533       0.37093073
C       -0.98055731      -1.08570300      -0.37593060
C       -1.74700121       0.54058723       0.50984987
H        2.67431204       0.69915233      -0.39026671
H        2.17827701      -0.83545219       0.32451176
H        1.59021255      -0.40259521      -1.28307486
H       -1.59860337      -1.84057329       0.08386698
H       -0.55457520      -1.31013914      -1.34311846
H       -1.93499603       0.99938779       1.47156409
H       -2.37959657       0.84937434      -0.30557375
13
Frame=9 idx=001199 GeodesicLength=0.3440856093378516 rxn_smarts="[C:1]([C:2](=[O:3])[N:4]1[C:5]([H:10])([H:11])[C:6]1([H:12])[H:13])([H:7])([H:8])[H:9]>>[C:1]([C:2](=[O:3])[N+:4]([C-:5]([H:10])[H:11])=[C:6]([H:12])[H:13])([H:7])([H:8])[H:9]"
C        1.84802593      -0.00043278      -0.31068443
C        0.68354789       0.68435072       0.33746851
O        0.74883757       1.72912096       0.92132064
N       -0.52550745      -0.05219415       0.40025050
C       -0.98839127      -1.08522472      -0.36203372
C       -1.74399329       0.53580676       0.50101298
H        2.66909371       0.70728505      -0.39618220
H        2.18398024      -0.83583508       0.30524413
H        1.58244679      -0.38673921      -1.29386406
H       -1.61609666      -1.84198045       0.08185599
H       -0.54077844      -1.31770906      -1.31700978
H       -1.94941159       0.99721163       1.45756688
H       -2.35175342       0.86634033      -0.32494545
13
Frame=10 idx=001199 GeodesicLength=0.3820338865533422 rxn_smarts="[C:1]([C:2](=[O:3])[N:4]1[C:5]([H:10])([H:11])[C:6]1([H:12])[H:13])([H:7])([H:8])[H:9]>>[C:1]([C:2](=[O:3])[N+:4]([C-:5]([H:10])[H:11])=[C:6]([H:12])[H:13])([H:7])([H:8])[H:9]"
C        1.84511099       0.00433823      -0.31855025
C        0.68304125       0.67770104       0.34577202
O        0.75073870       1.72061812       0.93258533
N       -0.52202575      -0.06595277       0.42788003
C       -0.99589014      -1.08449223      -0.34838923
C       -1.74062240       0.53146863       0.49171322
H        2.66391545       0.71504302      -0.40143349
H        2.18864747      -0.83660761       0.28555028
H        1.57427323      -0.37015636      -1.30466636
H       -1.63261229      -1.84280899       0.08032229
H       -0.52702873      -1.32612746      -1.29036352
H       -1.96333590       0.99478076       1.44312082
H       -2.32421190       0.88219560      -0.34354114
13
Frame=11 idx=001199 GeodesicLength=0.42002142344809157 rxn_smarts="[C:1]([C:2](=[O:3])[N:4]1[C:5]([H:10])([H:11])[C:6]1([H:12])[H:13])([H:7])([H:8])[H:9]>>[C:1]([C:2](=[O:3])[N+:4]([C-:5]([H:10])[H:11])=[C:6]([H:12])[H:13])([H:7])([H:8])[H:9]"
C        1.84193883       0.00906294      -0.32625884
C        0.68258621       0.67106842       0.35412847
O        0.75289029       1.71209362       0.94393479
N       -0.51898482      -0.07863363       0.45401875
C       -1.00309697      -1.08347014      -0.33514230
C       -1.73692450       0.52744090       0.48217307
H        2.65881008       0.72239411      -0.40612031
H        2.19239220      -0.83761261       0.26575648
H        1.56583065      -0.35320344      -1.31528827
H       -1.64824255      -1.84315061       0.07894568
H       -0.51338784      -1.33507514      -1.26337162
H       -1.97670376       0.99208813       1.42842252
H       -2.29710783       0.89699745      -0.36119843
13
Frame=12 idx=001199 GeodesicLength=0.45811240366939665 rxn_smarts="[C:1]([C:2](=[O:3])[N:4]1[C:5]([H:10])([H:11])[C:6]1([H:12])[H:13])([H:7])([H:8])[H:9]>>[C:1]([C:2](=[O:3])[N+:4]([C-:5]([H:10])[H:11])=[C:6]([H:12])[H:13])([H:7])([H:8])[H:9]"
C        1.83847793       0.01381860      -0.33389524
C        0.68222576       0.66432303       0.36276484
O        0.75532439       1.70337344       0.95565054
N       -0.51635075      -0.09044800       0.47902934
C       -1.00998235      -1.08230323      -0.32211827
C       -1.73287414       0.52368825       0.47232516
H        2.65365932       0.72949963      -0.41042524
H        2.19538632      -0.83880001       0.24561545
H        1.55692869      -0.33570222      -1.32578720
H       -1.66323729      -1.84304751       0.07771467
H       -0.49980790      -1.34459037      -1.23584681
H       -1.98963305       0.98933304       1.41326381
H       -2.27011693       0.91085533      -0.37829105
13
Frame=13 idx=001199 GeodesicLength=0.49627171532670683 rxn_smarts="[C:1]([C:2](=[O:3])[N:4]1[C:5]([H:10])([H:11])[C:6]1([H:12])[H:13])([H:7])([H:8])[H:9]>>[C:1]([C:2](=[O:3])[N+:4]([C-:5]([H:10])[H:11])=[C:6]([H:12])[H:13])([H:7])([H:8])[H:9]"
C        1.83478761       0.01854835      -0.34138614
C        0.68194076       0.65754548       0.37146985
O        0.75794868       1.69464701       0.96734159
N       -0.51407329      -0.10148459       0.50296514
C       -1.01658063      -1.08092464      -0.30946488
C       -1.72851084       0.52012193       0.46235665
H        2.64851392       0.73629756      -0.41437491
H        2.19767878      -0.84006274       0.22543357
H        1.54772417      -0.31797412      -1.33600447
H       -1.67759091      -1.84254622       0.07638577
H       -0.48635269      -1.35442909      -1.20796251
H       -2.00204055       0.98645425       1.39784893
H       -2.24344501       0.92380683      -0.39460860
13
Frame=14 idx=001199 GeodesicLength=0.5345333689779584 rxn_smarts="[C:1]([C:2](=[O:3])[N:4]1[C:5]([H:10])([H:11])[C:6]1([H:12])[H:13])([H:7])([H:8])[H:9]>>[C:1]([C:2](=[O:3])[N+:4]([C-:5]([H:10])[H:11])=[C:6]([H:12])[H:13])([H:7])([H:8])[H:9]"
C        1.83084114       0.02331412      -0.34880163
C        0.68176718       0.65063984       0.38042755
O        0.76080343       1.68577266       0.97927204
N       -0.51213971      -0.11187243       0.52607973
C       -1.02287144      -1.07945522      -0.29703895
C       -1.72382342       0.51672711       0.45219594
H        2.64329318       0.74291442      -0.41810285
H        2.19937577      -0.84138139       0.20499145
H        1.53806707      -0.29986244      -1.34599708
H       -1.69146473      -1.84169719       0.07499245
H       -0.47299158      -1.36463715      -1.17957341
H       -2.01402780       0.98360508       1.38200651
H       -2.21682911       0.93593257      -0.41045176
13
Frame=15 idx=001199 GeodesicLength=0.5728624071496106 rxn_smarts="[C:1]([C:2](=[O:3])[N:4]1[C:5]([H:10])([H:11])[C:6]1([H:12])[H:13])([H:7])([H:8])[H:9]>>[C:1]([C:2](=[O:3])[N+:4]([C-:5]([H:10])[H:11])=[C:6]([H:12])[H:13])([H:7])([H:8])[H:9]"
C        1.82668732       0.02806599      -0.35608619
C        0.68168212       0.64368623       0.38945681
O        0.76382441       1.67689584       0.99115825
N       -0.51051579      -0.12165385       0.54839811
C       -1.02887569      -1.07784350      -0.28494511
C       -1.71884993       0.51344162       0.44197886
H        2.63805094       0.74929012      -0.42161699
H        2.20049467      -0.84269101       0.18453356
H        1.52809624      -0.28162466      -1.35565719
H       -1.70480825      -1.84054465       0.07338900
H       -0.45980492      -1.37499589      -1.15084906
H       -2.02553716       0.98072309       1.36590434
H       -2.19044394       0.94725067      -0.42566440
13
Frame=16 idx=001199 GeodesicLength=0.6112208221920585 rxn_smarts="[C:1]([C:2](=[O:3])[N:4]1[C:5]([H:10])([H:11])[C:6]1([H:12])[H:13])([H:7])([H:8])[H:9]>>[C:1]([C:2](=[O:3])[N+:4]([C-:5]([H:10])[H:11])=[C:6]([H:12])[H:13])([H:7])([H:8])[H:9]"
C        1.82238876       0.03272692      -0.36316511
C        0.68163866       0.63680839       0.39830758
O        0.76692418       1.66820972       1.00263180
N       -0.50915833      -0.13084063       0.56990599
C       -1.03460687      -1.07602008      -0.27330232
C       -1.71365266       0.51019164       0.43186713
H        2.63287230       0.75531693      -0.42489102
H        2.20102380      -0.84395084       0.16438534
H        1.51802104      -0.26357782      -1.36487595
H       -1.71749970      -1.83915001       0.07145929
H       -0.44692130      -1.38518511      -1.12205801
H       -2.03649926       0.97769482       1.34977716
H       -2.16453061       0.95777608      -0.44004187
