12
Frame=0 idx=002668 GeodesicLength=0.0 rxn_smarts="[C:1](/[N:2]=[C:3](\[N:4]([H:10])[H:11])[C:5](=[O:6])[H:12])([H:7])([H:8])[H:9]>>[C-:5]#[O+:6].[C:1]([N+:2]#[C-:3])([H:7])([H:8])[H:9].[N:4]([H:10])([H:11])[H:12]"
C        1.69947629       0.20176073       0.74499705
N        0.37735872       0.77356771       0.78838893
C       -0.61809962       0.32612304       0.19829390
N       -0.59963628      -0.89448908      -0.75826860
C       -2.17634473       0.85237442      -0.41436030
O       -2.74107536       1.74863630       0.09486946
H        1.79791199      -0.67598710       0.09260923
H        2.40607079       0.96728839       0.42012502
H        1.98661643      -0.08902331       1.75689801
H       -0.62818046      -1.78838491      -0.28365766
H        0.10606183      -0.90324089      -1.48463051
H       -1.61015955      -0.51862530      -1.15526458
12
Frame=1 idx=002668 GeodesicLength=0.11474148127448348 rxn_smarts="[C:1](/[N:2]=[C:3](\[N:4]([H:10])[H:11])[C:5](=[O:6])[H:12])([H:7])([H:8])[H:9]>>[C-:5]#[O+:6].[C:1]([N+:2]#[C-:3])([H:7])([H:8])[H:9].[N:4]([H:10])([H:11])[H:12]"
C        1.71208241       0.20599577       0.74365921
N        0.39816823       0.79642160       0.76772247
C       -0.61262128       0.33896453       0.21642634
N       -0.59751756      -0.90019637      -0.75680142
C       -2.17080315       0.87527412      -0.43233430
O       -2.79382813       1.70194347       0.12266721
H        1.80621745      -0.67364452       0.09326217
H        2.43261060       0.96071587       0.42465702
H        1.98208096      -0.08882015       1.75950195
H       -0.67207619      -1.79288896      -0.28466045
H        0.12007956      -0.94392572      -1.46983661
H       -1.60439289      -0.47983964      -1.18426359
12
Frame=2 idx=002668 GeodesicLength=0.22847820261923926 rxn_smarts="[C:1](/[N:2]=[C:3](\[N:4]([H:10])[H:11])[C:5](=[O:6])[H:12])([H:7])([H:8])[H:9]>>[C-:5]#[O+:6].[C:1]([N+:2]#[C-:3])([H:7])([H:8])[H:9].[N:4]([H:10])([H:11])[H:12]"
C        1.72459986       0.21044892       0.74180560
N        0.41817103       0.81632454       0.74950879
C       -0.60731253       0.35094239       0.23759295
N       -0.59582926      -0.90607237      -0.75420244
C       -2.16659847       0.89586433      -0.44443425
O       -2.84274748       1.65520490       0.14161227
H        1.81503827      -0.66931041       0.09138835
H        2.45704179       0.95622464       0.42952055
H        1.97916801      -0.08985969       1.76027670
H       -0.71787377      -1.79633683      -0.28726722
H        0.13233987      -0.98493468      -1.45304035
H       -1.59599732      -0.43849575      -1.21276096
12
Frame=3 idx=002668 GeodesicLength=0.34084532287194047 rxn_smarts="[C:1](/[N:2]=[C:3](\[N:4]([H:10])[H:11])[C:5](=[O:6])[H:12])([H:7])([H:8])[H:9]>>[C-:5]#[O+:6].[C:1]([N+:2]#[C-:3])([H:7])([H:8])[H:9].[N:4]([H:10])([H:11])[H:12]"
C        1.73701627       0.21509240       0.73935998
N        0.43739647       0.83362010       0.73356187
C       -0.60205288       0.36239899       0.26130100
N       -0.59462796      -0.91218925      -0.75031276
C       -2.16284741       0.91492732      -0.45270982
O       -2.88881585       1.60751797       0.15359275
H        1.82421352      -0.66306396       0.08706127
H        2.47964587       0.95365846       0.43464390
H        1.97766134      -0.09223060       1.75912510
H       -0.76579532      -1.79835446      -0.29117333
H        0.14277462      -1.02666434      -1.43390103
H       -1.58456868      -0.39471264      -1.24054893
12
Frame=4 idx=002668 GeodesicLength=0.45458881354355496 rxn_smarts="[C:1](/[N:2]=[C:3](\[N:4]([H:10])[H:11])[C:5](=[O:6])[H:12])([H:7])([H:8])[H:9]>>[C-:5]#[O+:6].[C:1]([N+:2]#[C-:3])([H:7])([H:8])[H:9].[N:4]([H:10])([H:11])[H:12]"
C        1.74990401       0.21997803       0.73644765
N        0.45583596       0.84875810       0.72043565
C       -0.59702947       0.37369416       0.28757486
N       -0.59410281      -0.91906794      -0.74510498
C       -2.15997813       0.93319551      -0.45849979
O       -2.93356088       1.55971219       0.15897308
H        1.83454126      -0.65450838       0.07924851
H        2.50102948       0.95344546       0.44089403
H        1.97833068      -0.09690383       1.75624568
H       -0.81551037      -1.79916951      -0.29599308
H        0.15111343      -1.07003180      -1.41266795
H       -1.57057318      -0.34910199      -1.26755366
12
Frame=5 idx=002668 GeodesicLength=0.5676452203737652 rxn_smarts="[C:1](/[N:2]=[C:3](\[N:4]([H:10])[H:11])[C:5](=[O:6])[H:12])([H:7])([H:8])[H:9]>>[C-:5]#[O+:6].[C:1]([N+:2]#[C-:3])([H:7])([H:8])[H:9].[N:4]([H:10])([H:11])[H:12]"
C        1.76233243       0.22498928       0.73282268
N        0.47314571       0.86191503       0.71000337
C       -0.59198156       0.38534437       0.31564583
N       -0.59386236      -0.92645999      -0.73847142
C       -2.15710855       0.95078563      -0.46255380
O       -2.97543270       1.51096408       0.15889402
H        1.84487021      -0.64371520       0.06824628
H        2.52028821       0.95526061       0.44760178
H        1.98004675      -0.10402034       1.75129313
H       -0.86609723      -1.79848885      -0.30145232
H        0.15740744      -1.11455058      -1.38911554
H       -1.55360834      -0.30202403      -1.29291400
12
Frame=6 idx=002668 GeodesicLength=0.68116936503098 rxn_smarts="[C:1](/[N:2]=[C:3](\[N:4]([H:10])[H:11])[C:5](=[O:6])[H:12])([H:7])([H:8])[H:9]>>[C-:5]#[O+:6].[C:1]([N+:2]#[C-:3])([H:7])([H:8])[H:9].[N:4]([H:10])([H:11])[H:12]"
C        1.77480560       0.23027066       0.72851569
N        0.48905047       0.87279727       0.70325813
C       -0.58748437       0.39655988       0.34633781
N       -0.59405907      -0.93497676      -0.73017591
C       -2.15483688       0.96706092      -0.46510961
O       -3.01483062       1.46434414       0.15181036
H        1.85603205      -0.62951853       0.05266201
H        2.53782089       0.95984198       0.45591004
H        1.98367515      -0.11469626       1.74375739
H       -0.91691349      -1.79684617      -0.30758181
H        0.16153122      -1.15990278      -1.36355583
H       -1.53479095      -0.25493436      -1.31582827
12
Frame=7 idx=002668 GeodesicLength=0.7943303424052626 rxn_smarts="[C:1](/[N:2]=[C:3](\[N:4]([H:10])[H:11])[C:5](=[O:6])[H:12])([H:7])([H:8])[H:9]>>[C-:5]#[O+:6].[C:1]([N+:2]#[C-:3])([H:7])([H:8])[H:9].[N:4]([H:10])([H:11])[H:12]"
C        1.78701606       0.23580720       0.72334484
N        0.50371997       0.88188606       0.69983055
C       -0.58331818       0.40776966       0.37925851
N       -0.59465437      -0.94451755      -0.72000342
C       -2.15251458       0.98228573      -0.46676034
O       -3.05161283       1.41888641       0.13837196
H        1.86742680      -0.61144895       0.03219971
H        2.55371270       0.96684146       0.46613999
H        1.98839479      -0.12947398       1.73309518
H       -0.96771865      -1.79396176      -0.31387508
H        0.16353291      -1.20609391      -1.33553826
H       -1.51398462      -0.20798036      -1.33606364
12
Frame=8 idx=002668 GeodesicLength=0.9079266864364223 rxn_smarts="[C:1](/[N:2]=[C:3](\[N:4]([H:10])[H:11])[C:5](=[O:6])[H:12])([H:7])([H:8])[H:9]>>[C-:5]#[O+:6].[C:1]([N+:2]#[C-:3])([H:7])([H:8])[H:9].[N:4]([H:10])([H:11])[H:12]"
C        1.79893084       0.24154671       0.71732536
N        0.51716144       0.88962504       0.69957660
C       -0.57956197       0.41925322       0.41428786
N       -0.59548243      -0.95519194      -0.70803337
C       -2.15039911       0.99659676      -0.46782568
O       -3.08607782       1.37491560       0.11922358
H        1.87877385      -0.58949984       0.00705441
H        2.56822917       0.97575870       0.47822997
H        1.99403663      -0.14835882       1.71927330
H       -1.01789751      -1.79005145      -0.32023789
H        0.16381134      -1.25310505      -1.30516176
H       -1.49152443      -0.16148892      -1.35371239
12
Frame=9 idx=002668 GeodesicLength=1.0211365173473819 rxn_smarts="[C:1](/[N:2]=[C:3](\[N:4]([H:10])[H:11])[C:5](=[O:6])[H:12])([H:7])([H:8])[H:9]>>[C-:5]#[O+:6].[C:1]([N+:2]#[C-:3])([H:7])([H:8])[H:9].[N:4]([H:10])([H:11])[H:12]"
C        1.81018506       0.24726126       0.71067774
N        0.52964299       0.89654842       0.70154404
C       -0.57594968       0.43134384       0.45089509
N       -0.59638507      -0.96646957      -0.69494887
C       -2.14828353       1.01002413      -0.46807184
O       -3.11783018       1.33053363       0.09601223
H        1.88884734      -0.56567906      -0.02000409
H        2.58137232       0.98503406       0.49025431
H        2.00030058      -0.16889710       1.70311844
H       -1.06723978      -1.78466423      -0.32780296
H        0.16265923      -1.30021891      -1.27269747
H       -1.46731927      -0.11481647      -1.36897663
12
Frame=10 idx=002668 GeodesicLength=1.1345431506399546 rxn_smarts="[C:1](/[N:2]=[C:3](\[N:4]([H:10])[H:11])[C:5](=[O:6])[H:12])([H:7])([H:8])[H:9]>>[C-:5]#[O+:6].[C:1]([N+:2]#[C-:3])([H:7])([H:8])[H:9].[N:4]([H:10])([H:11])[H:12]"
C        1.82086340       0.25309445       0.70323614
N        0.54108547       0.90267005       0.70608061
C       -0.57266192       0.44399856       0.48916722
N       -0.59730606      -0.97883007      -0.68034500
C       -2.14647442       1.02225799      -0.46792394
O       -3.14689105       1.28780835       0.06828467
H        1.89793073      -0.53823222      -0.05065464
H        2.59345662       0.99509951       0.50379485
H        2.00680053      -0.19280570       1.68365789
H       -1.11494418      -1.77842446      -0.33566270
H        0.16034982      -1.34758923      -1.23795948
H       -1.44220895      -0.06904724      -1.38167562
12
Frame=11 idx=002668 GeodesicLength=1.247938096148125 rxn_smarts="[C:1](/[N:2]=[C:3](\[N:4]([H:10])[H:11])[C:5](=[O:6])[H:12])([H:7])([H:8])[H:9]>>[C-:5]#[O+:6].[C:1]([N+:2]#[C-:3])([H:7])([H:8])[H:9].[N:4]([H:10])([H:11])[H:12]"
C        1.83075622       0.25900288       0.69499610
N        0.55157933       0.90823907       0.71289350
C       -0.56961714       0.45739870       0.52892385
N       -0.59813377      -0.99219260      -0.66436260
C       -2.14483757       1.03329957      -0.46741241
O       -3.17305630       1.24640195       0.03673773
H        1.90542457      -0.50739753      -0.08417905
H        2.60451040       1.00532849       0.51847919
H        2.01316818      -0.21955269       1.66074857
H       -1.16071684      -1.77139925      -0.34403628
H        0.15720744      -1.39508481      -1.20078985
H       -1.41628451      -0.02404378      -1.39199875
12
Frame=12 idx=002668 GeodesicLength=1.3613838713844149 rxn_smarts="[C:1](/[N:2]=[C:3](\[N:4]([H:10])[H:11])[C:5](=[O:6])[H:12])([H:7])([H:8])[H:9]>>[C-:5]#[O+:6].[C:1]([N+:2]#[C-:3])([H:7])([H:8])[H:9].[N:4]([H:10])([H:11])[H:12]"
C        1.83979196       0.26485353       0.68612537
N        0.56133493       0.91354376       0.72139299
C       -0.56669108       0.47174592       0.56988485
N       -0.59874897      -1.00634029      -0.64746728
C       -2.14354747       1.04315967      -0.46642459
O       -3.19643391       1.20566865       0.00242753
H        1.91083312      -0.47430792      -0.11902875
H        2.61480608       1.01484225       0.53333350
H        2.01918940      -0.24779263       1.63498849
H       -1.20427744      -1.76355719      -0.35350747
H        0.15357137      -1.44241841      -1.16141648
H       -1.38982799       0.02060267      -1.40030817
12
Frame=13 idx=002668 GeodesicLength=1.4748392331347582 rxn_smarts="[C:1](/[N:2]=[C:3](\[N:4]([H:10])[H:11])[C:5](=[O:6])[H:12])([H:7])([H:8])[H:9]>>[C-:5]#[O+:6].[C:1]([N+:2]#[C-:3])([H:7])([H:8])[H:9].[N:4]([H:10])([H:11])[H:12]"
C        1.84785965       0.27060015       0.67665638
N        0.57044058       0.91876796       0.73121470
C       -0.56380194       0.48721421       0.61184848
N       -0.59903632      -1.02125252      -0.62982472
C       -2.14266417       1.05175385      -0.46494618
O       -3.21695098       1.16571843      -0.03402619
H        1.91393321      -0.43922317      -0.15467541
H        2.62447449       1.02320688       0.54819084
H        2.02440258      -0.27714797       1.60642222
H       -1.24516964      -1.75511979      -0.36419136
H        0.14971863      -1.48946707      -1.11986024
H       -1.36320611       0.06494903      -1.40680852
12
Frame=14 idx=002668 GeodesicLength=1.588327609909684 rxn_smarts="[C:1](/[N:2]=[C:3](\[N:4]([H:10])[H:11])[C:5](=[O:6])[H:12])([H:7])([H:8])[H:9]>>[C-:5]#[O+:6].[C:1]([N+:2]#[C-:3])([H:7])([H:8])[H:9].[N:4]([H:10])([H:11])[H:12]"
C        1.85495674       0.27610369       0.66680064
N        0.57911593       0.92416400       0.74161292
C       -0.56076327       0.50400661       0.65446834
N       -0.59889860      -1.03672422      -0.61195862
C       -2.14243119       1.05905394      -0.46279536
O       -3.23477439       1.12606078      -0.07158271
H        1.91462091      -0.40346309      -0.18972662
H        2.63379181       1.02981958       0.56220772
H        2.02850905      -0.30636986       1.57597303
H       -1.28308271      -1.74613700      -0.37663482
H        0.14585710      -1.53597690      -1.07649637
H       -1.33690138       0.10946247      -1.41186815
12
Frame=15 idx=002668 GeodesicLength=1.701845168709722 rxn_smarts="[C:1](/[N:2]=[C:3](\[N:4]([H:10])[H:11])[C:5](=[O:6])[H:12])([H:7])([H:8])[H:9]>>[C-:5]#[O+:6].[C:1]([N+:2]#[C-:3])([H:7])([H:8])[H:9].[N:4]([H:10])([H:11])[H:12]"
C        1.86112057       0.28124056       0.65674907
N        0.58756073       0.92996754       0.75185954
C       -0.55736910       0.52237556       0.69738666
N       -0.59825121      -1.05259247      -0.59431651
C       -2.14308799       1.06502469      -0.45981623
O       -3.25009508       1.08631761      -0.10935815
H        1.91305662      -0.36814491      -0.22321214
H        2.64301098       1.03430630       0.57487293
H        2.03114944      -0.33458742       1.54454024
H       -1.31770907      -1.73669036      -0.39116315
H        0.14208096      -1.58178123      -1.03170266
H       -1.31146685       0.15456413      -1.41583959
12
Frame=16 idx=002668 GeodesicLength=1.8153736989903815 rxn_smarts="[C:1](/[N:2]=[C:3](\[N:4]([H:10])[H:11])[C:5](=[O:6])[H:12])([H:7])([H:8])[H:9]>>[C-:5]#[O+:6].[C:1]([N+:2]#[C-:3])([H:7])([H:8])[H:9].[N:4]([H:10])([H:11])[H:12]"
C        1.86643087       0.28589973       0.64668737
N        0.59594002       0.93637681       0.76123922
C       -0.55340862       0.54256854       0.74024997
N       -0.59702331      -1.06873018      -0.57730745
C       -2.14487535       1.06962451      -0.45587846
O       -3.26312954       1.04617292      -0.14652558
H        1.90960267      -0.33429787      -0.25440593
H        2.65233212       1.03647778       0.58583586
H        2.03203062      -0.36112124       1.51306668
H       -1.34883886      -1.72686298      -0.40810252
H        0.13841531      -1.62681523      -0.98577665
H       -1.28747594       0.20070721      -1.41908252
