15
Frame=0 idx=010446 GeodesicLength=0.0 rxn_smarts="[N:1]([C:2](=[O:3])[C:4]([N:5]1[C:6]([H:12])([H:13])[C:7]1([H:14])[H:15])([H:10])[H:11])([H:8])[H:9]>>[C-:4]([N+:5]1=[C:7]([H:15])[C:6]1([H:12])[H:13])([H:10])[H:11].[N:1]([C:2](=[O:3])[H:14])([H:8])[H:9]"
N        1.96772661      -0.59980732      -1.21883492
C        0.81469618      -0.91902896      -0.55175757
O        0.60806656      -2.04138045      -0.13595593
C        0.48993047       0.64632321       1.16991715
N       -0.74802618       0.89870930       0.78060923
C       -1.91423781       0.04224282       0.67892357
C       -1.30855496       0.79800022      -0.45485455
H        2.57765511      -1.35407503      -1.49283436
H        2.01570978       0.25410877      -1.74359207
H        0.63311017       0.09505848       2.09037127
H        1.26475357       1.32947203       0.84359996
H       -1.73801593      -1.03069596       0.69763884
H       -2.77881435       0.40104725       1.22855782
H       -0.17397315      -0.11205907      -0.82409182
H       -1.71002602       1.59208465      -1.06769666
15
Frame=1 idx=010446 GeodesicLength=0.07419396330797139 rxn_smarts="[N:1]([C:2](=[O:3])[C:4]([N:5]1[C:6]([H:12])([H:13])[C:7]1([H:14])[H:15])([H:10])[H:11])([H:8])[H:9]>>[C-:4]([N+:5]1=[C:7]([H:15])[C:6]1([H:12])[H:13])([H:10])[H:11].[N:1]([C:2](=[O:3])[H:14])([H:8])[H:9]"
N        1.96989464      -0.59476090      -1.22775836
C        0.82941376      -0.92613146      -0.54686689
O        0.64028557      -2.05017273      -0.12710959
C        0.49102005       0.63080170       1.16542411
N       -0.74358351       0.90158702       0.76916967
C       -1.91989920       0.05679367       0.68572207
C       -1.31389940       0.78873774      -0.46272821
H        2.59065313      -1.33950835      -1.50254167
H        2.00648266       0.26441451      -1.74486523
H        0.61685766       0.07427907       2.08573114
H        1.26677755       1.32720824       0.87082929
H       -1.75485683      -1.01763796       0.71790151
H       -2.77676741       0.43313088       1.23583654
H       -0.19085241      -0.13450246      -0.84435911
H       -1.71152626       1.58576104      -1.07438525
15
Frame=2 idx=010446 GeodesicLength=0.14840962708526867 rxn_smarts="[N:1]([C:2](=[O:3])[C:4]([N:5]1[C:6]([H:12])([H:13])[C:7]1([H:14])[H:15])([H:10])[H:11])([H:8])[H:9]>>[C-:4]([N+:5]1=[C:7]([H:15])[C:6]1([H:12])[H:13])([H:10])[H:11].[N:1]([C:2](=[O:3])[H:14])([H:8])[H:9]"
N        1.97151460      -0.58918069      -1.23709192
C        0.84446436      -0.93334982      -0.54198654
O        0.67404134      -2.05892269      -0.11815635
C        0.49207143       0.61501550       1.16111452
N       -0.73872128       0.90411776       0.75732921
C       -1.92545532       0.07209975       0.69252870
C       -1.31896267       0.77875941      -0.47072621
H        2.60341896      -1.32369574      -1.51307941
H        1.99604534       0.27540594      -1.74590282
H        0.60011496       0.05308174       2.08089068
H        1.26843940       1.32385979       0.89949418
H       -1.77230066      -1.00360073       0.73899114
H       -2.77418235       0.46683164       1.24250268
H       -0.20842899      -0.15888791      -0.86396173
H       -1.71205911       1.57846607      -1.08194614
15
Frame=3 idx=010446 GeodesicLength=0.2226457323011312 rxn_smarts="[N:1]([C:2](=[O:3])[C:4]([N:5]1[C:6]([H:12])([H:13])[C:7]1([H:14])[H:15])([H:10])[H:11])([H:8])[H:9]>>[C-:4]([N+:5]1=[C:7]([H:15])[C:6]1([H:12])[H:13])([H:10])[H:11].[N:1]([C:2](=[O:3])[H:14])([H:8])[H:9]"
N        1.97252874      -0.58304745      -1.24686591
C        0.85987759      -0.94066348      -0.53711708
O        0.70940956      -2.06756487      -0.10912355
C        0.49308823       0.59894015       1.15702751
N       -0.73341638       0.90626514       0.74508751
C       -1.93087878       0.08820864       0.69931994
C       -1.32373062       0.76802634      -0.47883075
H        2.61593808      -1.30655898      -1.52440970
H        1.98430631       0.28705821      -1.74672943
H        0.58287429       0.03138679       2.07582652
H        1.26967022       1.31934863       0.92961922
H       -1.79036545      -0.98848538       0.76092162
H       -2.77099828       0.50221388       1.24846754
H       -0.22670929      -0.18526356      -0.88279679
H       -1.71159422       1.57013593      -1.09039666
15
Frame=4 idx=010446 GeodesicLength=0.2968962685840832 rxn_smarts="[N:1]([C:2](=[O:3])[C:4]([N:5]1[C:6]([H:12])([H:13])[C:7]1([H:14])[H:15])([H:10])[H:11])([H:8])[H:9]>>[C-:4]([N+:5]1=[C:7]([H:15])[C:6]1([H:12])[H:13])([H:10])[H:11].[N:1]([C:2](=[O:3])[H:14])([H:8])[H:9]"
N        1.97287745      -0.57634925      -1.25710427
C        0.87568481      -0.94804537      -0.53225926
O        0.74645757      -2.07602189      -0.10004710
C        0.49407049       0.58255174       1.15320345
N       -0.72764694       0.90799035       0.73244824
C       -1.93613477       0.10516617       0.70606761
C       -1.32818963       0.75649693      -0.48701816
H        2.62818020      -1.28802588      -1.53650089
H        1.97118297       0.29933682      -1.74735828
H        0.56512596       0.00911230       2.07050925
H        1.27038456       1.31360298       0.96122090
H       -1.80906109      -0.97218622       0.78369995
H       -2.76714016       0.53933353       1.25363725
H       -0.24568930      -0.21366037      -0.90075147
H       -1.71010212       1.56069817      -1.09974722
15
Frame=5 idx=010446 GeodesicLength=0.3711554296392495 rxn_smarts="[N:1]([C:2](=[O:3])[C:4]([N:5]1[C:6]([H:12])([H:13])[C:7]1([H:14])[H:15])([H:10])[H:11])([H:8])[H:9]>>[C-:4]([N+:5]1=[C:7]([H:15])[C:6]1([H:12])[H:13])([H:10])[H:11].[N:1]([C:2](=[O:3])[H:14])([H:8])[H:9]"
N        1.97250016      -0.56908453      -1.26783203
C        0.89192073      -0.95546075      -0.52741289
O        0.78524425      -2.08420321      -0.09096661
C        0.49501586       0.56582827       1.14968647
N       -0.72139431       0.90925262       0.71942223
C       -1.94118488       0.12301451       0.71274011
C       -1.33232869       0.74412994      -0.49525782
H        2.64010349      -1.26803402      -1.54932748
H        1.95660571       0.31219781      -1.74779571
H        0.54686151      -0.01382348       2.06490758
H        1.27048773       1.30655407       0.99430536
H       -1.82839087      -0.95459295       0.80732637
H       -2.76253022       0.57823306       1.25790887
H       -0.26535299      -0.24408838      -0.91770529
H       -1.70755748       1.55007705      -1.10999916
15
Frame=6 idx=010446 GeodesicLength=0.4454166518867451 rxn_smarts="[N:1]([C:2](=[O:3])[C:4]([N:5]1[C:6]([H:12])([H:13])[C:7]1([H:14])[H:15])([H:10])[H:11])([H:8])[H:9]>>[C-:4]([N+:5]1=[C:7]([H:15])[C:6]1([H:12])[H:13])([H:10])[H:11].[N:1]([C:2](=[O:3])[H:14])([H:8])[H:9]"
N        1.97133327      -0.56126332      -1.27907735
C        0.90862046      -0.96286733      -0.52258108
O        0.82581377      -2.09200583      -0.08193119
C        0.49592013       0.54874695       1.14652155
N       -0.71464259       0.91000922       0.70602725
C       -1.94598670       0.14179228       0.71930395
C       -1.33614212       0.73088633      -0.50351043
H        2.65167010      -1.24652467      -1.56284530
H        1.94051527       0.32558279      -1.74805165
H        0.52807514      -0.03750557       2.05898386
H        1.26987717       1.29813529       1.02886673
H       -1.84835070      -0.93559027       0.83179399
H       -2.75708475       0.61894203       1.26117502
H       -0.28567455      -0.27653261      -0.93353376
H       -1.70394391       1.53819469      -1.12114159
15
Frame=7 idx=010446 GeodesicLength=0.5196744117948127 rxn_smarts="[N:1]([C:2](=[O:3])[C:4]([N:5]1[C:6]([H:12])([H:13])[C:7]1([H:14])[H:15])([H:10])[H:11])([H:8])[H:9]>>[C-:4]([N+:5]1=[C:7]([H:15])[C:6]1([H:12])[H:13])([H:10])[H:11].[N:1]([C:2](=[O:3])[H:14])([H:8])[H:9]"
N        1.96931800      -0.55291042      -1.29086431
C        0.92582277      -0.97021264      -0.51776505
O        0.86819398      -2.09931340      -0.07299264
C        0.49677473       0.53129003       1.14375413
N       -0.70738181       0.91021776       0.69228879
C       -1.95049365       0.16153046       0.72572294
C       -1.33963089       0.71672947      -0.51172842
H        2.66282240      -1.22346149      -1.57702770
H        1.92288519       0.33942524      -1.74811499
H        0.50876336      -0.06201353       2.05269597
H        1.26844005       1.28828943       1.06488516
H       -1.86892531      -0.91506178       0.85708588
H       -2.75071615       0.66146788       1.26332478
H       -0.30661489      -0.31094757      -0.94811402
H       -1.69925778       1.52497057      -1.13315052
15
Frame=8 idx=010446 GeodesicLength=0.5939209113934585 rxn_smarts="[N:1]([C:2](=[O:3])[C:4]([N:5]1[C:6]([H:12])([H:13])[C:7]1([H:14])[H:15])([H:10])[H:11])([H:8])[H:9]>>[C-:4]([N+:5]1=[C:7]([H:15])[C:6]1([H:12])[H:13])([H:10])[H:11].[N:1]([C:2](=[O:3])[H:14])([H:8])[H:9]"
N        1.96637264      -0.54407554      -1.30324430
C        0.94354279      -0.97744728      -0.51299886
O        0.91236053      -2.10600985      -0.06424528
C        0.49757991       0.51342696       1.14140805
N       -0.69960158       0.90983223       0.67823793
C       -1.95465425       0.18225796       0.73197043
C       -1.34281642       0.70163653      -0.51984859
H        2.67361302      -1.19875777      -1.59166130
H        1.90367501       0.35361683      -1.74803546
H        0.48894444      -0.08744304       2.04597128
H        1.26606737       1.27695404       1.10230749
H       -1.89009025      -0.89288583       0.88318147
H       -2.74332191       0.70580579       1.26426941
H       -0.32814497      -0.34725242      -0.96134238
H       -1.69352633       1.51034141      -1.14596988
15
Frame=9 idx=010446 GeodesicLength=0.6681519092420414 rxn_smarts="[N:1]([C:2](=[O:3])[C:4]([N:5]1[C:6]([H:12])([H:13])[C:7]1([H:14])[H:15])([H:10])[H:11])([H:8])[H:9]>>[C-:4]([N+:5]1=[C:7]([H:15])[C:6]1([H:12])[H:13])([H:10])[H:11].[N:1]([C:2](=[O:3])[H:14])([H:8])[H:9]"
N        1.96247318      -0.53481131      -1.31621242
C        0.96184707      -0.98448811      -0.50825391
O        0.95832595      -2.11194546      -0.05571285
C        0.49831000       0.49515924       1.13954486
N       -0.69130996       0.90881664       0.66391848
C       -1.95841517       0.20398246       0.73799724
C       -1.34570598       0.68557757      -0.52780947
H        2.68386713      -1.17246624      -1.60687817
H        1.88295217       0.36808639      -1.74773309
H        0.46860423      -0.11384767       2.03877635
H        1.26262177       1.26410342       1.14110960
H       -1.91179859      -0.86895232       0.91003448
H       -2.73481955       0.75190602       1.26387520
H       -0.35018406      -0.38533979      -0.97310129
H       -1.68676820       1.49421915      -1.15955500
15
Frame=10 idx=010446 GeodesicLength=0.7423618464885734 rxn_smarts="[N:1]([C:2](=[O:3])[C:4]([N:5]1[C:6]([H:12])([H:13])[C:7]1([H:14])[H:15])([H:10])[H:11])([H:8])[H:9]>>[C-:4]([N+:5]1=[C:7]([H:15])[C:6]1([H:12])[H:13])([H:10])[H:11].[N:1]([C:2](=[O:3])[H:14])([H:8])[H:9]"
N        1.95758410      -0.52518940      -1.32978061
C        0.98078268      -0.99125077      -0.50352818
O        1.00605348      -2.11697068      -0.04745006
C        0.49894650       0.47647838       1.13820631
N       -0.68251605       0.90713444       0.64938082
C       -1.96171979       0.22670573       0.74376296
C       -1.34832618       0.66853974      -0.53553450
H        2.69350272      -1.14460868      -1.62265152
H        1.86077944       0.38272421      -1.74719141
H        0.44774782      -0.14129111       2.03104954
H        1.25796881       1.24971110       1.18124277
H       -1.93399072      -0.84315161       0.93759127
H       -2.72511791       0.79969958       1.26203129
H       -0.37266158      -0.42506863      -0.98330170
H       -1.67903331       1.47653771      -1.17382699
15
Frame=11 idx=010446 GeodesicLength=0.8165458262239007 rxn_smarts="[N:1]([C:2](=[O:3])[C:4]([N:5]1[C:6]([H:12])([H:13])[C:7]1([H:14])[H:15])([H:10])[H:11])([H:8])[H:9]>>[C-:4]([N+:5]1=[C:7]([H:15])[C:6]1([H:12])[H:13])([H:10])[H:11].[N:1]([C:2](=[O:3])[H:14])([H:8])[H:9]"
N        1.95168605      -0.51529469      -1.34394818
C        1.00039815      -0.99763963      -0.49881733
O        1.05547953      -2.12093015      -0.03950825
C        0.49946796       0.45738149       1.13742949
N       -0.67323711       0.90475471       0.63468307
C       -1.96450966       0.25041574       0.74922742
C       -1.35071392       0.65052369      -0.54293880
H        2.70243075      -1.11523397      -1.63895500
H        1.83725540       0.39740582      -1.74639899
H        0.42638503      -0.16982588       2.02272158
H        1.25196827       1.23376404       1.22265029
H       -1.95658802      -0.81538403       0.96578426
H       -2.71412881       0.84908385       1.25863605
H       -0.39550121      -0.46626702      -0.99188000
H       -1.67039242       1.45724604      -1.18868563
15
Frame=12 idx=010446 GeodesicLength=0.8907029671337354 rxn_smarts="[N:1]([C:2](=[O:3])[C:4]([N:5]1[C:6]([H:12])([H:13])[C:7]1([H:14])[H:15])([H:10])[H:11])([H:8])[H:9]>>[C-:4]([N+:5]1=[C:7]([H:15])[C:6]1([H:12])[H:13])([H:10])[H:11].[N:1]([C:2](=[O:3])[H:14])([H:8])[H:9]"
N        1.94483780      -0.50517810      -1.35862023
C        1.02078745      -1.00352407      -0.49406137
O        1.10657387      -2.12363927      -0.03187506
C        0.49983420       0.43788820       1.13728362
N       -0.66350453       0.90165715       0.61989566
C       -1.96672897       0.27507762       0.75432962
C       -1.35289045       0.63153405      -0.54994023
H        2.71035723      -1.08454157      -1.65606444
H        1.81255021       0.41202975      -1.74528638
H        0.40449827      -0.19947533       2.01375130
H        1.24444877       1.21628320       1.26532723
H       -1.97949213      -0.78556945       0.99451638
H       -2.70178840       0.89991077       1.25355824
H       -0.41858159      -0.50874471      -0.99878027
H       -1.66090173       1.43629176      -1.20403406
15
Frame=13 idx=010446 GeodesicLength=0.9648583319276764 rxn_smarts="[N:1]([C:2](=[O:3])[C:4]([N:5]1[C:6]([H:12])([H:13])[C:7]1([H:14])[H:15])([H:10])[H:11])([H:8])[H:9]>>[C-:4]([N+:5]1=[C:7]([H:15])[C:6]1([H:12])[H:13])([H:10])[H:11].[N:1]([C:2](=[O:3])[H:14])([H:8])[H:9]"
N        1.93698081      -0.49498445      -1.37388752
C        1.04196639      -1.00882063      -0.48930874
O        1.15920202      -2.12497517      -0.02464030
C        0.50003886       0.41797055       1.13777010
N       -0.65333805       0.89782035       0.60508662
C       -1.96832460       0.30067906       0.75906151
C       -1.35493251       0.61161639      -0.55643508
H        2.71744162      -1.05246726      -1.67359798
H        1.78673279       0.42641199      -1.74399273
H        0.38213096      -0.23030569       2.00403086
H        1.23529990       1.19722433       1.30916532
H       -2.00260351      -0.75361191       1.02372380
H       -2.68801582       0.95206232       1.24676008
H       -0.44188364      -0.55230484      -1.00401148
H       -1.65069522       1.41368494      -1.21972446
15
Frame=14 idx=010446 GeodesicLength=1.0389768724166486 rxn_smarts="[N:1]([C:2](=[O:3])[C:4]([N:5]1[C:6]([H:12])([H:13])[C:7]1([H:14])[H:15])([H:10])[H:11])([H:8])[H:9]>>[C-:4]([N+:5]1=[C:7]([H:15])[C:6]1([H:12])[H:13])([H:10])[H:11].[N:1]([C:2](=[O:3])[H:14])([H:8])[H:9]"
N        1.92856428      -0.48444264      -1.38905916
C        1.06423860      -1.01323340      -0.48421815
O        1.21354217      -2.12460473      -0.01753481
C        0.49995796       0.39775228       1.13911526
N       -0.64280390       0.89325600       0.59033931
C       -1.96924259       0.32710112       0.76324861
C       -1.35675104       0.59072846      -0.56238304
H        2.72225045      -1.02005657      -1.69347972
H        1.76026714       0.44067769      -1.74204644
H        0.35912395      -0.26225748       1.99362225
H        1.22413832       1.17678731       1.35448489
H       -2.02577018      -0.71950529       1.05320519
H       -2.67280549       1.00526114       1.23795174
H       -0.46502654      -0.59674825      -1.00749718
H       -1.63968314       1.38928437      -1.23574876
15
Frame=15 idx=010446 GeodesicLength=1.1131254009311347 rxn_smarts="[N:1]([C:2](=[O:3])[C:4]([N:5]1[C:6]([H:12])([H:13])[C:7]1([H:14])[H:15])([H:10])[H:11])([H:8])[H:9]>>[C-:4]([N+:5]1=[C:7]([H:15])[C:6]1([H:12])[H:13])([H:10])[H:11].[N:1]([C:2](=[O:3])[H:14])([H:8])[H:9]"
N        1.91893007      -0.47405698      -1.40500666
C        1.08729362      -1.01688128      -0.47923675
O        1.26920141      -2.12259838      -0.01099241
C        0.49969403       0.37696626       1.14106795
N       -0.63179599       0.88788983       0.57567108
C       -1.96937208       0.35449887       0.76703458
C       -1.35853988       0.56896060      -0.56760115
H        2.72666710      -0.98581051      -1.71270796
H        1.73250256       0.45427989      -1.74042624
H        0.33566404      -0.29560539       1.98213501
H        1.21114493       1.15451773       1.40081299
H       -2.04894374      -0.68295653       1.08305471
H       -2.65584659       1.05967016       1.22729525
H       -0.48847989      -0.64203208      -1.00928986
H       -1.62811959       1.36315782      -1.25181054
15
Frame=16 idx=010446 GeodesicLength=1.1873751971338364 rxn_smarts="[N:1]([C:2](=[O:3])[C:4]([N:5]1[C:6]([H:12])([H:13])[C:7]1([H:14])[H:15])([H:10])[H:11])([H:8])[H:9]>>[C-:4]([N+:5]1=[C:7]([H:15])[C:6]1([H:12])[H:13])([H:10])[H:11].[N:1]([C:2](=[O:3])[H:14])([H:8])[H:9]"
N        1.90874561      -0.46340999      -1.42086498
C        1.11159499      -1.01937094      -0.47390445
O        1.32655894      -2.11854204      -0.00458594
C        0.49907059       0.35575517       1.14398771
N       -0.62042831       0.88176532       0.56122045
C       -1.96872122       0.38273257       0.77021879
C       -1.36017470       0.54630952      -0.57207473
H        2.72885461      -0.95129171      -1.73401289
H        1.70404319       0.46747296      -1.73861149
H        0.31151156      -0.33028630       1.96973774
H        1.19582563       1.13061858       1.44867930
H       -2.07198581      -0.64399716       1.11304124
H       -2.63728131       1.11496755       1.21445509
H       -0.51173766      -0.68794516      -1.00933317
H       -1.61587611       1.33522162      -1.26795269
