13
Frame=0 idx=006510 GeodesicLength=0.0 rxn_smarts="[C:1](#[C:2][C@:3]12[C:4]([H:9])([H:10])[C@@:5]1([H:11])[O:6][C:7]2([H:12])[H:13])[H:8]>>[C:1](#[C:2][C@:3]1([H:9])[C@:5]([C:4][H:10])([H:11])[O:6][C:7]1([H:12])[H:13])[H:8]"
C        0.52441689       2.48567910      -0.68347664
C        0.19305901       1.35479112      -0.46941032
C       -0.20986493       0.00413626      -0.22930316
C       -1.39386392      -0.59953157       1.07663495
C        0.04455190      -0.71036309       1.12549258
O        0.63226597      -1.84361228       0.49465945
C        0.46601061      -1.25389692      -0.79570703
H        0.82001809       3.49071587      -0.87278231
H       -1.37218905      -0.17348291      -0.34546502
H       -1.63485226       0.37357625       1.53136516
H        0.65798715      -0.24070140       1.88793473
H        1.42525203      -1.02430955      -1.26333318
H       -0.15279148      -1.86300088      -1.45660924
13
Frame=1 idx=006510 GeodesicLength=0.05468808687972184 rxn_smarts="[C:1](#[C:2][C@:3]12[C:4]([H:9])([H:10])[C@@:5]1([H:11])[O:6][C:7]2([H:12])[H:13])[H:8]>>[C:1](#[C:2][C@:3]1([H:9])[C@:5]([C:4][H:10])([H:11])[O:6][C:7]1([H:12])[H:13])[H:8]"
C        0.52212580       2.48368841      -0.68812219
C        0.18592516       1.35411086      -0.47438349
C       -0.21552955       0.00312393      -0.23033954
C       -1.38996397      -0.59366228       1.07536911
C        0.04783122      -0.70779913       1.12603488
O        0.63159350      -1.84222131       0.49463235
C        0.46754291      -1.25137557      -0.79575569
H        0.83379629       3.48662207      -0.86249196
H       -1.39116076      -0.18887548      -0.34668240
H       -1.63564177       0.37537140       1.53488321
H        0.66349348      -0.23717610       1.88612466
H        1.42751785      -1.01950722      -1.26073056
H       -0.14753016      -1.86229958      -1.45853838
13
Frame=2 idx=006510 GeodesicLength=0.10937457815866594 rxn_smarts="[C:1](#[C:2][C@:3]12[C:4]([H:9])([H:10])[C@@:5]1([H:11])[O:6][C:7]2([H:12])[H:13])[H:8]>>[C:1](#[C:2][C@:3]1([H:9])[C@:5]([C:4][H:10])([H:11])[O:6][C:7]1([H:12])[H:13])[H:8]"
C        0.51915074       2.48219493      -0.69185707
C        0.17858142       1.35374492      -0.47873621
C       -0.22117565       0.00231069      -0.23113151
C       -1.38616190      -0.58809421       1.07402907
C        0.05102539      -0.70536094       1.12661725
O        0.63105500      -1.84069442       0.49438821
C        0.46914768      -1.24842106      -0.79587864
H        0.84892457       3.48138691      -0.85421582
H       -1.41028637      -0.20472034      -0.34744513
H       -1.63673736       0.37665117       1.53853220
H        0.66877790      -0.23390846       1.88453357
H        1.42982351      -1.01405940      -1.25813562
H       -0.14212492      -1.86102979      -1.46070030
13
Frame=3 idx=006510 GeodesicLength=0.16405516611224147 rxn_smarts="[C:1](#[C:2][C@:3]12[C:4]([H:9])([H:10])[C@@:5]1([H:11])[O:6][C:7]2([H:12])[H:13])[H:8]>>[C:1](#[C:2][C@:3]1([H:9])[C@:5]([C:4][H:10])([H:11])[O:6][C:7]1([H:12])[H:13])[H:8]"
C        0.51761622       2.48025696      -0.69642381
C        0.17230217       1.35312876      -0.48356736
C       -0.22629409       0.00147250      -0.23215007
C       -1.38228481      -0.58178988       1.07241954
C        0.05424011      -0.70279478       1.12710401
O        0.63012550      -1.83939620       0.49432348
C        0.47062002      -1.24592098      -0.79595852
H        0.86112256       3.47717955      -0.84388086
H       -1.42917874      -0.22064579      -0.34811146
H       -1.63742912       0.37880552       1.54166875
H        0.67420501      -0.23063810       1.88281238
H        1.43209031      -1.00961118      -1.25555294
H       -0.13713514      -1.86004639      -1.46268315
13
Frame=4 idx=006510 GeodesicLength=0.21872345499049783 rxn_smarts="[C:1](#[C:2][C@:3]12[C:4]([H:9])([H:10])[C@@:5]1([H:11])[O:6][C:7]2([H:12])[H:13])[H:8]>>[C:1](#[C:2][C@:3]1([H:9])[C@:5]([C:4][H:10])([H:11])[O:6][C:7]1([H:12])[H:13])[H:8]"
C        0.51607786       2.47872279      -0.69984494
C        0.16628013       1.35278978      -0.48759457
C       -0.23121097       0.00085269      -0.23287875
C       -1.37854260      -0.57566742       1.07064392
C        0.05730332      -0.70049877       1.12765514
O        0.62912352      -1.83815548       0.49402816
C        0.47214571      -1.24307436      -0.79609827
H        0.87353946       3.47239137      -0.83602595
H       -1.44808820      -0.23680572      -0.34836001
H       -1.63833766       0.38056795       1.54489523
H        0.67935866      -0.22793799       1.88143128
H        1.43444940      -1.00475769      -1.25289286
H       -0.13209862      -1.85842717      -1.46495838
13
Frame=5 idx=006510 GeodesicLength=0.2733761103827716 rxn_smarts="[C:1](#[C:2][C@:3]12[C:4]([H:9])([H:10])[C@@:5]1([H:11])[O:6][C:7]2([H:12])[H:13])[H:8]>>[C:1](#[C:2][C@:3]1([H:9])[C@:5]([C:4][H:10])([H:11])[O:6][C:7]1([H:12])[H:13])[H:8]"
C        0.51535885       2.47713458      -0.70318281
C        0.16106084       1.35242718      -0.49150058
C       -0.23570810       0.00031976      -0.23360037
C       -1.37481728      -0.56921197       1.06862628
C        0.06030211      -0.69828792       1.12818779
O        0.62784856      -1.83710363       0.49372902
C        0.47361560      -1.24035646      -0.79623866
H        0.88432671       3.46811620      -0.82822147
H       -1.46686790      -0.25308696      -0.34835682
H       -1.63910581       0.38264751       1.54786604
H        0.68445929      -0.22555523       1.88015768
H        1.43683068      -1.00034550      -1.25020608
H       -0.12730354      -1.85669757      -1.46726001
13
Frame=6 idx=006510 GeodesicLength=0.32800826179019077 rxn_smarts="[C:1](#[C:2][C@:3]12[C:4]([H:9])([H:10])[C@@:5]1([H:11])[O:6][C:7]2([H:12])[H:13])[H:8]>>[C:1](#[C:2][C@:3]1([H:9])[C@:5]([C:4][H:10])([H:11])[O:6][C:7]1([H:12])[H:13])[H:8]"
C        0.51524275       2.47565050      -0.70605320
C        0.15656517       1.35214004      -0.49499774
C       -0.23981923      -0.00007503      -0.23420580
C       -1.37115455      -0.56259359       1.06637307
C        0.06319059      -0.69626985       1.12874053
O        0.62633336      -1.83623961       0.49334458
C        0.47506445      -1.23762752      -0.79639527
H        0.89397224       3.46417689      -0.82142402
H       -1.48555420      -0.26949055      -0.34804192
H       -1.63984667       0.38480293       1.55069409
H        0.68941164      -0.22366066       1.87911210
H        1.43926925      -0.99614249      -1.24746039
H       -0.12267479      -1.85467107      -1.46968603
13
Frame=7 idx=006510 GeodesicLength=0.3826153674269914 rxn_smarts="[C:1](#[C:2][C@:3]12[C:4]([H:9])([H:10])[C@@:5]1([H:11])[O:6][C:7]2([H:12])[H:13])[H:8]>>[C:1](#[C:2][C@:3]1([H:9])[C@:5]([C:4][H:10])([H:11])[O:6][C:7]1([H:12])[H:13])[H:8]"
C        0.51563743       2.47435866      -0.70824396
C        0.15279724       1.35198226      -0.49789767
C       -0.24354491      -0.00030062      -0.23462730
C       -1.36758292      -0.55590198       1.06388206
C        0.06593523      -0.69452483       1.12934025
O        0.62457660      -1.83558405       0.49282665
C        0.47651110      -1.23481751      -0.79657388
H        0.90268058       3.46055397      -0.81622032
H       -1.50415944      -0.28599947      -0.34738705
H       -1.64061797       0.38690048       1.55344299
H        0.69415392      -0.22238963       1.87838130
H        1.44179128      -0.99204246      -1.24462617
H       -0.11817813      -1.85223481      -1.47229691
13
Frame=8 idx=006510 GeodesicLength=0.4371927128607167 rxn_smarts="[C:1](#[C:2][C@:3]12[C:4]([H:9])([H:10])[C@@:5]1([H:11])[O:6][C:7]2([H:12])[H:13])[H:8]>>[C:1](#[C:2][C@:3]1([H:9])[C@:5]([C:4][H:10])([H:11])[O:6][C:7]1([H:12])[H:13])[H:8]"
C        0.51630211       2.47347830      -0.70919986
C        0.14970448       1.35209511      -0.49974175
C       -0.24690974      -0.00028058      -0.23469374
C       -1.36417755      -0.54935979       1.06116107
C        0.06845781      -0.69323022       1.13004969
O        0.62258589      -1.83516665       0.49205114
C        0.47800699      -1.23172404      -0.79679139
H        0.91100714       3.45701442      -0.81406111
H       -1.52270741      -0.30258067      -0.34633904
H       -1.64156847       0.38860708       1.55628180
H        0.69854176      -0.22204126       1.87816152
H        1.44446231      -0.98772798      -1.24162514
H       -0.11370531      -1.84908372      -1.47525319
13
Frame=9 idx=006510 GeodesicLength=0.4917462196377229 rxn_smarts="[C:1](#[C:2][C@:3]12[C:4]([H:9])([H:10])[C@@:5]1([H:11])[O:6][C:7]2([H:12])[H:13])[H:8]>>[C:1](#[C:2][C@:3]1([H:9])[C@:5]([C:4][H:10])([H:11])[O:6][C:7]1([H:12])[H:13])[H:8]"
C        0.51737227       2.47281226      -0.70955768
C        0.14729914       1.35234500      -0.50101292
C       -0.24990833      -0.00009026      -0.23459055
C       -1.36085405      -0.54276649       1.05821687
C        0.07083867      -0.69220261       1.13080708
O        0.62037712      -1.83493890       0.49114409
C        0.47950361      -1.22855150      -0.79702787
H        0.91859238       3.45385733      -0.81342503
H       -1.54122044      -0.31933822      -0.34493308
H       -1.64257142       0.39022083       1.55904156
H        0.70271707      -0.22229347       1.87825260
H        1.44721330      -0.98351209      -1.23853846
H       -0.10935932      -1.84554189      -1.47837660
13
Frame=10 idx=006510 GeodesicLength=0.5462795896657004 rxn_smarts="[C:1](#[C:2][C@:3]12[C:4]([H:9])([H:10])[C@@:5]1([H:11])[O:6][C:7]2([H:12])[H:13])[H:8]>>[C:1](#[C:2][C@:3]1([H:9])[C@:5]([C:4][H:10])([H:11])[O:6][C:7]1([H:12])[H:13])[H:8]"
C        0.51921380       2.47204413      -0.71018973
C        0.14573093       1.35252288      -0.50236458
C       -0.25247908       0.00016538      -0.23457174
C       -1.35749542      -0.53578991       1.05502799
C        0.07318161      -0.69121116       1.13152553
O        0.61791491      -1.83488382       0.49028509
C        0.48092463      -1.22562115      -0.79725530
H        0.92457732       3.45162096      -0.81219760
H       -1.55968737      -0.33633426      -0.34321823
H       -1.64340154       0.39222977       1.56146837
H        0.70687793      -0.22276334       1.87839190
H        1.44995778      -0.97991386      -1.23546995
H       -0.10531550      -1.84206563      -1.48143175
13
Frame=11 idx=006510 GeodesicLength=0.600796843518328 rxn_smarts="[C:1](#[C:2][C@:3]12[C:4]([H:9])([H:10])[C@@:5]1([H:11])[O:6][C:7]2([H:12])[H:13])[H:8]>>[C:1](#[C:2][C@:3]1([H:9])[C@:5]([C:4][H:10])([H:11])[O:6][C:7]1([H:12])[H:13])[H:8]"
C        0.52202768       2.47104139      -0.71140316
C        0.14507284       1.35255064      -0.50403426
C       -0.25459440       0.00045100      -0.23473285
C       -1.35405648      -0.52830602       1.05157650
C        0.07552091      -0.69017494       1.13217182
O        0.61518040      -1.83499796       0.48953956
C        0.48224134      -1.22305628      -0.79746597
H        0.92858594       3.45055080      -0.80961641
H       -1.57811579      -0.35359592      -0.34118355
H       -1.64397704       0.39482082       1.56345855
H        0.71109247      -0.22332252       1.87848681
H        1.45266497      -0.97713324      -1.23246190
H       -0.10164284      -1.83882777      -1.48433513
13
Frame=12 idx=006510 GeodesicLength=0.6553017873808303 rxn_smarts="[C:1](#[C:2][C@:3]12[C:4]([H:9])([H:10])[C@@:5]1([H:11])[O:6][C:7]2([H:12])[H:13])[H:8]>>[C:1](#[C:2][C@:3]1([H:9])[C@:5]([C:4][H:10])([H:11])[O:6][C:7]1([H:12])[H:13])[H:8]"
C        0.52550568       2.46996276      -0.71287627
C        0.14508373       1.35254408      -0.50580965
C       -0.25635217       0.00081657      -0.23498909
C       -1.35057917      -0.52051002       1.04788944
C        0.07782490      -0.68913766       1.13277138
O        0.61227264      -1.83520352       0.48883179
C        0.48349443      -1.22068015      -0.79768217
H        0.93139241       3.45024286      -0.80645812
H       -1.59658435      -0.37123863      -0.33873475
H       -1.64445195       0.39772176       1.56512404
H        0.71527146      -0.22401410       1.87861030
H        1.45535258      -0.97484860      -1.22950789
H       -0.09823019      -1.83565536      -1.48716901
13
Frame=13 idx=006510 GeodesicLength=0.7097947964286775 rxn_smarts="[C:1](#[C:2][C@:3]12[C:4]([H:9])([H:10])[C@@:5]1([H:11])[O:6][C:7]2([H:12])[H:13])[H:8]>>[C:1](#[C:2][C@:3]1([H:9])[C@:5]([C:4][H:10])([H:11])[O:6][C:7]1([H:12])[H:13])[H:8]"
C        0.52944557       2.46892558      -0.71436778
C        0.14563809       1.35257482      -0.50755366
C       -0.25780251       0.00129583      -0.23528849
C       -1.34709147      -0.51251607       1.04397545
C        0.08006977      -0.68813179       1.13333932
O        0.60924469      -1.83545914       0.48811246
C        0.48470931      -1.21838595      -0.79791857
H        0.93346179       3.45045356      -0.80324681
H       -1.61513602      -0.38933707      -0.33580467
H       -1.64491722       0.40076852       1.56652945
H        0.71935358      -0.22487897       1.87881422
H        1.45803504      -0.97287250      -1.22660168
H       -0.09501061      -1.83243682      -1.48998926
13
Frame=14 idx=006510 GeodesicLength=0.7642762607427198 rxn_smarts="[C:1](#[C:2][C@:3]12[C:4]([H:9])([H:10])[C@@:5]1([H:11])[O:6][C:7]2([H:12])[H:13])[H:8]>>[C:1](#[C:2][C@:3]1([H:9])[C@:5]([C:4][H:10])([H:11])[O:6][C:7]1([H:12])[H:13])[H:8]"
C        0.53385417       2.46795372      -0.71580333
C        0.14675289       1.35265362      -0.50924028
C       -0.25893920       0.00189971      -0.23562672
C       -1.34359809      -0.50433036       1.03982164
C        0.08224481      -0.68716867       1.13387563
O        0.60609035      -1.83576686       0.48737057
C        0.48588935      -1.21616259      -0.79818002
H        0.93480545       3.45117880      -0.80009928
H       -1.63377898      -0.40791503      -0.33235313
H       -1.64538185       0.40394666       1.56767366
H        0.72332022      -0.22594197       1.87911315
H        1.46071975      -0.97119575      -1.22373977
H       -0.09197887      -1.82915127      -1.49281214
13
Frame=15 idx=006510 GeodesicLength=0.8187489082137335 rxn_smarts="[C:1](#[C:2][C@:3]12[C:4]([H:9])([H:10])[C@@:5]1([H:11])[O:6][C:7]2([H:12])[H:13])[H:8]>>[C:1](#[C:2][C@:3]1([H:9])[C@:5]([C:4][H:10])([H:11])[O:6][C:7]1([H:12])[H:13])[H:8]"
C        0.53854153       2.46711724      -0.71710368
C        0.14824838       1.35284066      -0.51081670
C       -0.25983470       0.00265045      -0.23598304
C       -1.34011740      -0.49605265       1.03544528
C        0.08434267      -0.68623395       1.13438358
O        0.60289301      -1.83605193       0.48657662
C        0.48705173      -1.21391894      -0.79848095
H        0.93593081       3.45217192      -0.79723753
H       -1.65256564      -0.42710595      -0.32829848
H       -1.64593982       0.40711559       1.56859890
H        0.72713072      -0.22715527       1.87951759
H        1.46339944      -0.96964144      -1.22094277
H       -0.08908072      -1.82573574      -1.49565880
13
Frame=16 idx=006510 GeodesicLength=0.873216455537733 rxn_smarts="[C:1](#[C:2][C@:3]12[C:4]([H:9])([H:10])[C@@:5]1([H:11])[O:6][C:7]2([H:12])[H:13])[H:8]>>[C:1](#[C:2][C@:3]1([H:9])[C@:5]([C:4][H:10])([H:11])[O:6][C:7]1([H:12])[H:13])[H:8]"
C        0.54381910       2.46631904      -0.71836504
C        0.15032544       1.35308203      -0.51235215
C       -0.26041215       0.00353858      -0.23639726
C       -1.33663072      -0.48756693       1.03080539
C        0.08636028      -0.68533054       1.13484921
O        0.59956103      -1.83637927       0.48575556
C        0.48817706      -1.21174647      -0.79881512
H        0.93625816       3.45371814      -0.79439015
H       -1.67146340      -0.44686197      -0.32362127
H       -1.64650707       0.41043056       1.56923212
H        0.73081076      -0.22855859       1.88001078
H        1.46608200      -0.96839668      -1.21819614
H       -0.08638049      -1.82224789      -1.49851594
