10
Frame=0 idx=009368 GeodesicLength=0.0 rxn_smarts="[C:1](#[C:2][c:3]1[c:4]([H:9])[o:5][n:6][c:7]1[H:10])[H:8]>>[C:1](#[C:2][C@:3]1([C:4](=[O:5])[H:9])[N:6]=[C:7]1[H:10])[H:8]"
C        2.36360903       0.11968838       0.43633828
C        1.18616760       0.10251630       0.18746383
C       -0.18160492       0.05616304      -0.12370216
C       -1.10679952       1.09022374       0.22866190
O       -2.28446250       0.93580187       0.46381440
N       -1.85650858      -1.43629161      -0.17675682
C       -0.74627806      -1.21117038      -0.64438412
H        3.40486631       0.14807204       0.65736285
H       -0.65778350       2.09990278       0.18682583
H       -0.12120586      -1.90490616      -1.21562398
10
Frame=1 idx=009368 GeodesicLength=0.06880344782898332 rxn_smarts="[C:1](#[C:2][c:3]1[c:4]([H:9])[o:5][n:6][c:7]1[H:10])[H:8]>>[C:1](#[C:2][C@:3]1([C:4](=[O:5])[H:9])[N:6]=[C:7]1[H:10])[H:8]"
C        2.36760737       0.12294110       0.43447708
C        1.18715705       0.09740955       0.20246239
C       -0.18050380       0.05002031      -0.11456221
C       -1.10685568       1.09037059       0.21340061
O       -2.28872075       0.91662036       0.42977659
N       -1.83985082      -1.41767505      -0.13817633
C       -0.74951793      -1.20133030      -0.65966142
H        3.40949160       0.14790949       0.65382949
H       -0.66063506       2.10081117       0.20763556
H       -0.13817197      -1.90707722      -1.22918177
10
Frame=2 idx=009368 GeodesicLength=0.1378464874621259 rxn_smarts="[C:1](#[C:2][c:3]1[c:4]([H:9])[o:5][n:6][c:7]1[H:10])[H:8]>>[C:1](#[C:2][C@:3]1([C:4](=[O:5])[H:9])[N:6]=[C:7]1[H:10])[H:8]"
C        2.37154350       0.12814307       0.43080769
C        1.18802604       0.09185025       0.21831133
C       -0.17934490       0.04337466      -0.10524078
C       -1.10622324       1.09043202       0.19662962
O       -2.29123599       0.89787152       0.39690309
N       -1.82423185      -1.39817587      -0.10382173
C       -0.75226128      -1.19325160      -0.67116152
H        3.41355356       0.14821557       0.65077340
H       -0.66352351       2.10062463       0.22923578
H       -0.15630232      -1.90908425      -1.24243687
10
Frame=3 idx=009368 GeodesicLength=0.20689883540399065 rxn_smarts="[C:1](#[C:2][c:3]1[c:4]([H:9])[o:5][n:6][c:7]1[H:10])[H:8]>>[C:1](#[C:2][C@:3]1([C:4](=[O:5])[H:9])[N:6]=[C:7]1[H:10])[H:8]"
C        2.37482967       0.13246934       0.43001035
C        1.18975305       0.08792443       0.22961377
C       -0.17793536       0.03727465      -0.09802268
C       -1.10499854       1.09072904       0.17838323
O       -2.29169346       0.87863775       0.36892276
N       -1.80821921      -1.37875489      -0.07061204
C       -0.75482824      -1.18627937      -0.68048317
H        3.41704422       0.14865689       0.65008227
H       -0.66774686       2.10008235       0.24891574
H       -0.17620528      -1.91074020      -1.25681022
10
Frame=4 idx=009368 GeodesicLength=0.2759236852861973 rxn_smarts="[C:1](#[C:2][c:3]1[c:4]([H:9])[o:5][n:6][c:7]1[H:10])[H:8]>>[C:1](#[C:2][C@:3]1([C:4](=[O:5])[H:9])[N:6]=[C:7]1[H:10])[H:8]"
C        2.37746652       0.13655513       0.43152875
C        1.19116387       0.08347775       0.24238732
C       -0.17651025       0.03115649      -0.09102589
C       -1.10332182       1.09124608       0.15882385
O       -2.29121153       0.86026190       0.34088785
N       -1.79303529      -1.35871338      -0.04066587
C       -0.75697117      -1.18023034      -0.68801442
H        3.42107528       0.15057426       0.64598412
H       -0.67223294       2.09853722       0.27017298
H       -0.19642267      -1.91286512      -1.27007869
10
Frame=5 idx=009368 GeodesicLength=0.34521898108034343 rxn_smarts="[C:1](#[C:2][c:3]1[c:4]([H:9])[o:5][n:6][c:7]1[H:10])[H:8]>>[C:1](#[C:2][C@:3]1([C:4](=[O:5])[H:9])[N:6]=[C:7]1[H:10])[H:8]"
C        2.38009579       0.13991347       0.43399460
C        1.19318533       0.08007510       0.25227582
C       -0.17479534       0.02553787      -0.08545558
C       -1.10085532       1.09158251       0.13954859
O       -2.28936783       0.84167347       0.31589307
N       -1.77735708      -1.33877973      -0.01147956
C       -0.75912581      -1.17465800      -0.69430162
H        3.42469631       0.15268335       0.64433096
H       -0.67815156       2.09644494       0.28924035
H       -0.21832447      -1.91447297      -1.28404662
10
Frame=6 idx=009368 GeodesicLength=0.4144494746659224 rxn_smarts="[C:1](#[C:2][c:3]1[c:4]([H:9])[o:5][n:6][c:7]1[H:10])[H:8]>>[C:1](#[C:2][C@:3]1([C:4](=[O:5])[H:9])[N:6]=[C:7]1[H:10])[H:8]"
C        2.38218275       0.14269025       0.43889580
C        1.19477661       0.07564245       0.26495701
C       -0.17305433       0.01980503      -0.07929506
C       -1.09782737       1.09196935       0.12084149
O       -2.28710434       0.82421119       0.28934978
N       -1.76269647      -1.31827683       0.01462365
C       -0.76078421      -1.16957487      -0.69941871
H        3.42912615       0.15660468       0.63804269
H       -0.68437264       2.09319788       0.30895627
H       -0.24024616      -1.91626913      -1.29695291
10
Frame=7 idx=009368 GeodesicLength=0.4839961011602455 rxn_smarts="[C:1](#[C:2][c:3]1[c:4]([H:9])[o:5][n:6][c:7]1[H:10])[H:8]>>[C:1](#[C:2][C@:3]1([C:4](=[O:5])[H:9])[N:6]=[C:7]1[H:10])[H:8]"
C        2.38441731       0.14437980       0.44474855
C        1.19680771       0.07153468       0.27633659
C       -0.17100974       0.01432440      -0.07385602
C       -1.09401745       1.09191249       0.10364064
O       -2.28395843       0.80673331       0.26452826
N       -1.74780132      -1.29790856       0.03984859
C       -0.76246462      -1.16471713      -0.70369653
H        3.43348693       0.16148364       0.63294179
H       -0.69170990       2.08958347       0.32603922
H       -0.26375050      -1.91732611      -1.31053109
10
Frame=8 idx=009368 GeodesicLength=0.5534945686735775 rxn_smarts="[C:1](#[C:2][c:3]1[c:4]([H:9])[o:5][n:6][c:7]1[H:10])[H:8]>>[C:1](#[C:2][C@:3]1([C:4](=[O:5])[H:9])[N:6]=[C:7]1[H:10])[H:8]"
C        2.38608781       0.14600648       0.45356362
C        1.19840288       0.06697200       0.29038426
C       -0.16890780       0.00892427      -0.06783690
C       -1.08988450       1.09182866       0.08726232
O       -2.28059078       0.78998262       0.23840336
N       -1.73358682      -1.27726818       0.06251605
C       -0.76340170      -1.16013862      -0.70711073
H        3.43847385       0.16657695       0.62290522
H       -0.69969216       2.08537531       0.34306047
H       -0.28690079      -1.91825948      -1.32314767
10
Frame=9 idx=009368 GeodesicLength=0.6231150000965211 rxn_smarts="[C:1](#[C:2][c:3]1[c:4]([H:9])[o:5][n:6][c:7]1[H:10])[H:8]>>[C:1](#[C:2][C@:3]1([C:4](=[O:5])[H:9])[N:6]=[C:7]1[H:10])[H:8]"
C        2.38777366       0.14717200       0.46335221
C        1.20014244       0.06242934       0.30446867
C       -0.16655560       0.00368890      -0.06216889
C       -1.08519424       1.09150831       0.07194549
O       -2.27661355       0.77340720       0.21297820
N       -1.71943347      -1.25672964       0.08402745
C       -0.76408343      -1.15583522      -0.70987667
H        3.44331682       0.17224971       0.61249942
H       -0.70836521       2.08086792       0.35863346
H       -0.31098740      -1.91875852      -1.33585933
10
Frame=10 idx=009368 GeodesicLength=0.6928527278618509 rxn_smarts="[C:1](#[C:2][c:3]1[c:4]([H:9])[o:5][n:6][c:7]1[H:10])[H:8]>>[C:1](#[C:2][C@:3]1([C:4](=[O:5])[H:9])[N:6]=[C:7]1[H:10])[H:8]"
C        2.38952470       0.14443710       0.47492161
C        1.20201059       0.05574773       0.31905207
C       -0.16388816      -0.00227746      -0.05681970
C       -1.07904374       1.09088777       0.05751534
O       -2.27139960       0.75791030       0.18766186
N       -1.70635025      -1.23586813       0.10399155
C       -0.76526457      -1.15209494      -0.71232781
H        3.44765703       0.18506703       0.60129027
H       -0.71588499       2.07555221       0.37367993
H       -0.33736101      -1.91936161      -1.34896513
10
Frame=11 idx=009368 GeodesicLength=0.7626571132400954 rxn_smarts="[C:1](#[C:2][c:3]1[c:4]([H:9])[o:5][n:6][c:7]1[H:10])[H:8]>>[C:1](#[C:2][C@:3]1([C:4](=[O:5])[H:9])[N:6]=[C:7]1[H:10])[H:8]"
C        2.39053542       0.14447017       0.49047357
C        1.20339802       0.05070688       0.33640469
C       -0.16108648      -0.00737448      -0.05068842
C       -1.07334636       1.09032905       0.04370964
O       -2.26644384       0.74213660       0.16115054
N       -1.69288834      -1.21525162       0.12218675
C       -0.76467580      -1.14830733      -0.71383706
H        3.45202642       0.19195185       0.58360744
H       -0.72562464       2.07034132       0.38799956
H       -0.36189441      -1.91900243      -1.36100672
10
Frame=12 idx=009368 GeodesicLength=0.8325668911200805 rxn_smarts="[C:1](#[C:2][c:3]1[c:4]([H:9])[o:5][n:6][c:7]1[H:10])[H:8]>>[C:1](#[C:2][C@:3]1([C:4](=[O:5])[H:9])[N:6]=[C:7]1[H:10])[H:8]"
C        2.39215340       0.14248970       0.50429210
C        1.20526422       0.04458544       0.35241330
C       -0.15792746      -0.01291732      -0.04534927
C       -1.06660903       1.08940092       0.03082319
O       -2.26032248       0.72673203       0.13642096
N       -1.67970310      -1.19475473       0.13993044
C       -0.76457037      -1.14504844      -0.71508833
H        3.45525672       0.20318466       0.56962466
H       -0.73455937       2.06469580       0.40071766
H       -0.38898254      -1.91836805      -1.37378471
10
Frame=13 idx=009368 GeodesicLength=0.9026253092905204 rxn_smarts="[C:1](#[C:2][c:3]1[c:4]([H:9])[o:5][n:6][c:7]1[H:10])[H:8]>>[C:1](#[C:2][C@:3]1([C:4](=[O:5])[H:9])[N:6]=[C:7]1[H:10])[H:8]"
C        2.39425729       0.13841787       0.51709706
C        1.20752790       0.03732540       0.36751644
C       -0.15440748      -0.01895489      -0.04064584
C       -1.05885111       1.08808373       0.01868631
O       -2.25311240       0.71169415       0.11317939
N       -1.66678075      -1.17438935       0.15713007
C       -0.76484945      -1.14233835      -0.71607124
H        3.45736887       0.21879307       0.55837719
H       -0.74259032       2.05867244       0.41192928
H       -0.41856254      -1.91730406      -1.38719865
10
Frame=14 idx=009368 GeodesicLength=0.9727555061024263 rxn_smarts="[C:1](#[C:2][c:3]1[c:4]([H:9])[o:5][n:6][c:7]1[H:10])[H:8]>>[C:1](#[C:2][C@:3]1([C:4](=[O:5])[H:9])[N:6]=[C:7]1[H:10])[H:8]"
C        2.39643867       0.13487072       0.53011444
C        1.20988115       0.03034377       0.38288719
C       -0.15063775      -0.02489400      -0.03603063
C       -1.05090340       1.08653668       0.00710051
O       -2.24549961       0.69653236       0.09063689
N       -1.65369464      -1.15435337       0.17354516
C       -0.76457220      -1.13994931      -0.71657332
H        3.45886806       0.23369081       0.54703807
H       -0.75101527       2.05259447       0.42188982
H       -0.44886501      -1.91537213      -1.40060813
10
Frame=15 idx=009368 GeodesicLength=1.042955104360958 rxn_smarts="[C:1](#[C:2][c:3]1[c:4]([H:9])[o:5][n:6][c:7]1[H:10])[H:8]>>[C:1](#[C:2][C@:3]1([C:4](=[O:5])[H:9])[N:6]=[C:7]1[H:10])[H:8]"
C        2.39884544       0.13158086       0.54265387
C        1.21245504       0.02354677       0.39786896
C       -0.14659802      -0.03083269      -0.03174091
C       -1.04272134       1.08468248      -0.00396193
O       -2.23741289       0.68113981       0.06942818
N       -1.64035024      -1.13475834       0.18946640
C       -0.76398030      -1.13795591      -0.71670600
H        3.45977800       0.24853030       0.53706427
H       -0.75955496       2.04653090       0.43019980
H       -0.48046072      -1.91246418      -1.41427264
10
Frame=16 idx=009368 GeodesicLength=1.1132318754946584 rxn_smarts="[C:1](#[C:2][c:3]1[c:4]([H:9])[o:5][n:6][c:7]1[H:10])[H:8]>>[C:1](#[C:2][C@:3]1([C:4](=[O:5])[H:9])[N:6]=[C:7]1[H:10])[H:8]"
C        2.40137411       0.12896996       0.55505541
C        1.21517974       0.01719159       0.41269584
C       -0.14231377      -0.03668861      -0.02765611
C       -1.03448716       1.08251507      -0.01456045
O       -2.22900063       0.66537028       0.04948198
N       -1.62665468      -1.11568083       0.20485743
C       -0.76290056      -1.13631506      -0.71648034
H        3.46024588       0.26242970       0.52788318
H       -0.76838839       2.04057688       0.43680698
H       -0.51305451      -1.90836899      -1.42808392
