11
Frame=0 idx=004701 GeodesicLength=0.0 rxn_smarts="[C:1]([n:2]1[n:3][c:4]([H:10])[c:5]([H:11])[n:6]1)([H:7])([H:8])[H:9]>>[C:1]([N:2]=[N:3][C:4](=[C:5]=[N:6][H:11])[H:10])([H:7])([H:8])[H:9]"
C       -1.69731948      -0.03773190       0.16643239
N       -0.26194967       0.01507253       0.01319960
N        0.43318603       1.11689553       0.09529295
C        1.69921450       0.75399103       0.01437065
C        1.84259931      -0.66509973      -0.00851778
N        0.51774221      -1.09049865       0.01404235
H       -1.97395447      -0.03700659       1.22153399
H       -2.05458209      -0.95250481      -0.30053324
H       -2.13178097       0.82853273      -0.32627589
H        2.47608930       1.50145614       0.02079913
H        1.15075529      -1.43310633      -0.91034416
11
Frame=1 idx=004701 GeodesicLength=0.10758555555318618 rxn_smarts="[C:1]([n:2]1[n:3][c:4]([H:10])[c:5]([H:11])[n:6]1)([H:7])([H:8])[H:9]>>[C:1]([N:2]=[N:3][C:4](=[C:5]=[N:6][H:11])[H:10])([H:7])([H:8])[H:9]"
C       -1.70312561      -0.03072226       0.16899369
N       -0.26646501       0.01196790       0.02302946
N        0.42397109       1.11595606       0.09225762
C        1.69424838       0.75746253       0.00248958
C        1.84427176      -0.65672904      -0.01874882
N        0.53735312      -1.10958681       0.01711389
H       -1.98408732      -0.03789853       1.22295692
H       -2.06537447      -0.93861809      -0.30771931
H       -2.13123797       0.84278433      -0.31685062
H        2.46971416       1.50584832       0.02717211
H        1.18073188      -1.46046442      -0.91069451
11
Frame=2 idx=004701 GeodesicLength=0.21517854110356466 rxn_smarts="[C:1]([n:2]1[n:3][c:4]([H:10])[c:5]([H:11])[n:6]1)([H:7])([H:8])[H:9]>>[C:1]([N:2]=[N:3][C:4](=[C:5]=[N:6][H:11])[H:10])([H:7])([H:8])[H:9]"
C       -1.70918971      -0.02347152       0.17154639
N       -0.27126274       0.00913198       0.03354775
N        0.41466335       1.11493599       0.09060410
C        1.68897680       0.76084823      -0.00976914
C        1.84556144      -0.64842126      -0.02942500
N        0.55751674      -1.12884387       0.02010885
H       -1.99499641      -0.03922204       1.22414299
H       -2.07612064      -0.92404145      -0.31563068
H       -2.13071217       0.85748716      -0.30696562
H        2.46301062       1.50982139       0.03213816
H        1.21255273      -1.48822462      -0.91029779
11
Frame=3 idx=004701 GeodesicLength=0.3227794894527266 rxn_smarts="[C:1]([n:2]1[n:3][c:4]([H:10])[c:5]([H:11])[n:6]1)([H:7])([H:8])[H:9]>>[C:1]([N:2]=[N:3][C:4](=[C:5]=[N:6][H:11])[H:10])([H:7])([H:8])[H:9]"
C       -1.71553835      -0.01595980       0.17410838
N       -0.27638742       0.00655441       0.04467313
N        0.40525007       1.11383051       0.09024176
C        1.68336034       0.76409036      -0.02208311
C        1.84640304      -0.64022869      -0.04050467
N        0.57821412      -1.14831076       0.02285623
H       -2.00665022      -0.04093326       1.22510234
H       -2.08687433      -0.90873758      -0.32420344
H       -2.13025171       0.87264589      -0.29657174
H        2.45600004       1.51335901       0.03552336
H        1.24647441      -1.51631009      -0.90914224
11
Frame=4 idx=004701 GeodesicLength=0.4303894501453388 rxn_smarts="[C:1]([n:2]1[n:3][c:4]([H:10])[c:5]([H:11])[n:6]1)([H:7])([H:8])[H:9]>>[C:1]([N:2]=[N:3][C:4](=[C:5]=[N:6][H:11])[H:10])([H:7])([H:8])[H:9]"
C       -1.72220024      -0.00816530       0.17670541
N       -0.28188858       0.00422470       0.05628835
N        0.39571732       1.11264135       0.09102071
C        1.67736241       0.76713714      -0.03426538
C        1.84673291      -0.63219547      -0.05199436
N        0.59942396      -1.16803155       0.02518560
H       -2.01899257      -0.04296404       1.22586450
H       -2.09770580      -0.89268010      -0.33333785
H       -2.12991562       0.88825884      -0.28562215
H        2.44870709       1.51644956       0.03733827
H        1.28275913      -1.54467514      -0.90718310
11
Frame=5 idx=004701 GeodesicLength=0.538004477067886 rxn_smarts="[C:1]([n:2]1[n:3][c:4]([H:10])[c:5]([H:11])[n:6]1)([H:7])([H:8])[H:9]>>[C:1]([N:2]=[N:3][C:4](=[C:5]=[N:6][H:11])[H:10])([H:7])([H:8])[H:9]"
C       -1.72919688      -0.00006389       0.17935826
N       -0.28780320       0.00213526       0.06834617
N        0.38604693       1.11134895       0.09287302
C        1.67094287       0.76996826      -0.04637233
C        1.84648456      -0.62435540      -0.06404563
N        0.62115888      -1.18803405       0.02701204
H       -2.03201075      -0.04527037       1.22642806
H       -2.10864530      -0.87581915      -0.34297518
H       -2.12973680       0.90432992      -0.27406847
H        2.44115230       1.51909703       0.03773055
H        1.32160739      -1.57333655      -0.90428649
11
Frame=6 idx=004701 GeodesicLength=0.6456247980524699 rxn_smarts="[C:1]([n:2]1[n:3][c:4]([H:10])[c:5]([H:11])[n:6]1)([H:7])([H:8])[H:9]>>[C:1]([N:2]=[N:3][C:4](=[C:5]=[N:6][H:11])[H:10])([H:7])([H:8])[H:9]"
C       -1.73656427       0.00837147       0.18210269
N       -0.29418895       0.00027824       0.08069009
N        0.37622500       1.10996265       0.09559444
C        1.66407101       0.77253298      -0.05832031
C        1.84558678      -0.61675180      -0.07672779
N        0.64339077      -1.20836811       0.02812935
H       -2.04562539      -0.04774814       1.22685097
H       -2.11979359      -0.85814334      -0.35296699
H       -2.12978418       0.92085244      -0.26187626
H        2.43334558       1.52125731       0.03687053
H        1.36333724      -1.60224370      -0.90034673
11
Frame=7 idx=004701 GeodesicLength=0.7532386312235003 rxn_smarts="[C:1]([n:2]1[n:3][c:4]([H:10])[c:5]([H:11])[n:6]1)([H:7])([H:8])[H:9]>>[C:1]([N:2]=[N:3][C:4](=[C:5]=[N:6][H:11])[H:10])([H:7])([H:8])[H:9]"
C       -1.74433147       0.01717007       0.18496158
N       -0.30108705      -0.00135347       0.09327218
N        0.36623720       1.10845550       0.09912927
C        1.65670852       0.77480625      -0.07018527
C        1.84395760      -0.60942546      -0.09026149
N        0.66613186      -1.22906501       0.02842591
H       -2.05983119      -0.05035737       1.22713748
H       -2.13119816      -0.83959148      -0.36325913
H       -2.13008587       0.93784084      -0.24898979
H        2.42529302       1.52290501       0.03491468
H        1.40820555      -1.63138490      -0.89514543
11
Frame=8 idx=004701 GeodesicLength=0.8608551262145374 rxn_smarts="[C:1]([n:2]1[n:3][c:4]([H:10])[c:5]([H:11])[n:6]1)([H:7])([H:8])[H:9]>>[C:1]([N:2]=[N:3][C:4](=[C:5]=[N:6][H:11])[H:10])([H:7])([H:8])[H:9]"
C       -1.75253401       0.02635624       0.18793855
N       -0.30853338      -0.00277287       0.10614637
N        0.35609370       1.10680327       0.10365372
C        1.64882077       0.77679017      -0.08208906
C        1.84148902      -0.60243242      -0.10493476
N        0.68940353      -1.25017049       0.02785571
H       -2.07472302      -0.05317414       1.22725109
H       -2.14287681      -0.82005425      -0.37395176
H       -2.13062432       0.95536295      -0.23531038
H        2.41703866       1.52407206       0.03180457
H        1.45644586      -1.66078051      -0.88836404
11
Frame=9 idx=004701 GeodesicLength=0.9684433635701087 rxn_smarts="[C:1]([n:2]1[n:3][c:4]([H:10])[c:5]([H:11])[n:6]1)([H:7])([H:8])[H:9]>>[C:1]([N:2]=[N:3][C:4](=[C:5]=[N:6][H:11])[H:10])([H:7])([H:8])[H:9]"
C       -1.76122630       0.03599659       0.19114451
N       -0.31663672      -0.00399549       0.11875991
N        0.34571630       1.10502735       0.10822123
C        1.64036937       0.77826639      -0.09367353
C        1.83810497      -0.59577934      -0.12072083
N        0.71310149      -1.27178480       0.02575446
H       -2.08988638      -0.05571655       1.22745319
H       -2.15514613      -0.79965452      -0.38440033
H       -2.13161599       0.97331725      -0.22091217
H        2.40842620       1.52434431       0.02826420
H        1.50879320      -1.69002119      -0.87989064
11
Frame=10 idx=004701 GeodesicLength=1.0760575330770386 rxn_smarts="[C:1]([n:2]1[n:3][c:4]([H:10])[c:5]([H:11])[n:6]1)([H:7])([H:8])[H:9]>>[C:1]([N:2]=[N:3][C:4](=[C:5]=[N:6][H:11])[H:10])([H:7])([H:8])[H:9]"
C       -1.77044919       0.04610015       0.19455130
N       -0.32541710      -0.00505614       0.13142313
N        0.33513768       1.10308587       0.11347052
C        1.63134856       0.77934471      -0.10524286
C        1.83362872      -0.58954309      -0.13827479
N        0.73727573      -1.29399902       0.02222795
H       -2.10563718      -0.05821487       1.22763069
H       -2.16793419      -0.77823900      -0.39494215
H       -2.13294002       0.99183469      -0.20569618
H        2.39963873       1.52391606       0.02402549
H        1.56534826      -1.71922935      -0.86917309
11
Frame=11 idx=004701 GeodesicLength=1.183631188819622 rxn_smarts="[C:1]([n:2]1[n:3][c:4]([H:10])[c:5]([H:11])[n:6]1)([H:7])([H:8])[H:9]>>[C:1]([N:2]=[N:3][C:4](=[C:5]=[N:6][H:11])[H:10])([H:7])([H:8])[H:9]"
C       -1.78023190       0.05669743       0.19818713
N       -0.33490934      -0.00596465       0.14421185
N        0.32436749       1.10092967       0.11949451
C        1.62170118       0.77998941      -0.11691223
C        1.82783650      -0.58375172      -0.15842763
N        0.76197874      -1.31680815       0.01711526
H       -2.12205888      -0.06057955       1.22776795
H       -2.18125440      -0.75576717      -0.40549689
H       -2.13456429       1.01089661      -0.18968146
H        2.39069678       1.52260914       0.01935673
H        1.62643812      -1.74825101      -0.85561522
11
Frame=12 idx=004701 GeodesicLength=1.2918469534417332 rxn_smarts="[C:1]([n:2]1[n:3][c:4]([H:10])[c:5]([H:11])[n:6]1)([H:7])([H:8])[H:9]>>[C:1]([N:2]=[N:3][C:4](=[C:5]=[N:6][H:11])[H:10])([H:7])([H:8])[H:9]"
C       -1.79085540       0.06778637       0.20219798
N       -0.34530347      -0.00677577       0.15709190
N        0.31349577       1.09892059       0.12587692
C        1.61173965       0.78043940      -0.12869510
C        1.82059601      -0.57844083      -0.18211904
N        0.78697713      -1.34071883       0.00991617
H       -2.13964251      -0.06250275       1.22838314
H       -2.19546295      -0.73269104      -0.41582613
H       -2.13654775       1.03065597      -0.17303930
H        2.38214681       1.52064405       0.01502065
H        1.69285672      -1.77731717      -0.83880719
11
Frame=13 idx=004701 GeodesicLength=1.3988725033791785 rxn_smarts="[C:1]([n:2]1[n:3][c:4]([H:10])[c:5]([H:11])[n:6]1)([H:7])([H:8])[H:9]>>[C:1]([N:2]=[N:3][C:4](=[C:5]=[N:6][H:11])[H:10])([H:7])([H:8])[H:9]"
C       -1.80145238       0.07944732       0.20617096
N       -0.35598888      -0.00735327       0.17166576
N        0.30243995       1.09588837       0.13560398
C        1.60001673       0.77993546      -0.14156757
C        1.81039789      -0.57326516      -0.21309377
N        0.81386867      -1.36395865       0.00274424
H       -2.15796147      -0.06512694       1.22745906
H       -2.20873046      -0.70731112      -0.42722295
H       -2.13822594       1.05074957      -0.15525883
H        2.37257918       1.51600764       0.00966197
H        1.76305671      -1.80501320      -0.81616286
11
Frame=14 idx=004701 GeodesicLength=1.5061998561565195 rxn_smarts="[C:1]([n:2]1[n:3][c:4]([H:10])[c:5]([H:11])[n:6]1)([H:7])([H:8])[H:9]>>[C:1]([N:2]=[N:3][C:4](=[C:5]=[N:6][H:11])[H:10])([H:7])([H:8])[H:9]"
C       -1.81300323       0.09168829       0.21058693
N       -0.36764446      -0.00785368       0.18683083
N        0.29135074       1.09271730       0.14636801
C        1.58767615       0.77904135      -0.15503119
C        1.79677034      -0.56829404      -0.25340006
N        0.84171335      -1.38791391      -0.00627601
H       -2.17773202      -0.06717172       1.22667770
H       -2.22281517      -0.68107030      -0.43828373
H       -2.14030543       1.07143311      -0.13677565
H        2.36391108       1.50918528       0.00610272
H        1.84007865      -1.83176167      -0.78679955
11
Frame=15 idx=004701 GeodesicLength=1.6138727756163025 rxn_smarts="[C:1]([n:2]1[n:3][c:4]([H:10])[c:5]([H:11])[n:6]1)([H:7])([H:8])[H:9]>>[C:1]([N:2]=[N:3][C:4](=[C:5]=[N:6][H:11])[H:10])([H:7])([H:8])[H:9]"
C       -1.82586677       0.10477012       0.21598775
N       -0.38072883      -0.00837653       0.20080135
N        0.27979791       1.08927124       0.15476055
C        1.57503475       0.77678456      -0.16819627
C        1.77852424      -0.56418126      -0.30366611
N        0.86946155      -1.41322263      -0.02150717
H       -2.19777107      -0.06703732       1.22744734
H       -2.23926355      -0.65451744      -0.44675030
H       -2.14349881       1.09263561      -0.11787162
H        2.35658929       1.49830265       0.00692444
H        1.92772129      -1.85442900      -0.74792995
11
Frame=16 idx=004701 GeodesicLength=1.7196576481114818 rxn_smarts="[C:1]([n:2]1[n:3][c:4]([H:10])[c:5]([H:11])[n:6]1)([H:7])([H:8])[H:9]>>[C:1]([N:2]=[N:3][C:4](=[C:5]=[N:6][H:11])[H:10])([H:7])([H:8])[H:9]"
C       -1.83918547       0.11885746       0.22248119
N       -0.39515886      -0.00968401       0.21296481
N        0.26783959       1.08381255       0.16091836
C        1.56109934       0.77103012      -0.18182642
C        1.75475530      -0.56203048      -0.36034373
N        0.89538190      -1.44030543      -0.04788963
H       -2.21623360      -0.06433342       1.22999056
H       -2.25809201      -0.62667402      -0.45215257
H       -2.14653935       1.11423101      -0.09850450
H        2.34918515       1.48054134       0.01034631
H        2.02694799      -1.86544511      -0.69598439
