13
Frame=0 idx=009972 GeodesicLength=0.0 rxn_smarts="[C:1]([C@@:2]([O:3][H:12])([C:4](=[O:5])[C:6]#[C:7][H:13])[H:11])([H:8])([H:9])[H:10]>>[C:1]([C:2](=[O:3])[C@@:4]([O:5][H:12])([C:6]#[C:7][H:13])[H:11])([H:8])([H:9])[H:10]"
C       -1.24204870       1.08183431       0.35257134
C       -0.89753090      -0.33814385      -0.00620539
O       -1.76719211      -1.16093046      -0.46880092
C        0.45250773      -0.75670718      -0.36484860
O        0.43211364      -1.89560569      -0.96592479
C        1.66996770      -0.06781603      -0.10745817
C        2.68456574       0.54158679       0.06943253
H       -2.07950104       1.08869368       1.04780101
H       -1.55129524       1.59571115      -0.55821972
H       -0.39564690       1.60918679       0.79325735
H       -0.26876696      -0.79321075       1.00639988
H       -0.62935637      -1.98212741      -1.02170905
H        3.59218338       1.07752865       0.22370448
13
Frame=1 idx=009972 GeodesicLength=0.06586961124705074 rxn_smarts="[C:1]([C@@:2]([O:3][H:12])([C:4](=[O:5])[C:6]#[C:7][H:13])[H:11])([H:8])([H:9])[H:10]>>[C:1]([C:2](=[O:3])[C@@:4]([O:5][H:12])([C:6]#[C:7][H:13])[H:11])([H:8])([H:9])[H:10]"
C       -1.23880692       1.08034188       0.35284068
C       -0.89916545      -0.34329397       0.00619451
O       -1.76791456      -1.15906456      -0.47328143
C        0.45477484      -0.76865289      -0.34579634
O        0.43108188      -1.89401257      -0.97279676
C        1.66760108      -0.06172919      -0.11108499
C        2.67817246       0.55731210       0.05467757
H       -2.09372482       1.09446976       1.02644153
H       -1.51981965       1.59648261      -0.56586771
H       -0.39966839       1.60080293       0.81501251
H       -0.25884349      -0.80380264       1.02074579
H       -0.64500861      -1.97925996      -1.02738395
H        3.59132163       1.08040650       0.22029860
13
Frame=2 idx=009972 GeodesicLength=0.13186003646559644 rxn_smarts="[C:1]([C@@:2]([O:3][H:12])([C:4](=[O:5])[C:6]#[C:7][H:13])[H:11])([H:8])([H:9])[H:10]>>[C:1]([C:2](=[O:3])[C@@:4]([O:5][H:12])([C:6]#[C:7][H:13])[H:11])([H:8])([H:9])[H:10]"
C       -1.23524577       1.07876134       0.35311965
C       -0.90075841      -0.34852528       0.01856158
O       -1.76853277      -1.15677478      -0.47812353
C        0.45713561      -0.78084820      -0.32660257
O        0.43043303      -1.89231103      -0.97898436
C        1.66477582      -0.05596043      -0.11406028
C        2.67093151       0.57282635       0.04136244
H       -2.10716994       1.10042547       1.00443547
H       -1.48743894       1.59696058      -0.57284699
H       -0.40400138       1.59225003       0.83680421
H       -0.24911381      -0.81473842       1.03521123
H       -0.66058327      -1.97581779      -1.03369782
H        3.58956833       1.08375216       0.21482097
13
Frame=3 idx=009972 GeodesicLength=0.1978808310023835 rxn_smarts="[C:1]([C@@:2]([O:3][H:12])([C:4](=[O:5])[C:6]#[C:7][H:13])[H:11])([H:8])([H:9])[H:10]>>[C:1]([C:2](=[O:3])[C@@:4]([O:5][H:12])([C:6]#[C:7][H:13])[H:11])([H:8])([H:9])[H:10]"
C       -1.23147381       1.07711182       0.35332923
C       -0.90226434      -0.35378033       0.03089226
O       -1.76906484      -1.15431697      -0.48263085
C        0.45952624      -0.79298114      -0.30792411
O        0.43004578      -1.89051463      -0.98463366
C        1.66143084      -0.05007117      -0.11762239
C        2.66312465       0.58799734       0.02837085
H       -2.11950029       1.10646380       0.98225945
H       -1.45501977       1.59691825      -0.57914867
H       -0.40857950       1.58386506       0.85787763
H       -0.23887289      -0.82562402       1.04952934
H       -0.67620840      -1.97199704      -1.04016710
H        3.58685635       1.08692902       0.20986801
13
Frame=4 idx=009972 GeodesicLength=0.26402022528223396 rxn_smarts="[C:1]([C@@:2]([O:3][H:12])([C:4](=[O:5])[C:6]#[C:7][H:13])[H:11])([H:8])([H:9])[H:10]>>[C:1]([C:2](=[O:3])[C@@:4]([O:5][H:12])([C:6]#[C:7][H:13])[H:11])([H:8])([H:9])[H:10]"
C       -1.22745012       1.07540069       0.35354922
C       -0.90377991      -0.35905283       0.04307300
O       -1.76952971      -1.15144042      -0.48747871
C        0.46194126      -0.80516667      -0.28941624
O        0.43003174      -1.88874314      -0.98950750
C        1.65769380      -0.04456924      -0.12053427
C        2.65469201       0.60269352       0.01687456
H       -2.13100428       1.11262738       0.95958958
H       -1.42197961       1.59662280      -0.58470021
H       -0.41347398       1.57537344       0.87885621
H       -0.22872900      -0.83679427       1.06376687
H       -0.69178866      -1.96771866      -1.04709571
H        3.58337646       1.09076740       0.20302320
13
Frame=5 idx=009972 GeodesicLength=0.3303253389802366 rxn_smarts="[C:1]([C@@:2]([O:3][H:12])([C:4](=[O:5])[C:6]#[C:7][H:13])[H:11])([H:8])([H:9])[H:10]>>[C:1]([C:2](=[O:3])[C@@:4]([O:5][H:12])([C:6]#[C:7][H:13])[H:11])([H:8])([H:9])[H:10]"
C       -1.22310138       1.07363366       0.35381551
C       -0.90534199      -0.36434591       0.05505629
O       -1.76992716      -1.14803561      -0.49287993
C        0.46434113      -0.81747377      -0.27099840
O        0.43039940      -1.88716352      -0.99346957
C        1.65365998      -0.03974916      -0.12236459
C        2.64549710       0.61710152       0.00673885
H       -2.14170911       1.11896814       0.93627208
H       -1.38799865       1.59619790      -0.58942270
H       -0.41867094       1.56662478       0.89997638
H       -0.21887555      -0.84839035       1.07792325
H       -0.70733005      -1.96295249      -1.05453453
H        3.57905722       1.09558482       0.19388735
13
Frame=6 idx=009972 GeodesicLength=0.3968382007701307 rxn_smarts="[C:1]([C@@:2]([O:3][H:12])([C:4](=[O:5])[C:6]#[C:7][H:13])[H:11])([H:8])([H:9])[H:10]>>[C:1]([C:2](=[O:3])[C@@:4]([O:5][H:12])([C:6]#[C:7][H:13])[H:11])([H:8])([H:9])[H:10]"
C       -1.21836812       1.07181115       0.35416716
C       -0.90700144      -0.36966958       0.06680031
O       -1.77024594      -1.14399691      -0.49907380
C        0.46668244      -0.82997911      -0.25253680
O        0.43117891      -1.88590600      -0.99641463
C        1.64943365      -0.03587698      -0.12261677
C        2.63538615       0.63140079      -0.00198701
H       -2.15165992       1.12555250       0.91210669
H       -1.35272156       1.59574876      -0.59322231
H       -0.42420780       1.55746020       0.92150304
H       -0.20955534      -0.86057131       1.09203437
H       -0.72279786      -1.95763424      -1.06255879
H        3.57387684       1.10166074       0.18179854
13
Frame=7 idx=009972 GeodesicLength=0.4635090844723013 rxn_smarts="[C:1]([C@@:2]([O:3][H:12])([C:4](=[O:5])[C:6]#[C:7][H:13])[H:11])([H:8])([H:9])[H:10]>>[C:1]([C:2](=[O:3])[C@@:4]([O:5][H:12])([C:6]#[C:7][H:13])[H:11])([H:8])([H:9])[H:10]"
C       -1.21309252       1.06993791       0.35463419
C       -0.90879124      -0.37503801       0.07828855
O       -1.77050315      -1.13917268      -0.50621207
C        0.46890140      -0.84282887      -0.23390968
O        0.43229929      -1.88508610      -0.99827797
C        1.64513942      -0.03328876      -0.12089736
C        2.62427601       0.64556612      -0.00946547
H       -2.16074940       1.13254153       0.88688898
H       -1.31570242       1.59532180      -0.59598788
H       -0.43001987       1.54769926       0.94365002
H       -0.20097498      -0.87350668       1.10613210
H       -0.73821647      -1.95179453      -1.07128133
H        3.56743393       1.10964901       0.16643793
13
Frame=8 idx=009972 GeodesicLength=0.530403493094987 rxn_smarts="[C:1]([C@@:2]([O:3][H:12])([C:4](=[O:5])[C:6]#[C:7][H:13])[H:11])([H:8])([H:9])[H:10]>>[C:1]([C:2](=[O:3])[C@@:4]([O:5][H:12])([C:6]#[C:7][H:13])[H:11])([H:8])([H:9])[H:10]"
C       -1.20752276       1.06803606       0.35512674
C       -0.91066629      -0.38039211       0.08952874
O       -1.77067942      -1.13392109      -0.51364091
C        0.47100803      -0.85565017      -0.21565448
O        0.43374004      -1.88462532      -0.99934136
C        1.64071439      -0.03128209      -0.11848213
C        2.61253267       0.65950225      -0.01633448
H       -2.16880024       1.13975544       0.86120365
H       -1.27808626       1.59466398      -0.59779346
H       -0.43614890       1.53780055       0.96561456
H       -0.19247456      -0.88673708       1.12001631
H       -0.75365718      -1.94557678      -1.08024355
H        3.56004047       1.11842636       0.15000038
13
Frame=9 idx=009972 GeodesicLength=0.5975461629959744 rxn_smarts="[C:1]([C@@:2]([O:3][H:12])([C:4](=[O:5])[C:6]#[C:7][H:13])[H:11])([H:8])([H:9])[H:10]>>[C:1]([C:2](=[O:3])[C@@:4]([O:5][H:12])([C:6]#[C:7][H:13])[H:11])([H:8])([H:9])[H:10]"
C       -1.20155444       1.06610804       0.35568600
C       -0.91266977      -0.38574990       0.10050618
O       -1.77075071      -1.12808820      -0.52163254
C        0.47297031      -0.86860344      -0.19750127
O        0.43552349      -1.88459394      -0.99950994
C        1.63626678      -0.03016849      -0.11474482
C        2.60000934       0.67325330      -0.02234970
H       -2.17582582       1.14731633       0.83480188
H       -1.23940573       1.59385264      -0.59854778
H       -0.44261926       1.52758577       0.98770625
H       -0.18439359      -0.90047432       1.13379150
H       -0.76906616      -1.93891930      -1.08968715
H        3.55151556       1.12848149       0.13148139
13
Frame=10 idx=009972 GeodesicLength=0.6649273422474697 rxn_smarts="[C:1]([C@@:2]([O:3][H:12])([C:4](=[O:5])[C:6]#[C:7][H:13])[H:11])([H:8])([H:9])[H:10]>>[C:1]([C:2](=[O:3])[C@@:4]([O:5][H:12])([C:6]#[C:7][H:13])[H:11])([H:8])([H:9])[H:10]"
C       -1.19501318       1.06416049       0.35635544
C       -0.91482556      -0.39112857       0.11118595
O       -1.77068718      -1.12149633      -0.53046101
C        0.47474957      -0.88188320      -0.17922585
O        0.43763457      -1.88511910      -0.99872334
C        1.63192282      -0.03030160      -0.10917157
C        2.58649946       0.68690041      -0.02761369
H       -2.18173295       1.15539872       0.80740214
H       -1.19908876       1.59297727      -0.59810039
H       -0.44940892       1.51683535       1.01024258
H       -0.17703671      -0.91493271       1.14753594
H       -0.78439148      -1.93178495      -1.09968134
H        3.54137833       1.14037422       0.11025514
13
Frame=11 idx=009972 GeodesicLength=0.7327780913597187 rxn_smarts="[C:1]([C@@:2]([O:3][H:12])([C:4](=[O:5])[C:6]#[C:7][H:13])[H:11])([H:8])([H:9])[H:10]>>[C:1]([C:2](=[O:3])[C@@:4]([O:5][H:12])([C:6]#[C:7][H:13])[H:11])([H:8])([H:9])[H:10]"
C       -1.18779450       1.06218925       0.35716252
C       -0.91715890      -0.39653280       0.12152942
O       -1.77039651      -1.11402267      -0.54035073
C        0.47630250      -0.89561708      -0.16061883
O        0.44013103      -1.88627991      -0.99688703
C        1.62777761      -0.03189519      -0.10132614
C        2.57189037       0.70033972      -0.03171337
H       -2.18640160       1.16409677       0.77882783
H       -1.15679847       1.59203327      -0.59630206
H       -0.45656102       1.50544149       1.03337000
H       -0.17069095      -0.93025991       1.16133249
H       -0.79959333      -1.92401332      -1.11041161
H        3.52929376       1.15452038       0.08538751
13
Frame=12 idx=009972 GeodesicLength=0.8009828791824476 rxn_smarts="[C:1]([C@@:2]([O:3][H:12])([C:4](=[O:5])[C:6]#[C:7][H:13])[H:11])([H:8])([H:9])[H:10]>>[C:1]([C:2](=[O:3])[C@@:4]([O:5][H:12])([C:6]#[C:7][H:13])[H:11])([H:8])([H:9])[H:10]"
C       -1.18002563       1.06022186       0.35805859
C       -0.91962701      -0.40190847       0.13153466
O       -1.76985725      -1.10583000      -0.55092673
C        0.47765637      -0.90959081      -0.14196212
O        0.44298698      -1.88793700      -0.99422397
C        1.62379730      -0.03452317      -0.09191365
C        2.55640757       0.71347622      -0.03514342
H       -2.18971135       1.17334746       0.74939429
H       -1.11316823       1.59088780      -0.59317870
H       -0.46410251       1.49365065       1.05666497
H       -0.16497756      -0.94619928       1.17505896
H       -0.81465665      -1.91584105      -1.12156834
H        3.51527798       1.17024582       0.05820547
13
Frame=13 idx=009972 GeodesicLength=0.8695227294668705 rxn_smarts="[C:1]([C@@:2]([O:3][H:12])([C:4](=[O:5])[C:6]#[C:7][H:13])[H:11])([H:8])([H:9])[H:10]>>[C:1]([C:2](=[O:3])[C@@:4]([O:5][H:12])([C:6]#[C:7][H:13])[H:11])([H:8])([H:9])[H:10]"
C       -1.17189058       1.05826689       0.35899760
C       -0.92220972      -0.40720512       0.14118893
O       -1.76904879      -1.09710889      -0.56190048
C        0.47883873      -0.92358018      -0.12346825
O        0.44622761      -1.88995333      -0.99090653
C        1.61992341      -0.03774402      -0.08152188
C        2.54037740       0.72612121      -0.03772842
H       -2.19166056       1.18298301       0.71944943
H       -1.06888117       1.58941210      -0.58881253
H       -0.47208637       1.48174161       1.07971770
H       -0.15962340      -0.96249456       1.18862904
H       -0.82957993      -1.90735463      -1.13298459
H        3.49961339       1.18691591       0.02933995
13
Frame=14 idx=009972 GeodesicLength=0.9383589700214765 rxn_smarts="[C:1]([C@@:2]([O:3][H:12])([C:4](=[O:5])[C:6]#[C:7][H:13])[H:11])([H:8])([H:9])[H:10]>>[C:1]([C:2](=[O:3])[C@@:4]([O:5][H:12])([C:6]#[C:7][H:13])[H:11])([H:8])([H:9])[H:10]"
C       -1.16349033       1.05633906       0.35993127
C       -0.92485782      -0.41238496       0.15050003
O       -1.76799189      -1.08801733      -0.57295862
C        0.47988806      -0.93743075      -0.10535260
O        0.44980455      -1.89224981      -0.98711031
C        1.61611442      -0.04124757      -0.07074786
C        2.52400488       0.73824417      -0.03994993
H       -2.19221701       1.19290143       0.68929236
H       -1.02447666       1.58752512      -0.58332334
H       -0.48045752       1.46992059       1.10219484
H       -0.15429965      -0.97892553       1.20195641
H       -0.84444884      -1.89872092      -1.14443718
H        3.48242780       1.20404650       0.00000493
13
Frame=15 idx=009972 GeodesicLength=1.0074565179404709 rxn_smarts="[C:1]([C@@:2]([O:3][H:12])([C:4](=[O:5])[C:6]#[C:7][H:13])[H:11])([H:8])([H:9])[H:10]>>[C:1]([C:2](=[O:3])[C@@:4]([O:5][H:12])([C:6]#[C:7][H:13])[H:11])([H:8])([H:9])[H:10]"
C       -1.15493336       1.05444475       0.36083539
C       -0.92756066      -0.41741808       0.15944898
O       -1.76668352      -1.07864000      -0.58400867
C        0.48083125      -0.95103990      -0.08767255
O        0.45374581      -1.89473409      -0.98293065
C        1.61234776      -0.04483678      -0.05979204
C        2.50748009       0.74978736      -0.04163009
H       -2.19144495       1.20298985       0.65912426
H       -0.98032859       1.58520808      -0.57679935
H       -0.48922265       1.45831923       1.12392368
H       -0.14891212      -0.99538320       1.21500954
H       -0.85927369      -1.89000749      -1.15586128
H        3.46395462       1.22131026      -0.02964722
13
Frame=16 idx=009972 GeodesicLength=1.0767751348569707 rxn_smarts="[C:1]([C@@:2]([O:3][H:12])([C:4](=[O:5])[C:6]#[C:7][H:13])[H:11])([H:8])([H:9])[H:10]>>[C:1]([C:2](=[O:3])[C@@:4]([O:5][H:12])([C:6]#[C:7][H:13])[H:11])([H:8])([H:9])[H:10]"
C       -1.14629452       1.05259181       0.36169006
C       -0.93030294      -0.42228137       0.16802059
O       -1.76513472      -1.06904180      -0.59497725
C        0.48169349      -0.96433926      -0.07047398
O        0.45805807      -1.89734452      -0.97845056
C        1.60860961      -0.04837470      -0.04882784
C        2.49095489       0.76073975      -0.04276964
H       -2.18940958       1.21315948       0.62911312
H       -0.93672027       1.58246786      -0.56933581
H       -0.49835467       1.44703170       1.14478445
H       -0.14337387      -1.01178233       1.22776432
H       -0.87409316      -1.88129905      -1.16718364
H        3.44436767       1.23847245      -0.05935381
