13
Frame=0 idx=005903 GeodesicLength=0.0 rxn_smarts="[C:1]([C:2]([C@@:3]1([H:11])[C:4]([H:12])([H:13])[O:5]1)([H:9])[H:10])([H:6])([H:7])[H:8]>>[C:1](=[C:2]([H:9])[H:10])([H:6])[H:7].[C:3]1([H:8])([H:11])[C:4]([H:12])([H:13])[O:5]1"
C       -1.62996279       0.50088530       0.70646828
C       -1.14538534      -0.65912348       0.03527699
C        0.76241085      -0.37708931      -0.74107935
C        1.76508627       0.46481269      -0.08595215
O        1.69787368      -0.92979985       0.16036346
H       -2.28562617       1.18567203       0.19133353
H       -1.43754984       0.63124073       1.75960774
H       -0.38234490       0.35486751      -0.05516694
H       -1.58537514      -0.94050634      -0.91440864
H       -0.74266964      -1.47749173       0.62118906
H        0.88305373      -0.65573961      -1.78873112
H        2.63399659       0.80617608      -0.64084014
H        1.46649266       1.09609594       0.75193931
13
Frame=1 idx=005903 GeodesicLength=0.10148630806627085 rxn_smarts="[C:1]([C:2]([C@@:3]1([H:11])[C:4]([H:12])([H:13])[O:5]1)([H:9])[H:10])([H:6])([H:7])[H:8]>>[C:1](=[C:2]([H:9])[H:10])([H:6])[H:7].[C:3]1([H:8])([H:11])[C:4]([H:12])([H:13])[O:5]1"
C       -1.63297680       0.50947142       0.69521130
C       -1.14035435      -0.65973458       0.04660833
C        0.76395677      -0.36312318      -0.75063655
C        1.77699007       0.44838685      -0.07295288
O        1.69877195      -0.95247770       0.12843753
H       -2.34411723       1.14531874       0.19021982
H       -1.42313414       0.66778823       1.74179509
H       -0.39038537       0.39744600      -0.10595073
H       -1.59733201      -0.97576272      -0.88437483
H       -0.72715402      -1.45919389       0.65128753
H        0.88317835      -0.61260961      -1.80566650
H        2.64784811       0.79929604      -0.61874223
H        1.48470867       1.05519439       0.78476413
13
Frame=2 idx=005903 GeodesicLength=0.20232512857388935 rxn_smarts="[C:1]([C:2]([C@@:3]1([H:11])[C:4]([H:12])([H:13])[O:5]1)([H:9])[H:10])([H:6])([H:7])[H:8]>>[C:1](=[C:2]([H:9])[H:10])([H:6])[H:7].[C:3]1([H:8])([H:11])[C:4]([H:12])([H:13])[O:5]1"
C       -1.63493742       0.51854328       0.68292475
C       -1.13530209      -0.66034815       0.05794010
C        0.76541952      -0.34959547      -0.76004655
C        1.78719490       0.43191141      -0.06013660
O        1.69938948      -0.97380742       0.09611329
H       -2.39684302       1.10546874       0.19197782
H       -1.40946031       0.70402004       1.72250343
H       -0.39851204       0.43755066      -0.15726720
H       -1.60821860      -1.00975541      -0.85338554
H       -0.71195263      -1.44060247       0.68081078
H        0.88427291      -0.57010937      -1.82144862
H        2.66000545       0.79314725      -0.59594196
H        1.49894385       1.01357691       0.81595629
13
Frame=3 idx=005903 GeodesicLength=0.3028580488724912 rxn_smarts="[C:1]([C:2]([C@@:3]1([H:11])[C:4]([H:12])([H:13])[O:5]1)([H:9])[H:10])([H:6])([H:7])[H:8]>>[C:1](=[C:2]([H:9])[H:10])([H:6])[H:7].[C:3]1([H:8])([H:11])[C:4]([H:12])([H:13])[O:5]1"
C       -1.63617316       0.52784563       0.66962331
C       -1.13030188      -0.66106530       0.06929944
C        0.76672443      -0.33627673      -0.76928125
C        1.79596791       0.41541781      -0.04760828
O        1.69957664      -0.99373050       0.06355712
H       -2.44440784       1.06617622       0.19640056
H       -1.39681461       0.73962140       1.70188849
H       -0.40656373       0.47559809      -0.20882313
H       -1.61811042      -1.04251841      -0.82157443
H       -0.69697708      -1.42173679       0.70970580
H        0.88622301      -0.52821615      -1.83605003
H        2.67084390       0.78731419      -0.57260344
H        1.51001283       0.97157055       0.84546586
13
Frame=4 idx=005903 GeodesicLength=0.4033459309303191 rxn_smarts="[C:1]([C:2]([C@@:3]1([H:11])[C:4]([H:12])([H:13])[O:5]1)([H:9])[H:10])([H:6])([H:7])[H:8]>>[C:1](=[C:2]([H:9])[H:10])([H:6])[H:7].[C:3]1([H:8])([H:11])[C:4]([H:12])([H:13])[O:5]1"
C       -1.63694786       0.53714851       0.65531725
C       -1.12544059      -0.66199939       0.08070765
C        0.76781098      -0.32296123      -0.77828806
C        1.80353715       0.39895004      -0.03544015
O        1.69921973      -1.01220285       0.03093796
H       -2.48724056       1.02753315       0.20330337
H       -1.38541851       0.77432096       1.68005856
H       -0.41440363       0.51202434      -0.26041959
H       -1.62708833      -1.07414342      -0.78906257
H       -0.68219915      -1.40267668       0.73795537
H        0.88892754      -0.48690129      -1.84944283
H        2.68065249       0.78146521      -0.54889655
H        1.51859076       0.92944265       0.87326959
13
Frame=5 idx=005903 GeodesicLength=0.5033249500134805 rxn_smarts="[C:1]([C:2]([C@@:3]1([H:11])[C:4]([H:12])([H:13])[O:5]1)([H:9])[H:10])([H:6])([H:7])[H:8]>>[C:1](=[C:2]([H:9])[H:10])([H:6])[H:7].[C:3]1([H:8])([H:11])[C:4]([H:12])([H:13])[O:5]1"
C       -1.63743327       0.54618448       0.64019585
C       -1.12072057      -0.66314222       0.09208628
C        0.76871148      -0.30965196      -0.78698809
C        1.81003021       0.38256933      -0.02364555
O        1.69817842      -1.02918844      -0.00130228
H       -2.52604128       0.98965470       0.21266254
H       -1.37481504       0.80779776       1.65715871
H       -0.42211919       0.54706208      -0.31210729
H       -1.63517214      -1.10436218      -0.75620064
H       -0.66768394      -1.38356577       0.76541281
H        0.89242875      -0.44640454      -1.86160092
H        2.68963571       0.77534241      -0.52493865
H        1.52500086       0.88770435       0.89926723
13
Frame=6 idx=005903 GeodesicLength=0.603472732188266 rxn_smarts="[C:1]([C:2]([C@@:3]1([H:11])[C:4]([H:12])([H:13])[O:5]1)([H:9])[H:10])([H:6])([H:7])[H:8]>>[C:1](=[C:2]([H:9])[H:10])([H:6])[H:7].[C:3]1([H:8])([H:11])[C:4]([H:12])([H:13])[O:5]1"
C       -1.63784369       0.55478062       0.62413322
C       -1.11622617      -0.66472047       0.10360945
C        0.76928902      -0.29604701      -0.79533368
C        1.81564703       0.36625166      -0.01225818
O        1.69641333      -1.04476102      -0.03337798
H       -2.56085276       0.95263689       0.22394048
H       -1.36552604       0.84003846       1.63320253
H       -0.42946492       0.58130277      -0.36365111
H       -1.64245022      -1.13367943      -0.72283118
H       -0.65330787      -1.36441292       0.79230252
H        0.89642961      -0.40635120      -1.87254569
H        2.69796191       0.76876751      -0.50089179
H        1.52993077       0.84619415       0.92370141
13
Frame=7 idx=005903 GeodesicLength=0.7039367607092055 rxn_smarts="[C:1]([C:2]([C@@:3]1([H:11])[C:4]([H:12])([H:13])[O:5]1)([H:9])[H:10])([H:6])([H:7])[H:8]>>[C:1](=[C:2]([H:9])[H:10])([H:6])[H:7].[C:3]1([H:8])([H:11])[C:4]([H:12])([H:13])[O:5]1"
C       -1.63834759       0.56272577       0.60710338
C       -1.11197037      -0.66686442       0.11543882
C        0.76944135      -0.28195078      -0.80324913
C        1.82054889       0.34995568      -0.00129799
O        1.69381477      -1.05896804      -0.06537906
H       -2.59187833       0.91653339       0.23657168
H       -1.35780568       0.87091941       1.60819555
H       -0.43629702       0.61529820      -0.41483280
H       -1.64885992      -1.16234424      -0.68886799
H       -0.63899538      -1.34518200       0.81881990
H        0.90065949      -0.36649907      -1.88227559
H        2.70577078       0.76155908      -0.47693096
H        1.53391901       0.80481704       0.94670419
13
Frame=8 idx=005903 GeodesicLength=0.8046811499843958 rxn_smarts="[C:1]([C:2]([C@@:3]1([H:11])[C:4]([H:12])([H:13])[O:5]1)([H:9])[H:10])([H:6])([H:7])[H:8]>>[C:1](=[C:2]([H:9])[H:10])([H:6])[H:7].[C:3]1([H:8])([H:11])[C:4]([H:12])([H:13])[O:5]1"
C       -1.63906206       0.56983644       0.58911543
C       -1.10797983      -0.66969126       0.12769603
C        0.76910934      -0.26722193      -0.81066621
C        1.82485983       0.33364888       0.00922735
O        1.69034014      -1.07186387      -0.09736739
H       -2.61929449       0.88143577       0.25013522
H       -1.35174444       0.90040526       1.58213232
H       -0.44249933       0.64947805      -0.46554866
H       -1.65444649      -1.19058993      -0.65427452
H       -0.62470749      -1.32590923       0.84512107
H        0.90495094      -0.32667803      -1.89079114
H        2.71316009       0.75360880      -0.45317505
H        1.53731379       0.76354105       0.96839554
13
Frame=9 idx=005903 GeodesicLength=0.905459304498267 rxn_smarts="[C:1]([C:2]([C@@:3]1([H:11])[C:4]([H:12])([H:13])[O:5]1)([H:9])[H:10])([H:6])([H:7])[H:8]>>[C:1](=[C:2]([H:9])[H:10])([H:6])[H:7].[C:3]1([H:8])([H:11])[C:4]([H:12])([H:13])[O:5]1"
C       -1.64007991       0.57588286       0.57016912
C       -1.10417382      -0.67323608       0.14054813
C        0.76827364      -0.25174919      -0.81743694
C        1.82866581       0.31724708       0.01927433
O        1.68579257      -1.08349039      -0.12930551
H       -2.64366952       0.84732547       0.26404068
H       -1.34723422       0.92840219       1.55505996
H       -0.44790944       0.68431501      -0.51555717
H       -1.65905140      -1.21846040      -0.61907172
H       -0.61034079      -1.30656937       0.87136158
H        0.90910927      -0.28668219      -1.89803198
H        2.72019800       0.74466493      -0.42986020
H        1.54041982       0.72235007       0.98880969
13
Frame=10 idx=005903 GeodesicLength=1.006419777384621 rxn_smarts="[C:1]([C:2]([C@@:3]1([H:11])[C:4]([H:12])([H:13])[O:5]1)([H:9])[H:10])([H:6])([H:7])[H:8]>>[C:1](=[C:2]([H:9])[H:10])([H:6])[H:7].[C:3]1([H:8])([H:11])[C:4]([H:12])([H:13])[O:5]1"
C       -1.64151317       0.58074467       0.55014762
C       -1.10057558      -0.67764378       0.15426346
C        0.76677582      -0.23528645      -0.82352290
C        1.83214102       0.30063887       0.02879545
O        1.68011628      -1.09391901      -0.16159236
H       -2.66491384       0.81421882       0.27753590
H       -1.34495253       0.95491612       1.52690628
H       -0.45226149       0.72046209      -0.56455154
H       -1.66262589      -1.24645578      -0.58288137
H       -0.59578790      -1.28699607       0.89789251
H        0.91280389      -0.24616836      -1.90399455
H        2.72703309       0.73461661      -0.40712447
H        1.54376029       0.68087228       1.00812598
13
Frame=11 idx=005903 GeodesicLength=1.1073711262403882 rxn_smarts="[C:1]([C:2]([C@@:3]1([H:11])[C:4]([H:12])([H:13])[O:5]1)([H:9])[H:10])([H:6])([H:7])[H:8]>>[C:1](=[C:2]([H:9])[H:10])([H:6])[H:7].[C:3]1([H:8])([H:11])[C:4]([H:12])([H:13])[O:5]1"
C       -1.64346147       0.58423786       0.52901851
C       -1.09711850      -0.68294996       0.16909271
C        0.76453538      -0.21767413      -0.82880417
C        1.83540621       0.28371260       0.03770952
O        1.67312193      -1.10317091      -0.19440924
H       -2.68329416       0.78206780       0.28977706
H       -1.34529696       0.97984452       1.49771524
H       -0.45532502       0.75853618      -0.61215612
H       -1.66496739      -1.27479663      -0.54544755
H       -0.58093144      -1.26700165       0.92497451
H        0.91576581      -0.20489092      -1.90860062
H        2.73380230       0.72322504      -0.38521159
H        1.54776331       0.63886019       1.02634175
13
Frame=12 idx=005903 GeodesicLength=1.2082490340013678 rxn_smarts="[C:1]([C:2]([C@@:3]1([H:11])[C:4]([H:12])([H:13])[O:5]1)([H:9])[H:10])([H:6])([H:7])[H:8]>>[C:1](=[C:2]([H:9])[H:10])([H:6])[H:7].[C:3]1([H:8])([H:11])[C:4]([H:12])([H:13])[O:5]1"
C       -1.64600132       0.58617710       0.50668549
C       -1.09375329      -0.68919695       0.18533979
C        0.76145789      -0.19873099      -0.83316607
C        1.83860110       0.26631118       0.04592376
O        1.66462422      -1.11129634      -0.22800260
H       -2.69911847       0.75071937       0.29994076
H       -1.34866940       1.00321646       1.46742523
H       -0.45676829       0.79921308      -0.65794477
H       -1.66592019      -1.30375707      -0.50648383
H       -0.56564826      -1.24639445       0.95292215
H        0.91771263      -0.16256169      -1.91179087
H        2.74065206       0.71023998      -0.36435025
H        1.55283132       0.59606032       1.04350123
13
Frame=13 idx=005903 GeodesicLength=1.3089050075290856 rxn_smarts="[C:1]([C:2]([C@@:3]1([H:11])[C:4]([H:12])([H:13])[O:5]1)([H:9])[H:10])([H:6])([H:7])[H:8]>>[C:1](=[C:2]([H:9])[H:10])([H:6])[H:7].[C:3]1([H:8])([H:11])[C:4]([H:12])([H:13])[O:5]1"
C       -1.64919820       0.58635793       0.48303278
C       -1.09039100      -0.69633508       0.20329983
C        0.75755468      -0.17828700      -0.83646050
C        1.84183445       0.24822655       0.05328455
O        1.65438807      -1.11832772      -0.26250445
H       -2.71298201       0.71986042       0.30720925
H       -1.35539752       1.02510309       1.43600412
H       -0.45614211       0.84318822      -0.70136720
H       -1.66527474      -1.33349894      -0.46572551
H       -0.54979237      -1.22491732       0.98204095
H        0.91845973      -0.11889236      -1.91348819
H        2.74766036       0.69529493      -0.34488690
H        1.55928064       0.55222728       1.05956126
13
Frame=14 idx=005903 GeodesicLength=1.4092924052557663 rxn_smarts="[C:1]([C:2]([C@@:3]1([H:11])[C:4]([H:12])([H:13])[O:5]1)([H:9])[H:10])([H:6])([H:7])[H:8]>>[C:1](=[C:2]([H:9])[H:10])([H:6])[H:7].[C:3]1([H:8])([H:11])[C:4]([H:12])([H:13])[O:5]1"
C       -1.65311674       0.58462132       0.45797083
C       -1.08695950      -0.70434991       0.22330675
C        0.75267149      -0.15619629      -0.83856376
C        1.84527267       0.22931337       0.05965074
O        1.64215090      -1.12426672      -0.29821697
H       -2.72499885       0.68933688       0.31051371
H       -1.36627717       1.04531889       1.40346782
H       -0.45315659       0.89125695      -0.74184877
H       -1.66274237      -1.36426521      -0.42269871
H       -0.53327089      -1.20218914       1.01265642
H        0.91769129      -0.07374409      -1.91357938
H        2.75510884       0.67810243      -0.32710622
H        1.56762692       0.50706151       1.07444756
13
Frame=15 idx=005903 GeodesicLength=1.5095314513124058 rxn_smarts="[C:1]([C:2]([C@@:3]1([H:11])[C:4]([H:12])([H:13])[O:5]1)([H:9])[H:10])([H:6])([H:7])[H:8]>>[C:1](=[C:2]([H:9])[H:10])([H:6])[H:7].[C:3]1([H:8])([H:11])[C:4]([H:12])([H:13])[O:5]1"
C       -1.65782447       0.58075734       0.43136016
C       -1.08334645      -0.71312619       0.24575188
C        0.74676220      -0.13229216      -0.83930894
C        1.84906686       0.20933179       0.06482244
O        1.62757195      -1.12911872      -0.33536555
H       -2.73569051       0.65870409       0.30872958
H       -1.38197390       1.06386790       1.36978320
H       -0.44730433       0.94431960      -0.77863539
H       -1.65798348      -1.39623112      -0.37692949
H       -0.51593898      -1.17776406       1.04512848
H        0.91516299      -0.02688629      -1.91194031
H        2.76318301       0.65821674      -0.31142212
H        1.57831510       0.46022108       1.08802606
13
Frame=16 idx=005903 GeodesicLength=1.6098737725614145 rxn_smarts="[C:1]([C:2]([C@@:3]1([H:11])[C:4]([H:12])([H:13])[O:5]1)([H:9])[H:10])([H:6])([H:7])[H:8]>>[C:1](=[C:2]([H:9])[H:10])([H:6])[H:7].[C:3]1([H:8])([H:11])[C:4]([H:12])([H:13])[O:5]1"
C       -1.66336301       0.57453576       0.40304098
C       -1.07946612      -0.72251397       0.27101985
C        0.73980699      -0.10641895      -0.83854440
C        1.85335479       0.18804312       0.06857632
O        1.61032173      -1.13288213      -0.37414208
H       -2.74560976       0.62742412       0.30077773
H       -1.40316378       1.08077628       1.33485091
H       -0.43806373       1.00327627      -0.81089072
H       -1.65069787      -1.42953267      -0.32790568
H       -0.49767697      -1.15113961       1.07981307
H        0.91068530       0.02187582      -1.90849360
H        2.77211966       0.63514820      -0.29826562
H        1.59175276       0.41140775       1.10016325
