12
Frame=0 idx=005358 GeodesicLength=0.0 rxn_smarts="[O:1]([C@@:2]1([H:8])[C:3]([H:9])([H:10])[C@:4]1([C:5](=[O:6])[H:12])[H:11])[H:7]>>[O:1]([C@@:2]1([H:8])[C:3]([H:9])([H:10])[C:4]([H:11])=[C:5]([H:12])[O:6]1)[H:7]"
O       -2.11578782       0.37574823       0.23902210
C       -1.14000576      -0.33439579      -0.20425304
C        0.00675533       0.08321655      -0.98792677
C        1.16353315      -0.38815833      -0.14367541
C        1.12710186       0.06308865       1.15823133
O        0.13927830       0.66961965       1.64438804
H       -1.86797576       1.31189848       0.25324553
H       -1.28089319      -1.39765029      -0.02960133
H       -0.01615950      -0.49254635      -1.91924275
H       -0.01215958       1.15580130      -1.21566861
H        1.97186683      -0.95787413      -0.57572078
H        2.02444609      -0.08874798       1.78120165
12
Frame=1 idx=005358 GeodesicLength=0.08097847087217766 rxn_smarts="[O:1]([C@@:2]1([H:8])[C:3]([H:9])([H:10])[C@:4]1([C:5](=[O:6])[H:12])[H:11])[H:7]>>[O:1]([C@@:2]1([H:8])[C:3]([H:9])([H:10])[C:4]([H:11])=[C:5]([H:12])[O:6]1)[H:7]"
O       -2.09787767       0.38289515       0.26247566
C       -1.12184284      -0.33297899      -0.18577602
C        0.01105088       0.08925287      -0.99091138
C        1.14767830      -0.40499839      -0.13573027
C        1.13494706       0.06020841       1.16168656
O        0.12522254       0.59606011       1.68627382
H       -1.89835535       1.32732444       0.20367933
H       -1.29358906      -1.39892667      -0.06054446
H       -0.01681787      -0.47984486      -1.92552146
H        0.00080119       1.16365261      -1.20563672
H        1.94496315      -0.99501788      -0.56148655
H        2.06381967      -0.00762681       1.75149149
12
Frame=2 idx=005358 GeodesicLength=0.1614135481211258 rxn_smarts="[O:1]([C@@:2]1([H:8])[C:3]([H:9])([H:10])[C@:4]1([C:5](=[O:6])[H:12])[H:11])[H:7]>>[O:1]([C@@:2]1([H:8])[C:3]([H:9])([H:10])[C:4]([H:11])=[C:5]([H:12])[O:6]1)[H:7]"
O       -2.07691603       0.39372109       0.28762724
C       -1.10339742      -0.33103859      -0.16688340
C        0.01566766       0.09455223      -0.99363043
C        1.13299473      -0.42070862      -0.12842468
C        1.14254783       0.05714106       1.16457794
O        0.11534251       0.51775357       1.72731102
H       -1.93000841       1.33875804       0.15314584
H       -1.30700291      -1.39618262      -0.08853447
H       -0.01743876      -0.46884907      -1.93086927
H        0.01421619       1.17032028      -1.19673944
H        1.92032390      -1.02846797      -0.54811375
H        2.09367072       0.07300059       1.72053340
12
Frame=3 idx=005358 GeodesicLength=0.24139858210102388 rxn_smarts="[O:1]([C@@:2]1([H:8])[C:3]([H:9])([H:10])[C@:4]1([C:5](=[O:6])[H:12])[H:11])[H:7]>>[O:1]([C@@:2]1([H:8])[C:3]([H:9])([H:10])[C:4]([H:11])=[C:5]([H:12])[O:6]1)[H:7]"
O       -2.05242787       0.40881961       0.31450539
C       -1.08452043      -0.32825247      -0.14752777
C        0.02064248       0.09933084      -0.99621091
C        1.11967889      -0.43512863      -0.12194736
C        1.14982519       0.05340939       1.16707485
O        0.11003445       0.43470165       1.76694093
H       -1.96405502       1.34549401       0.10120737
H       -1.32106718      -1.38927918      -0.11307653
H       -0.01819240      -0.45933419      -1.93542833
H        0.02816324       1.17607065      -1.18905830
H        1.89778187      -1.05885511      -0.53570926
H        2.11413679       0.15302342       1.68922992
12
Frame=4 idx=005358 GeodesicLength=0.3209833417261232 rxn_smarts="[O:1]([C@@:2]1([H:8])[C:3]([H:9])([H:10])[C@:4]1([C:5](=[O:6])[H:12])[H:11])[H:7]>>[O:1]([C@@:2]1([H:8])[C:3]([H:9])([H:10])[C:4]([H:11])=[C:5]([H:12])[O:6]1)[H:7]"
O       -2.02380066       0.42910819       0.34282665
C       -1.06505326      -0.32422758      -0.12768752
C        0.02608292       0.10376336      -0.99876460
C        1.10786796      -0.44832906      -0.11643461
C        1.15676967       0.04832640       1.16941484
O        0.10958585       0.34702171       1.80448605
H       -2.00159883       1.34635865       0.04796835
H       -1.33589617      -1.37796460      -0.13373640
H       -0.01921982      -0.45110186      -1.93932243
H        0.04293515       1.18112247      -1.18262999
H        1.87716323      -1.08679396      -0.52440972
H        2.12516395       0.23271628       1.65828939
12
Frame=5 idx=005358 GeodesicLength=0.4001046969810734 rxn_smarts="[O:1]([C@@:2]1([H:8])[C:3]([H:9])([H:10])[C@:4]1([C:5](=[O:6])[H:12])[H:11])[H:7]>>[O:1]([C@@:2]1([H:8])[C:3]([H:9])([H:10])[C:4]([H:11])=[C:5]([H:12])[O:6]1)[H:7]"
O       -1.99041957       0.45564270       0.37178404
C       -1.04481773      -0.31857111      -0.10739930
C        0.03209159       0.10791875      -1.00152763
C        1.09766549      -0.46032081      -0.11203346
C        1.16342338       0.04150193       1.17171919
O        0.11404413       0.25565710       1.83895232
H       -2.04335244       1.33981482      -0.00530662
H       -1.35157228      -1.36196445      -0.15002382
H       -0.02064959      -0.44423007      -1.94268601
H        0.05878843       1.18554154      -1.17782260
H        1.85847823      -1.11247450      -0.51442791
H        2.12632035       0.31148408       1.62877179
12
Frame=6 idx=005358 GeodesicLength=0.47882363421700336 rxn_smarts="[O:1]([C@@:2]1([H:8])[C:3]([H:9])([H:10])[C@:4]1([C:5](=[O:6])[H:12])[H:11])[H:7]>>[O:1]([C@@:2]1([H:8])[C:3]([H:9])([H:10])[C:4]([H:11])=[C:5]([H:12])[O:6]1)[H:7]"
O       -1.95173009       0.48935730       0.40022229
C       -1.02367451      -0.31096586      -0.08682938
C        0.03879316       0.11180915      -1.00476812
C        1.08906753      -0.47122878      -0.10881639
C        1.16981050       0.03253884       1.17413432
O        0.12303222       0.16229720       1.86925602
H       -2.08960303       1.32421142      -0.05644650
H       -1.36814504      -1.34106854      -0.16167091
H       -0.02251262      -0.43879652      -1.94571287
H        0.07607793       1.18932620      -1.17504495
H        1.84170713      -1.13607328      -0.50595451
H        2.11717684       0.38859289       1.60163101
12
Frame=7 idx=005358 GeodesicLength=0.5574539138973895 rxn_smarts="[O:1]([C@@:2]1([H:8])[C:3]([H:9])([H:10])[C@:4]1([C:5](=[O:6])[H:12])[H:11])[H:7]>>[O:1]([C@@:2]1([H:8])[C:3]([H:9])([H:10])[C:4]([H:11])=[C:5]([H:12])[O:6]1)[H:7]"
O       -1.90739239       0.53074045       0.42655333
C       -1.00154147      -0.30125230      -0.06638547
C        0.04633676       0.11535716      -1.00885065
C        1.08197266      -0.48119818      -0.10678774
C        1.17590040       0.02138616       1.17670411
O        0.13557020       0.06897605       1.89441337
H       -2.13986597       1.29835930      -0.10191003
H       -1.38549577      -1.31524290      -0.16881283
H       -0.02463898      -0.43494913      -1.94870123
H        0.09520120       1.19235832      -1.17486466
H        1.82665532      -1.15796143      -0.49894040
H        2.09729805       0.46342651       1.57758220
12
Frame=8 idx=005358 GeodesicLength=0.6364855123342267 rxn_smarts="[O:1]([C@@:2]1([H:8])[C:3]([H:9])([H:10])[C@:4]1([C:5](=[O:6])[H:12])[H:11])[H:7]>>[O:1]([C@@:2]1([H:8])[C:3]([H:9])([H:10])[C:4]([H:11])=[C:5]([H:12])[O:6]1)[H:7]"
O       -1.85778727       0.57915296       0.44870716
C       -0.97848807      -0.28966038      -0.04686244
C        0.05477802       0.11826145      -1.01437466
C        1.07619131      -0.49012952      -0.10591549
C        1.18132704       0.00888718       1.17923898
O        0.14999225      -0.02218042       1.91359802
H       -2.19187225       1.26276366      -0.13620629
H       -1.40314356      -1.28501092      -0.17213843
H       -0.02659606      -0.43321126      -1.95211100
H        0.11625161       1.19424971      -1.17830537
H        1.81306571      -1.17842544      -0.49290677
H        2.06628127       0.53530297       1.55727629
12
Frame=9 idx=005358 GeodesicLength=0.7165716408484601 rxn_smarts="[O:1]([C@@:2]1([H:8])[C:3]([H:9])([H:10])[C@:4]1([C:5](=[O:6])[H:12])[H:11])[H:7]>>[O:1]([C@@:2]1([H:8])[C:3]([H:9])([H:10])[C:4]([H:11])=[C:5]([H:12])[O:6]1)[H:7]"
O       -1.80386326       0.63262681       0.46465996
C       -0.95462275      -0.27669923      -0.02936018
C        0.06415491       0.12023246      -1.02204417
C        1.07159021      -0.49762369      -0.10613300
C        1.18559095      -0.00350893       1.18145167
O        0.16446720      -0.10875744       1.92639341
H       -2.24337986       1.21961643      -0.15345872
H       -1.42006126      -1.25142897      -0.17293157
H       -0.02763364      -0.43412264      -1.95655572
H        0.13897739       1.19464281      -1.18648390
H        1.80027664      -1.19817677      -0.48682478
H        2.02450346       0.60319915       1.54128700
12
Frame=10 idx=005358 GeodesicLength=0.7978292582476332 rxn_smarts="[O:1]([C@@:2]1([H:8])[C:3]([H:9])([H:10])[C@:4]1([C:5](=[O:6])[H:12])[H:11])[H:7]>>[O:1]([C@@:2]1([H:8])[C:3]([H:9])([H:10])[C:4]([H:11])=[C:5]([H:12])[O:6]1)[H:7]"
O       -1.74793066       0.68861763       0.47338538
C       -0.93043787      -0.26322298      -0.01425174
C        0.07410527       0.12102886      -1.03184271
C        1.06772711      -0.50365909      -0.10718381
C        1.18815670      -0.01498586       1.18331502
O        0.17739411      -0.18869118       1.93297119
H       -2.29034008       1.17187734      -0.15183305
H       -1.43545187      -1.21616181      -0.17192883
H       -0.02767545      -0.43763226      -1.96214936
H        0.16283898       1.19327079      -1.19924514
H        1.78843516      -1.21639696      -0.48059963
H        1.97317860       0.66595551       1.52936267
12
Frame=11 idx=005358 GeodesicLength=0.8806441072039863 rxn_smarts="[O:1]([C@@:2]1([H:8])[C:3]([H:9])([H:10])[C@:4]1([C:5](=[O:6])[H:12])[H:11])[H:7]>>[O:1]([C@@:2]1([H:8])[C:3]([H:9])([H:10])[C:4]([H:11])=[C:5]([H:12])[O:6]1)[H:7]"
O       -1.69100799       0.74499681       0.47426191
C       -0.90612549      -0.24970770      -0.00236638
C        0.08469499       0.12057471      -1.04407960
C        1.06456635      -0.50792684      -0.10888271
C        1.18867839      -0.02427668       1.18471819
O        0.18784385      -0.26130254       1.93405373
H       -2.33238543       1.12240695      -0.12903821
H       -1.44864887      -1.18029963      -0.17074656
H       -0.02589864      -0.44390592      -1.96929618
H        0.18740346       1.19008147      -1.21685657
H        1.77690072      -1.23387397      -0.47310507
H        1.91397866       0.72323334       1.52133744
12
Frame=12 idx=005358 GeodesicLength=0.9646630731592881 rxn_smarts="[O:1]([C@@:2]1([H:8])[C:3]([H:9])([H:10])[C@:4]1([C:5](=[O:6])[H:12])[H:11])[H:7]>>[O:1]([C@@:2]1([H:8])[C:3]([H:9])([H:10])[C:4]([H:11])=[C:5]([H:12])[O:6]1)[H:7]"
O       -1.63530614       0.79970178       0.46744781
C       -0.88215222      -0.23683243       0.00637941
C        0.09558545       0.11892839      -1.05835927
C        1.06177380      -0.51045533      -0.11097033
C        1.18684689      -0.03095453       1.18574621
O        0.19523304      -0.32619824       1.93054386
H       -2.36677451       1.07363340      -0.08659933
H       -1.45936381      -1.14522548      -0.17004538
H       -0.02237423      -0.45245105      -1.97785175
H        0.21198162       1.18520928      -1.23839763
H        1.76566417      -1.25006025      -0.46430063
H        1.84888595       0.77470446       1.51640704
12
Frame=13 idx=005358 GeodesicLength=1.049603625146528 rxn_smarts="[O:1]([C@@:2]1([H:8])[C:3]([H:9])([H:10])[C@:4]1([C:5](=[O:6])[H:12])[H:11])[H:7]>>[O:1]([C@@:2]1([H:8])[C:3]([H:9])([H:10])[C:4]([H:11])=[C:5]([H:12])[O:6]1)[H:7]"
O       -1.58224824       0.85120736       0.45352867
C       -0.85884848      -0.22513137       0.01209889
C        0.10655581       0.11613248      -1.07433909
C        1.05915414      -0.51130906      -0.11325460
C        1.18248503      -0.03481750       1.18648950
O        0.19948477      -0.38404168       1.92338045
H       -2.39159005       1.02772940      -0.02624124
H       -1.46768310      -1.11187571      -0.17057935
H       -0.01707820      -0.46292722      -1.98769926
H        0.23598703       1.17879644      -1.26304077
H        1.75469408      -1.26473214      -0.45406934
H        1.77908723       0.82096900       1.51372614
12
Frame=14 idx=005358 GeodesicLength=1.1353932364129524 rxn_smarts="[O:1]([C@@:2]1([H:8])[C:3]([H:9])([H:10])[C@:4]1([C:5](=[O:6])[H:12])[H:11])[H:7]>>[O:1]([C@@:2]1([H:8])[C:3]([H:9])([H:10])[C:4]([H:11])=[C:5]([H:12])[O:6]1)[H:7]"
O       -1.53267260       0.89893143       0.43292012
C       -0.83648488      -0.21483638       0.01487312
C        0.11752736       0.11223717      -1.09177964
C        1.05655238      -0.51056188      -0.11557626
C        1.17537174      -0.03579258       1.18705216
O        0.20061066      -0.43563569       1.91331137
H       -2.40590077       0.98557840       0.05075653
H       -1.47407561      -1.08058811      -0.17300466
H       -0.00985841      -0.47514545      -1.99873970
H        0.25912439       1.17096926      -1.29021129
H        1.74411702      -1.27760800      -0.44231602
H        1.70568871       0.86245185       1.51271427
12
Frame=15 idx=005358 GeodesicLength=1.221681329669474 rxn_smarts="[O:1]([C@@:2]1([H:8])[C:3]([H:9])([H:10])[C@:4]1([C:5](=[O:6])[H:12])[H:11])[H:7]>>[O:1]([C@@:2]1([H:8])[C:3]([H:9])([H:10])[C:4]([H:11])=[C:5]([H:12])[O:6]1)[H:7]"
O       -1.48779262       0.94176452       0.40673974
C       -0.81536217      -0.20649203       0.01516983
C        0.12812033       0.10728499      -1.11023517
C        1.05377729      -0.50822408      -0.11782863
C        1.16537801      -0.03397147       1.18751954
O        0.19900077      -0.48211365       1.90103522
H       -2.40733269       0.94894020       0.14126117
H       -1.47906774      -1.05193657      -0.17750606
H       -0.00100283      -0.48885213      -2.01067197
H        0.28058958       1.16191038      -1.31905669
H        1.73427856      -1.28801733      -0.42929622
H        1.62941351       0.89970717       1.51286925
12
Frame=16 idx=005358 GeodesicLength=1.3085570603939822 rxn_smarts="[O:1]([C@@:2]1([H:8])[C:3]([H:9])([H:10])[C@:4]1([C:5](=[O:6])[H:12])[H:11])[H:7]>>[O:1]([C@@:2]1([H:8])[C:3]([H:9])([H:10])[C:4]([H:11])=[C:5]([H:12])[O:6]1)[H:7]"
O       -1.44821839       0.97930853       0.37563787
C       -0.79573920      -0.20040663       0.01322514
C        0.13814276       0.10124076      -1.12945965
C        1.05064787      -0.50436673      -0.11990727
C        1.15226161      -0.02955748       1.18799827
O        0.19489360      -0.52455484       1.88702309
H       -2.39437740       0.91876404       0.24350871
H       -1.48340945      -1.02600383      -0.18430746
H        0.00949810      -0.50402875      -2.02332195
H        0.29994805       1.15168669      -1.34910338
H        1.72576277      -1.29527191      -0.41520369
H        1.55058967       0.93319016       1.51391032
