13
Frame=0 idx=000690 GeodesicLength=0.0 rxn_smarts="[C:1]([c:2]1[c:3]([H:10])[n:4]([H:11])[c:5]([H:12])[c:6]1[H:13])([H:7])([H:8])[H:9]>>[C:1]([C:2]1=[C:6]([H:13])[C:5]([H:11])([H:12])[N:4]=[C:3]1[H:10])([H:7])([H:8])[H:9]"
C        1.90572033       0.03991826       0.13606419
C        0.41407453      -0.05694374       0.07623447
C       -0.32025239      -1.14885341      -0.38744952
N       -1.64778800      -0.95621960      -0.31154350
C       -1.78009103       0.39708817       0.16241650
C       -0.51131263       0.92510007       0.41411988
H        2.23629993       0.50445691       1.06595468
H        2.36355473      -0.94781323       0.07246231
H        2.29467603       0.63950676      -0.68970138
H        0.06671861      -2.06870766      -0.80510726
H       -1.97314218       0.03149264      -1.04643431
H       -2.74703596       0.73001456       0.51079820
H       -0.30142201       1.91096021       0.80218569
13
Frame=1 idx=000690 GeodesicLength=0.03872699171786018 rxn_smarts="[C:1]([c:2]1[c:3]([H:10])[n:4]([H:11])[c:5]([H:12])[c:6]1[H:13])([H:7])([H:8])[H:9]>>[C:1]([C:2]1=[C:6]([H:13])[C:5]([H:11])([H:12])[N:4]=[C:3]1[H:10])([H:7])([H:8])[H:9]"
C        1.90761046       0.03885750       0.14082651
C        0.41626501      -0.05367585       0.07230969
C       -0.31899340      -1.14650427      -0.39227031
N       -1.64463288      -0.95347909      -0.31013682
C       -1.77989744       0.39861331       0.15878746
C       -0.50918116       0.92951131       0.40406088
H        2.23438514       0.50718026       1.07018644
H        2.36406153      -0.95010226       0.08559324
H        2.30332519       0.63226923      -0.68621623
H        0.06701649      -2.06369352      -0.81681778
H       -1.99923296       0.02411865      -1.05265929
H       -2.74097533       0.72243988       0.53159305
H       -0.29975064       1.91446484       0.79474316
13
Frame=2 idx=000690 GeodesicLength=0.07747068108161725 rxn_smarts="[C:1]([c:2]1[c:3]([H:10])[n:4]([H:11])[c:5]([H:12])[c:6]1[H:13])([H:7])([H:8])[H:9]>>[C:1]([C:2]1=[C:6]([H:13])[C:5]([H:11])([H:12])[N:4]=[C:3]1[H:10])([H:7])([H:8])[H:9]"
C        1.90947678       0.03774322       0.14585338
C        0.41850812      -0.05033925       0.06824914
C       -0.31766873      -1.14399621      -0.39748104
N       -1.64138459      -0.95069119      -0.30883829
C       -1.77968809       0.40011792       0.15522921
C       -0.50700959       0.93402318       0.39364057
H        2.23226183       0.50980657       1.07473825
H        2.36438052      -0.95245059       0.09907458
H        2.31221417       0.62493257      -0.68226895
H        0.06736141      -2.05829790      -0.82927539
H       -2.02632883       0.01613072      -1.05800559
H       -2.73411185       0.71474472       0.55268673
H       -0.29801115       1.91827625       0.78639739
13
Frame=3 idx=000690 GeodesicLength=0.11621826691102938 rxn_smarts="[C:1]([c:2]1[c:3]([H:10])[n:4]([H:11])[c:5]([H:12])[c:6]1[H:13])([H:7])([H:8])[H:9]>>[C:1]([C:2]1=[C:6]([H:13])[C:5]([H:11])([H:12])[N:4]=[C:3]1[H:10])([H:7])([H:8])[H:9]"
C        1.91130453       0.03658091       0.15113142
C        0.42079939      -0.04695066       0.06409109
C       -0.31627948      -1.14134579      -0.40304669
N       -1.63803599      -0.94784763      -0.30767876
C       -1.77945144       0.40160621       0.15172419
C       -0.50479991       0.93861140       0.38290289
H        2.22993685       0.51233969       1.07958852
H        2.36450089      -0.95484570       0.11286347
H        2.32129111       0.61751407      -0.67787332
H        0.06775309      -2.05252168      -0.84245774
H       -2.05438879       0.00750864      -1.06241910
H       -2.72642656       0.70698382       0.57396456
H       -0.29620369       1.92236673       0.77720946
13
Frame=4 idx=000690 GeodesicLength=0.15494977408650584 rxn_smarts="[C:1]([c:2]1[c:3]([H:10])[n:4]([H:11])[c:5]([H:12])[c:6]1[H:13])([H:7])([H:8])[H:9]>>[C:1]([C:2]1=[C:6]([H:13])[C:5]([H:11])([H:12])[N:4]=[C:3]1[H:10])([H:7])([H:8])[H:9]"
C        1.91308546       0.03541617       0.15651449
C        0.42311888      -0.04361427       0.06008417
C       -0.31484812      -1.13863705      -0.40874777
N       -1.63461979      -0.94487032      -0.30685905
C       -1.77920200       0.40313668       0.14813769
C       -0.50257424       0.94313912       0.37219286
H        2.22758236       0.51480468       1.08453652
H        2.36450170      -0.95719503       0.12664051
H        2.33028631       0.61014476      -0.67324141
H        0.06817467      -2.04658065      -0.85584131
H       -2.08310971      -0.00159498      -1.06607244
H       -2.71803643       0.69932774       0.59493482
H       -0.29435908       1.92652314       0.76772092
13
Frame=5 idx=000690 GeodesicLength=0.19364914478033837 rxn_smarts="[C:1]([c:2]1[c:3]([H:10])[n:4]([H:11])[c:5]([H:12])[c:6]1[H:13])([H:7])([H:8])[H:9]>>[C:1]([C:2]1=[C:6]([H:13])[C:5]([H:11])([H:12])[N:4]=[C:3]1[H:10])([H:7])([H:8])[H:9]"
C        1.91482732       0.03430575       0.16184385
C        0.42544220      -0.04043641       0.05649820
C       -0.31341565      -1.13598455      -0.41431022
N       -1.63119721      -0.94169615      -0.30657887
C       -1.77895759       0.40477492       0.14431620
C       -0.50034463       0.94747594       0.36188468
H        2.22541661       0.51725588       1.08936749
H        2.36448658      -0.95940125       0.14008320
H        2.33892666       0.60296491      -0.66863497
H        0.06858663      -2.04071879      -0.86889754
H       -2.11215937      -0.01101395      -1.06919722
H       -2.70911560       0.69195462       0.61506691
H       -0.29249596       1.93051908       0.75855828
13
Frame=6 idx=000690 GeodesicLength=0.23232202969717913 rxn_smarts="[C:1]([c:2]1[c:3]([H:10])[n:4]([H:11])[c:5]([H:12])[c:6]1[H:13])([H:7])([H:8])[H:9]>>[C:1]([C:2]1=[C:6]([H:13])[C:5]([H:11])([H:12])[N:4]=[C:3]1[H:10])([H:7])([H:8])[H:9]"
C        1.91651299       0.03328496       0.16695276
C        0.42773636      -0.03753309       0.05363385
C       -0.31199217      -1.13348654      -0.41941768
N       -1.62777618      -0.93821009      -0.30700258
C       -1.77873610       0.40660004       0.14008025
C       -0.49813819       0.95148098       0.35236327
H        2.22361568       0.51972005       1.09383105
H        2.36456205      -0.96136904       0.15284741
H        2.34689100       0.59607000      -0.66431344
H        0.06900515      -2.03513171      -0.88110120
H       -2.14118177      -0.02059884      -1.07209359
H       -2.69983787       0.68505466       0.63388490
H       -0.29066096       1.93411862       0.75033500
13
Frame=7 idx=000690 GeodesicLength=0.2710015160704829 rxn_smarts="[C:1]([c:2]1[c:3]([H:10])[n:4]([H:11])[c:5]([H:12])[c:6]1[H:13])([H:7])([H:8])[H:9]>>[C:1]([C:2]1=[C:6]([H:13])[C:5]([H:11])([H:12])[N:4]=[C:3]1[H:10])([H:7])([H:8])[H:9]"
C        1.91819086       0.03235769       0.17185684
C        0.43000970      -0.03488850       0.05145814
C       -0.31059843      -1.13115618      -0.42408245
N       -1.62441176      -0.93444920      -0.30813405
C       -1.77855062       0.40860119       0.13545949
C       -0.49593144       0.95517615       0.34363611
H        2.22223339       0.52219370       1.09797844
H        2.36477387      -0.96311747       0.16496556
H        2.35426161       0.58948797      -0.66028196
H        0.06940539      -2.02983039      -0.89250212
H       -2.17024456      -0.03034238      -1.07472976
H       -2.69032118       0.67859316       0.65137702
H       -0.28881683       1.93737425       0.74299873
13
Frame=8 idx=000690 GeodesicLength=0.30960172139711145 rxn_smarts="[C:1]([c:2]1[c:3]([H:10])[n:4]([H:11])[c:5]([H:12])[c:6]1[H:13])([H:7])([H:8])[H:9]>>[C:1]([C:2]1=[C:6]([H:13])[C:5]([H:11])([H:12])[N:4]=[C:3]1[H:10])([H:7])([H:8])[H:9]"
C        1.91985051       0.03150726       0.17656122
C        0.43225529      -0.03249563       0.04993855
C       -0.30920946      -1.12898859      -0.42829881
N       -1.62107520      -0.93041617      -0.30995161
C       -1.77836751       0.41077851       0.13049882
C       -0.49371908       0.95856789       0.33570008
H        2.22122824       0.52466338       1.10181552
H        2.36511936      -0.96466482       0.17646049
H        2.36105224       0.58318346      -0.65653116
H        0.06982994      -2.02477136      -0.90317600
H       -2.19935674      -0.04025073      -1.07702686
H       -2.68063138       0.67258313       0.66751972
H       -0.28697622       1.94030368       0.73649005
13
Frame=9 idx=000690 GeodesicLength=0.3479731244609073 rxn_smarts="[C:1]([c:2]1[c:3]([H:10])[n:4]([H:11])[c:5]([H:12])[c:6]1[H:13])([H:7])([H:8])[H:9]>>[C:1]([C:2]1=[C:6]([H:13])[C:5]([H:11])([H:12])[N:4]=[C:3]1[H:10])([H:7])([H:8])[H:9]"
C        1.92151991       0.03080334       0.18083419
C        0.43442671      -0.03051697       0.04952247
C       -0.30790245      -1.12715223      -0.43159844
N       -1.61787411      -0.92597877      -0.31268887
C       -1.77824305       0.41324901       0.12489505
C       -0.49152658       0.96148985       0.32907933
H        2.22095233       0.52722139       1.10499847
H        2.36579408      -0.96587788       0.18689302
H        2.36686243       0.57731095      -0.65348691
H        0.07021110      -2.02025613      -0.91239374
H       -2.22795412      -0.05010623      -1.07949063
H       -2.67109040       0.66722053       0.68170836
H       -0.28517584       1.94259314       0.73172771
13
Frame=10 idx=000690 GeodesicLength=0.3864250023570206 rxn_smarts="[C:1]([c:2]1[c:3]([H:10])[n:4]([H:11])[c:5]([H:12])[c:6]1[H:13])([H:7])([H:8])[H:9]>>[C:1]([C:2]1=[C:6]([H:13])[C:5]([H:11])([H:12])[N:4]=[C:3]1[H:10])([H:7])([H:8])[H:9]"
C        1.92322524       0.03015401       0.18495714
C        0.43658735      -0.02875987       0.04970685
C       -0.30659759      -1.12546660      -0.43447204
N       -1.61471789      -0.92127196      -0.31608433
C       -1.77814006       0.41588988       0.11896728
C       -0.48930410       0.96416089       0.32317653
H        2.22106491       0.52974411       1.10795386
H        2.36665791      -0.96693645       0.19679779
H        2.37222158       0.57168642      -0.65068419
H        0.07064011      -2.01590811      -0.92104855
H       -2.25678922      -0.06017983      -1.08157571
H       -2.66151006       0.66223719       0.69468323
H       -0.28333817       1.94465030       0.72762215
13
Frame=11 idx=000690 GeodesicLength=0.42486705983903916 rxn_smarts="[C:1]([c:2]1[c:3]([H:10])[n:4]([H:11])[c:5]([H:12])[c:6]1[H:13])([H:7])([H:8])[H:9]>>[C:1]([C:2]1=[C:6]([H:13])[C:5]([H:11])([H:12])[N:4]=[C:3]1[H:10])([H:7])([H:8])[H:9]"
C        1.92492368       0.02948518       0.18916663
C        0.43876742      -0.02704698       0.05005052
C       -0.30524557      -1.12375036      -0.43738274
N       -1.61148441      -0.91637465      -0.31993963
C       -1.77799494       0.41861820       0.11289752
C       -0.48702282       0.96679679       0.31738033
H        2.22119477       0.53215913       1.11101560
H        2.36749921      -0.96798614       0.20665166
H        2.37752560       0.56611535      -0.64771099
H        0.07113144      -2.01139112      -0.92988450
H       -2.28631777      -0.07079537      -1.08272308
H       -2.65153901       0.65739118       0.70712800
H       -0.28143760       1.94677880       0.72335066
13
Frame=12 idx=000690 GeodesicLength=0.46336092999182477 rxn_smarts="[C:1]([c:2]1[c:3]([H:10])[n:4]([H:11])[c:5]([H:12])[c:6]1[H:13])([H:7])([H:8])[H:9]>>[C:1]([C:2]1=[C:6]([H:13])[C:5]([H:11])([H:12])[N:4]=[C:3]1[H:10])([H:7])([H:8])[H:9]"
C        1.92667069       0.02883736       0.19332239
C        0.44095778      -0.02547216       0.05079523
C       -0.30387894      -1.12210745      -0.44005515
N       -1.60827655      -0.91121118      -0.32442347
C       -1.77786232       0.42150629       0.10652889
C       -0.48468972       0.96929821       0.31200142
H        2.22159038       0.53452790       1.11398178
H        2.36847435      -0.96895299       0.21621618
H        2.38259352       0.56068528      -0.64483780
H        0.07168952      -2.00689922      -0.93845213
H       -2.31631176      -0.08179923      -1.08319975
H       -2.64147960       0.65280980       0.71864055
H       -0.27947734       1.94877738       0.71948187
13
Frame=13 idx=000690 GeodesicLength=0.5016888425277923 rxn_smarts="[C:1]([c:2]1[c:3]([H:10])[n:4]([H:11])[c:5]([H:12])[c:6]1[H:13])([H:7])([H:8])[H:9]>>[C:1]([C:2]1=[C:6]([H:13])[C:5]([H:11])([H:12])[N:4]=[C:3]1[H:10])([H:7])([H:8])[H:9]"
C        1.92842854       0.02824057       0.19730688
C        0.44311266      -0.02410840       0.05212345
C       -0.30252353      -1.12062265      -0.44226989
N       -1.60508672      -0.90571425      -0.32967772
C       -1.77769555       0.42461518       0.09974897
C       -0.48231759       0.97158680       0.30729257
H        2.22235038       0.53690598       1.11667128
H        2.36962120      -0.96977654       0.22528473
H        2.38718771       0.55544830      -0.64225845
H        0.07229707      -2.00258617      -0.94641004
H       -2.34644056      -0.09307984      -1.08316306
H       -2.63143063       0.64859851       0.72889873
H       -0.27750298       1.95049250       0.71645255
13
Frame=14 idx=000690 GeodesicLength=0.5400786307258281 rxn_smarts="[C:1]([c:2]1[c:3]([H:10])[n:4]([H:11])[c:5]([H:12])[c:6]1[H:13])([H:7])([H:8])[H:9]>>[C:1]([C:2]1=[C:6]([H:13])[C:5]([H:11])([H:12])[N:4]=[C:3]1[H:10])([H:7])([H:8])[H:9]"
C        1.93021141       0.02759647       0.20144887
C        0.44530752      -0.02274188       0.05348340
C       -0.30110608      -1.11905277      -0.44466013
N       -1.60183175      -0.89998195      -0.33551745
C       -1.77749649       0.42781523       0.09282923
C       -0.47986304       0.97391807       0.30248539
H        2.22307688       0.53917384       1.11955943
H        2.37073450      -0.97064635       0.23449244
H        2.39190140       0.55018260      -0.63942682
H        0.07302202      -1.99802158      -0.95470244
H       -2.37748442      -0.10499696      -1.08187264
H       -2.62104075       0.64441298       0.73879364
H       -0.27543120       1.95234230       0.71308708
13
Frame=15 idx=000690 GeodesicLength=0.5784273878949673 rxn_smarts="[C:1]([c:2]1[c:3]([H:10])[n:4]([H:11])[c:5]([H:12])[c:6]1[H:13])([H:7])([H:8])[H:9]>>[C:1]([C:2]1=[C:6]([H:13])[C:5]([H:11])([H:12])[N:4]=[C:3]1[H:10])([H:7])([H:8])[H:9]"
C        1.93202636       0.02699688       0.20543470
C        0.44747588      -0.02157529       0.05540442
C       -0.29970073      -1.11761672      -0.44663741
N       -1.59858404      -0.89384904      -0.34227340
C       -1.77727772       0.43125488       0.08546550
C       -0.47735928       0.97606787       0.29827778
H        2.22417122       0.54145603       1.12218766
H        2.37203787      -0.97138493       0.24326544
H        2.39619576       0.54507784      -0.63688960
H        0.07381866      -1.99365860      -0.96233330
H       -2.40876827      -0.11719169      -1.07996252
H       -2.61070594       0.64051038       0.74750594
H       -0.27332976       1.95391240       0.71055481
13
Frame=16 idx=000690 GeodesicLength=0.6167752973346462 rxn_smarts="[C:1]([c:2]1[c:3]([H:10])[n:4]([H:11])[c:5]([H:12])[c:6]1[H:13])([H:7])([H:8])[H:9]>>[C:1]([C:2]1=[C:6]([H:13])[C:5]([H:11])([H:12])[N:4]=[C:3]1[H:10])([H:7])([H:8])[H:9]"
C        1.93385963       0.02637218       0.20949196
C        0.44965426      -0.02046300       0.05750572
C       -0.29826030      -1.11616057      -0.44862639
N       -1.59527741      -0.88736960      -0.34986863
C       -1.77701556       0.43485537       0.07783614
C       -0.47477866       0.97821611       0.29414338
H        2.22533936       0.54368004       1.12487871
H        2.37336291      -0.97212893       0.25204043
H        2.40045147       0.53997458      -0.63426343
H        0.07473567      -1.98919750      -0.96997588
H       -2.44076801      -0.12993722      -1.07683770
H       -2.60014963       0.63666224       0.75562035
H       -0.27115373       1.95549630       0.70805534
