16
Frame=0 idx=000029 GeodesicLength=0.0 rxn_smarts="[O:1]([C:2]1([H:8])[C:3]([H:9])([H:10])[C:4]([H:11])([H:12])[C:5]([H:13])([H:14])[C:6]1([H:15])[H:16])[H:7]>>[H:10][H:14].[O:1]([C@:2]1([H:8])[C:3]([H:9])=[C:4]([H:11])[C:5]([H:12])([H:13])[C:6]1([H:15])[H:16])[H:7]"
O       -2.04913444       0.12867893       0.74983812
C       -1.08175422       0.13443984      -0.31867553
C       -0.25688890      -1.12384643      -0.35019331
C        0.87819086      -0.90367819       0.47146597
C        1.19690430       0.51773059       0.42539420
C       -0.07071357       1.24672910       0.04240871
H       -2.57495471      -0.67069264       0.66962007
H       -1.60527815       0.33415505      -1.25740668
H       -0.68794893      -2.09632250      -0.54775882
H        0.95666201      -0.33971611      -1.66772575
H        1.65251060      -1.64544908       0.63173538
H        0.50600289      -0.52896629       1.50494071
H        2.00080525       0.96972058       0.99334403
H        1.51013780       0.20642941      -1.43599078
H       -0.48445321       1.83205418       0.86807577
H        0.10991245       1.93873353      -0.77907206
16
Frame=1 idx=000029 GeodesicLength=0.0946593134907038 rxn_smarts="[O:1]([C:2]1([H:8])[C:3]([H:9])([H:10])[C:4]([H:11])([H:12])[C:5]([H:13])([H:14])[C:6]1([H:15])[H:16])[H:7]>>[H:10][H:14].[O:1]([C@:2]1([H:8])[C:3]([H:9])=[C:4]([H:11])[C:5]([H:12])([H:13])[C:6]1([H:15])[H:16])[H:7]"
O       -2.05027559       0.12062710       0.74993325
C       -1.08416837       0.13651024      -0.31803152
C       -0.25421463      -1.11967031      -0.36137121
C        0.87189827      -0.90832348       0.47568393
C        1.19569779       0.51570888       0.42650900
C       -0.07398704       1.24754216       0.04686436
H       -2.57508339      -0.67872582       0.66392743
H       -1.60828612       0.34072282      -1.25571392
H       -0.68943848      -2.09105261      -0.55700645
H        0.95465093      -0.35386814      -1.66741815
H        1.64517780      -1.65227294       0.63145916
H        0.52136518      -0.50688714       1.52170432
H        2.00706636       0.97097352       0.98047968
H        1.52033698       0.20654886      -1.43154328
H       -0.48743836       1.83463635       0.87095816
H        0.10669865       1.93753050      -0.77643474
16
Frame=2 idx=000029 GeodesicLength=0.18932739550885355 rxn_smarts="[O:1]([C:2]1([H:8])[C:3]([H:9])([H:10])[C:4]([H:11])([H:12])[C:5]([H:13])([H:14])[C:6]1([H:15])[H:16])[H:7]>>[H:10][H:14].[O:1]([C@:2]1([H:8])[C:3]([H:9])=[C:4]([H:11])[C:5]([H:12])([H:13])[C:6]1([H:15])[H:16])[H:7]"
O       -2.05136683       0.11247900       0.75004235
C       -1.08663120       0.13853977      -0.31737903
C       -0.25157829      -1.11542983      -0.37259264
C        0.86512959      -0.91291810       0.48012889
C        1.19445226       0.51366740       0.42759795
C       -0.07732316       1.24831993       0.05133640
H       -2.57517747      -0.68679925       0.65822340
H       -1.61139979       0.34726597      -1.25395200
H       -0.69091635      -2.08568453      -0.56649657
H        0.95254045      -0.36825747      -1.66727452
H        1.63738019      -1.65905407       0.63126942
H        0.53763872      -0.48462878       1.53839199
H        2.01317096       0.97213846       0.96735562
H        1.53113388       0.20686556      -1.42672020
H       -0.49047630       1.83720216       0.87384335
H        0.10342335       1.93629379      -0.77377438
16
Frame=3 idx=000029 GeodesicLength=0.2840035217920946 rxn_smarts="[O:1]([C:2]1([H:8])[C:3]([H:9])([H:10])[C:4]([H:11])([H:12])[C:5]([H:13])([H:14])[C:6]1([H:15])[H:16])[H:7]>>[H:10][H:14].[O:1]([C@:2]1([H:8])[C:3]([H:9])=[C:4]([H:11])[C:5]([H:12])([H:13])[C:6]1([H:15])[H:16])[H:7]"
O       -2.05242090       0.10424794       0.75014897
C       -1.08914158       0.14052798      -0.31672079
C       -0.24898091      -1.11112734      -0.38382443
C        0.85790207      -0.91745455       0.48478018
C        1.19317113       0.51161009       0.42866193
C       -0.08072283       1.24906065       0.05583192
H       -2.57525341      -0.69489681       0.65249244
H       -1.61460455       0.35377460      -1.25213248
H       -0.69238407      -2.08022261      -0.57619205
H        0.95029774      -0.38291467      -1.66731380
H        1.62912754      -1.66578464       0.63117092
H        0.55485071      -0.46221836       1.55494690
H        2.01910236       0.97321917       0.95399307
H        1.54254003       0.20740829      -1.42150693
H       -0.49356655       1.83974282       0.87674404
H        0.10008320       1.93502743      -0.77107989
16
Frame=4 idx=000029 GeodesicLength=0.3786870286418983 rxn_smarts="[O:1]([C:2]1([H:8])[C:3]([H:9])([H:10])[C:4]([H:11])([H:12])[C:5]([H:13])([H:14])[C:6]1([H:15])[H:16])[H:7]>>[H:10][H:14].[O:1]([C@:2]1([H:8])[C:3]([H:9])=[C:4]([H:11])[C:5]([H:12])([H:13])[C:6]1([H:15])[H:16])[H:7]"
O       -2.05345194       0.09594870       0.75023555
C       -1.09169795       0.14247457      -0.31605953
C       -0.24642389      -1.10676662      -0.39503156
C        0.85023836      -0.92192567       0.48961433
C        1.19185833       0.50954132       0.42970263
C       -0.08418648       1.24976239       0.06035834
H       -2.57532992      -0.70300029       0.64671724
H       -1.61788404       0.36023898      -1.25026794
H       -0.69384414      -2.07467306      -0.58604990
H        0.94788512      -0.39787342      -1.66755682
H        1.62043528      -1.67245701       0.63116615
H        0.57302329      -0.43968625       1.57130872
H        2.02484320       0.97422241       0.94041673
H        1.55456768       0.20820909      -1.41588774
H       -0.49670827       1.84224923       0.87967345
H        0.09667537       1.93373562      -0.76833965
16
Frame=5 idx=000029 GeodesicLength=0.47337822578337957 rxn_smarts="[O:1]([C:2]1([H:8])[C:3]([H:9])([H:10])[C:4]([H:11])([H:12])[C:5]([H:13])([H:14])[C:6]1([H:15])[H:16])[H:7]>>[H:10][H:14].[O:1]([C@:2]1([H:8])[C:3]([H:9])=[C:4]([H:11])[C:5]([H:12])([H:13])[C:6]1([H:15])[H:16])[H:7]"
O       -2.05447541       0.08759701       0.75028411
C       -1.09429843       0.14437932      -0.31539800
C       -0.24390935      -1.10235314      -0.40617816
C        0.84216628      -0.92632488       0.49460543
C        1.19051835       0.50746596       0.43072276
C       -0.08771391       1.25042321       0.06492316
H       -2.57542815      -0.71109005       0.64087943
H       -1.62122078       0.36664961      -1.24837200
H       -0.69530074      -2.06904432      -0.59602207
H        0.94526001      -0.41317094      -1.66802741
H        1.61132457      -1.67906383       0.63125490
H        0.59217278      -0.41706524       1.58741515
H        2.03037581       0.97515820       0.92665501
H        1.56723088       0.20930387      -1.40984521
H       -0.49990011       1.84471251       0.88264505
H        0.09319820       1.93242272      -0.76554216
16
Frame=6 idx=000029 GeodesicLength=0.5680858761785708 rxn_smarts="[O:1]([C:2]1([H:8])[C:3]([H:9])([H:10])[C:4]([H:11])([H:12])[C:5]([H:13])([H:14])[C:6]1([H:15])[H:16])[H:7]>>[H:10][H:14].[O:1]([C@:2]1([H:8])[C:3]([H:9])=[C:4]([H:11])[C:5]([H:12])([H:13])[C:6]1([H:15])[H:16])[H:7]"
O       -2.05551041       0.07920772       0.75027890
C       -1.09694210       0.14624108      -0.31473941
C       -0.24144172      -1.09789540      -0.41722968
C        0.83371805      -0.93064659       0.49972616
C        1.18915796       0.50539081       0.43172715
C       -0.09130268       1.25104236       0.06953394
H       -2.57557529      -0.71914839       0.63496228
H       -1.62459813       0.37299590      -1.24646130
H       -0.69676327      -2.06334982      -0.60605845
H        0.94237622      -0.42884823      -1.66875706
H        1.60182207      -1.68559813       0.63143479
H        0.61230887      -0.39438899       1.60320664
H        2.03568561       0.97604269       0.91274171
H        1.58054923       0.21073412      -1.40336173
H       -0.50313863       1.84712621       0.88567412
H        0.08965422       1.93109465      -0.76267807
16
Frame=7 idx=000029 GeodesicLength=0.6627937310495701 rxn_smarts="[O:1]([C:2]1([H:8])[C:3]([H:9])([H:10])[C:4]([H:11])([H:12])[C:5]([H:13])([H:14])[C:6]1([H:15])[H:16])[H:7]>>[H:10][H:14].[O:1]([C@:2]1([H:8])[C:3]([H:9])=[C:4]([H:11])[C:5]([H:12])([H:13])[C:6]1([H:15])[H:16])[H:7]"
O       -2.05655938       0.07080488       0.75019391
C       -1.09962098       0.14806426      -0.31408343
C       -0.23901788      -1.09339633      -0.42814449
C        0.82493475      -0.93488706       0.50494150
C        1.18777660       0.50331430       0.43271474
C       -0.09495722       1.25161182       0.07419420
H       -2.57577753      -0.72713733       0.62893616
H       -1.62799227       0.37927692      -1.24453815
H       -0.69822480      -2.05758947      -0.61609239
H        0.93917053      -0.44495923      -1.66974854
H        1.59196261      -1.69205660       0.63169246
H        0.63343502      -0.37169783       1.61860324
H        2.04073646       0.97688101       0.89872041
H        1.59453132       0.21255010      -1.39641630
H       -0.50642684       1.84947421       0.88876001
H        0.08602962       1.92974636      -0.75973333
16
Frame=8 idx=000029 GeodesicLength=0.7574986644153979 rxn_smarts="[O:1]([C:2]1([H:8])[C:3]([H:9])([H:10])[C:4]([H:11])([H:12])[C:5]([H:13])([H:14])[C:6]1([H:15])[H:16])[H:7]>>[H:10][H:14].[O:1]([C@:2]1([H:8])[C:3]([H:9])=[C:4]([H:11])[C:5]([H:12])([H:13])[C:6]1([H:15])[H:16])[H:7]"
O       -2.05765277       0.06239455       0.75002566
C       -1.10233966       0.14984493      -0.31343207
C       -0.23664684      -1.08886856      -0.43889817
C        0.81584694      -0.93903995       0.51022665
C        1.18638262       0.50124745       0.43369471
C       -0.09867200       1.25213390       0.07891396
H       -2.57607371      -0.73505471       0.62279668
H       -1.63139596       0.38548125      -1.24261921
H       -0.69970306      -2.05178116      -0.62609856
H        0.93559678      -0.46153821      -1.67105908
H        1.58177119      -1.69843115       0.63202965
H        0.65554672      -0.34901095       1.63356114
H        2.04552930       0.97770780       0.88460570
H        1.60923160       0.21477321      -1.38897395
H       -0.50975992       1.85175681       0.89192798
H        0.08233876       1.92838480      -0.75670109
16
Frame=9 idx=000029 GeodesicLength=0.8522160411348514 rxn_smarts="[O:1]([C:2]1([H:8])[C:3]([H:9])([H:10])[C:4]([H:11])([H:12])[C:5]([H:13])([H:14])[C:6]1([H:15])[H:16])[H:7]>>[H:10][H:14].[O:1]([C@:2]1([H:8])[C:3]([H:9])=[C:4]([H:11])[C:5]([H:12])([H:13])[C:6]1([H:15])[H:16])[H:7]"
O       -2.05879286       0.05400104       0.74974977
C       -1.10508908       0.15158515      -0.31278983
C       -0.23433289      -1.08432185      -0.44945334
C        0.80650572      -0.94310724       0.51554438
C        1.18497849       0.49919015       0.43467360
C       -0.10244361       1.25260254       0.08369217
H       -2.57647712      -0.74286335       0.61651991
H       -1.63478293       0.39160398      -1.24072135
H       -0.70120935      -2.04593973      -0.63598920
H        0.93158266      -0.47865946      -1.67271664
H        1.57130129      -1.70471593       0.63242251
H        0.67863537      -0.32637684       1.64801197
H        2.05002698       0.97852840       0.87046621
H        1.62464847       0.21750024      -1.38100437
H       -0.51313104       1.85396261       0.89517262
H        0.07857989       1.92701030      -0.75357841
16
Frame=10 idx=000029 GeodesicLength=0.9469438738697205 rxn_smarts="[O:1]([C:2]1([H:8])[C:3]([H:9])([H:10])[C:4]([H:11])([H:12])[C:5]([H:13])([H:14])[C:6]1([H:15])[H:16])[H:7]>>[H:10][H:14].[O:1]([C@:2]1([H:8])[C:3]([H:9])=[C:4]([H:11])[C:5]([H:12])([H:13])[C:6]1([H:15])[H:16])[H:7]"
O       -2.05999919       0.04564246       0.74935934
C       -1.10786950       0.15328368      -0.31215636
C       -0.23208286      -1.07977153      -0.45978597
C        0.79695840      -0.94709009       0.52085513
C        1.18357354       0.49714876       0.43565825
C       -0.10626775       1.25301588       0.08853108
H       -2.57701796      -0.75054070       0.61009821
H       -1.63814306       0.39763624      -1.23885251
H       -0.70275841      -2.04008500      -0.64571022
H        0.92705046      -0.49637737      -1.67476494
H        1.56060308      -1.71090789       0.63284237
H        0.70267665      -0.30382365       1.66189866
H        2.05420814       0.97937938       0.85636725
H        1.64084481       0.22077722      -1.37247679
H       -0.51653766       1.85609300       0.89849984
H        0.07476132       1.92561961      -0.75036333
16
Frame=11 idx=000029 GeodesicLength=1.0416767043629471 rxn_smarts="[O:1]([C:2]1([H:8])[C:3]([H:9])([H:10])[C:4]([H:11])([H:12])[C:5]([H:13])([H:14])[C:6]1([H:15])[H:16])[H:7]>>[H:10][H:14].[O:1]([C@:2]1([H:8])[C:3]([H:9])=[C:4]([H:11])[C:5]([H:12])([H:13])[C:6]1([H:15])[H:16])[H:7]"
O       -2.06127831       0.03733495       0.74884481
C       -1.11067647       0.15494068      -0.31153244
C       -0.22990368      -1.07522991      -0.46987170
C        0.78725304      -0.95099196       0.52612154
C        1.18217109       0.49512463       0.43665653
C       -0.11013968       1.25336867       0.09342895
H       -2.57771545      -0.75805958       0.60351926
H       -1.64146219       0.40357446      -1.23702072
H       -0.70436566      -2.03423145      -0.65520087
H        0.92191748      -0.51476580      -1.67724873
H        1.54972850      -1.71700270       0.63326074
H        0.72764495      -0.28138099       1.67516834
H        2.05804512       0.98028594       0.84236966
H        1.65786593       0.22468252      -1.36334443
H       -0.51997378       1.85814315       0.90190653
H        0.07088912       1.92420739      -0.74705747
16
Frame=12 idx=000029 GeodesicLength=1.1364126223162725 rxn_smarts="[O:1]([C:2]1([H:8])[C:3]([H:9])([H:10])[C:4]([H:11])([H:12])[C:5]([H:13])([H:14])[C:6]1([H:15])[H:16])[H:7]>>[H:10][H:14].[O:1]([C@:2]1([H:8])[C:3]([H:9])=[C:4]([H:11])[C:5]([H:12])([H:13])[C:6]1([H:15])[H:16])[H:7]"
O       -2.06263644       0.02909398       0.74820177
C       -1.11350694       0.15655567      -0.31091815
C       -0.22780413      -1.07071131      -0.47969177
C        0.77743944      -0.95481913       0.53130376
C        1.18077569       0.49311903       0.43767788
C       -0.11405322       1.25365618       0.09838116
H       -2.57858979      -0.76539417       0.59677719
H       -1.64473116       0.40941477      -1.23523162
H       -0.70605065      -2.02839610      -0.66440384
H        0.91609025      -0.53390630      -1.68022122
H        1.53873481      -1.72299713       0.63364044
H        0.75350602      -0.25907422       1.68777358
H        2.06151040       0.98127905       0.82854472
H        1.67577539       0.22930108      -1.35355147
H       -0.52343272       1.86011300       0.90538522
H        0.06697302       1.92276559      -0.74366766
16
Frame=13 idx=000029 GeodesicLength=1.2311506869981197 rxn_smarts="[O:1]([C:2]1([H:8])[C:3]([H:9])([H:10])[C:4]([H:11])([H:12])[C:5]([H:13])([H:14])[C:6]1([H:15])[H:16])[H:7]>>[H:10][H:14].[O:1]([C@:2]1([H:8])[C:3]([H:9])=[C:4]([H:11])[C:5]([H:12])([H:13])[C:6]1([H:15])[H:16])[H:7]"
O       -2.06407627       0.02093411       0.74743025
C       -1.11635810       0.15812774      -0.31031308
C       -0.22579453      -1.06623091      -0.48923255
C        0.76756854      -0.95858085       0.53635938
C        1.17939167       0.49113199       0.43873320
C       -0.11800075       1.25387325       0.10337936
H       -2.57965901      -0.77251880       0.58987173
H       -1.64794458       0.41515381      -1.23348822
H       -0.70783662      -2.02259651      -0.67326347
H        0.90946282      -0.55389169      -1.68374348
H        1.52768379      -1.72888872       0.63393536
H        0.78021748      -0.23692512       1.69967278
H        2.06457451       0.98239309       0.81497343
H        1.69465165       0.23473046      -1.34303011
H       -0.52690645       1.86200558       0.90892204
H        0.06302585       1.92128258      -0.74020663
16
Frame=14 idx=000029 GeodesicLength=1.325890943509982 rxn_smarts="[O:1]([C:2]1([H:8])[C:3]([H:9])([H:10])[C:4]([H:11])([H:12])[C:5]([H:13])([H:14])[C:6]1([H:15])[H:16])[H:7]>>[H:10][H:14].[O:1]([C@:2]1([H:8])[C:3]([H:9])=[C:4]([H:11])[C:5]([H:12])([H:13])[C:6]1([H:15])[H:16])[H:7]"
O       -2.06559625       0.01286911       0.74653530
C       -1.11922732       0.15965557      -0.30971633
C       -0.22388689      -1.06180464      -0.49848599
C        0.75769240      -0.96228960       0.54124268
C        1.17802307       0.48916210       0.43983502
C       -0.12197300       1.25401422       0.10841074
H       -2.58093825      -0.77940795       0.58280940
H       -1.65110128       0.42078854      -1.23179063
H       -0.70975089      -2.01685035      -0.68172602
H        0.90191431      -0.57482856      -1.68788568
H        1.51664191      -1.73467572       0.63408904
H        0.80772834      -0.21495190       1.71083048
H        2.06720537       0.98366587       0.80174811
H        1.71458993       0.24108340      -1.33169757
H       -0.53038537       1.86382748       0.91249549
H        0.05906392       1.91974243      -0.73669403
16
Frame=15 idx=000029 GeodesicLength=1.4206345741740805 rxn_smarts="[O:1]([C:2]1([H:8])[C:3]([H:9])([H:10])[C:4]([H:11])([H:12])[C:5]([H:13])([H:14])[C:6]1([H:15])[H:16])[H:7]>>[H:10][H:14].[O:1]([C@:2]1([H:8])[C:3]([H:9])=[C:4]([H:11])[C:5]([H:12])([H:13])[C:6]1([H:15])[H:16])[H:7]"
O       -2.06718982       0.00491233       0.74552743
C       -1.12211206       0.16113723      -0.30912663
C       -0.22209500      -1.05744911      -0.50744992
C        0.74786483      -0.96596145       0.54590316
C        1.17667384       0.48720627       0.44099764
C       -0.12595862       1.25407284       0.11345713
H       -2.58243924      -0.78603582       0.57560463
H       -1.65420480       0.42631583      -1.23013576
H       -0.71182547      -2.01117537      -0.68973853
H        0.89330537      -0.59683983      -1.69272836
H        1.50568154      -1.74035688       0.63403205
H        0.83597770      -0.19316961       1.72121765
H        2.06936744       0.98513904       0.78897557
H        1.73570437       0.24849096      -1.31945319
H       -0.53385784       1.86558950       0.91607492
H        0.05510778       1.91812410      -0.73315779
16
Frame=16 idx=000029 GeodesicLength=1.5153840863683483 rxn_smarts="[O:1]([C:2]1([H:8])[C:3]([H:9])([H:10])[C:4]([H:11])([H:12])[C:5]([H:13])([H:14])[C:6]1([H:15])[H:16])[H:7]>>[H:10][H:14].[O:1]([C@:2]1([H:8])[C:3]([H:9])=[C:4]([H:11])[C:5]([H:12])([H:13])[C:6]1([H:15])[H:16])[H:7]"
O       -2.06884480      -0.00292343       0.74442311
C       -1.12500981       0.16257009      -0.30854236
C       -0.22043449      -1.05318157      -0.51612861
C        0.73814181      -0.96961621       0.55028442
C        1.17534800       0.48525965       0.44223725
C       -0.12994384       1.25404237       0.11849437
H       -2.58416987      -0.79237654       0.56828055
H       -1.65726375       0.43173224      -1.22851717
H       -0.71409765      -2.00558918      -0.69724872
H        0.88347374      -0.62006736      -1.69836436
H        1.49488136      -1.74593156       0.63368045
H        0.86489412      -0.17158987       1.73081232
H        2.07102149       0.98685861       0.77677808
H        1.75813067       0.25710469      -1.30617379
H       -0.53730980       1.86730710       0.91961952
H        0.05118280       1.91640097      -0.72963507
