14
Frame=0 idx=001532 GeodesicLength=0.0 rxn_smarts="[C:1]([C@:2]12[C:3]([H:10])([H:11])[C@@:4]1([H:12])[C:5]([H:13])([H:14])[O:6]2)([H:7])([H:8])[H:9]>>[C:1]([O:6][C:5]([C@@:4]1([H:12])[C:2][C:3]1([H:10])[H:11])([H:13])[H:14])([H:7])([H:8])[H:9]"
C       -1.62630123      -0.36571992       0.94382559
C       -0.50736937       0.50392868      -0.50603890
C        0.61713600       1.22355455      -1.17329285
C        0.74171600      -0.25610152      -0.95267777
C        1.06081145      -0.57196956       0.47941656
O        0.03805511       0.33717159       0.96865426
H       -1.37460976      -0.89332815       1.86636353
H       -2.26663251       0.48825051       1.10431894
H       -2.00794461      -1.03606598       0.18649586
H        1.21196303       1.93040265      -0.60346198
H        0.42609323       1.50924218      -2.20075853
H        0.83498015      -0.95845912      -1.76970560
H        2.04282024      -0.31327718       0.88732657
H        0.80928229      -1.59762877       0.76953431
14
Frame=1 idx=001532 GeodesicLength=0.05115847532730756 rxn_smarts="[C:1]([C@:2]12[C:3]([H:10])([H:11])[C@@:4]1([H:12])[C:5]([H:13])([H:14])[O:6]2)([H:7])([H:8])[H:9]>>[C:1]([O:6][C:5]([C@@:4]1([H:12])[C:2][C:3]1([H:10])[H:11])([H:13])[H:14])([H:7])([H:8])[H:9]"
C       -1.62758005      -0.36182140       0.94749787
C       -0.50612869       0.49668099      -0.52188207
C        0.61780715       1.22358218      -1.17928827
C        0.75089776      -0.25411627      -0.95404412
C        1.06148697      -0.57335497       0.47989998
O        0.03942894       0.33281116       0.97052616
H       -1.38329985      -0.89797871       1.86745211
H       -2.26457012       0.49338910       1.11927313
H       -2.02811337      -1.03160587       0.19826673
H        1.19676991       1.93648201      -0.60067826
H        0.43441991       1.50973104      -2.20801393
H        0.85131725      -0.95723631      -1.76960225
H        2.04186399      -0.31333269       0.89089256
H        0.81570020      -1.60323026       0.75970035
14
Frame=2 idx=001532 GeodesicLength=0.10225238348621066 rxn_smarts="[C:1]([C@:2]12[C:3]([H:10])([H:11])[C@@:4]1([H:12])[C:5]([H:13])([H:14])[O:6]2)([H:7])([H:8])[H:9]>>[C:1]([O:6][C:5]([C@@:4]1([H:12])[C:2][C:3]1([H:10])[H:11])([H:13])[H:14])([H:7])([H:8])[H:9]"
C       -1.62884691      -0.35789689       0.95109664
C       -0.50482862       0.48911529      -0.53793235
C        0.61837354       1.22355968      -1.18525984
C        0.76015225      -0.25209945      -0.95536535
C        1.06217103      -0.57482283       0.48035853
O        0.04085001       0.32833415       0.97250553
H       -1.39220656      -0.90255514       1.86842165
H       -2.26228410       0.49851862       1.13435043
H       -2.04840863      -1.02666038       0.21018007
H        1.18107967       1.94240296      -0.59798238
H        0.44273361       1.51025618      -2.21517942
H        0.86801933      -0.95586727      -1.76945210
H        2.04091695      -0.31348391       0.89441703
H        0.82227845      -1.60880101       0.74984154
14
Frame=3 idx=001532 GeodesicLength=0.1532679392181736 rxn_smarts="[C:1]([C@:2]12[C:3]([H:10])([H:11])[C@@:4]1([H:12])[C:5]([H:13])([H:14])[O:6]2)([H:7])([H:8])[H:9]>>[C:1]([O:6][C:5]([C@@:4]1([H:12])[C:2][C:3]1([H:10])[H:11])([H:13])[H:14])([H:7])([H:8])[H:9]"
C       -1.63010040      -0.35395222       0.95461437
C       -0.50346187       0.48124541      -0.55418176
C        0.61883707       1.22348747      -1.19120325
C        0.76946301      -0.25004879      -0.95663529
C        1.06286411      -0.57636810       0.48079439
O        0.04231978       0.32374172       0.97460535
H       -1.40133009      -0.90704880       1.86926917
H       -2.25978558       0.50361743       1.14952880
H       -2.06878797      -1.02122815       0.22221675
H        1.16491459       1.94814076      -0.59538478
H        0.45102534       1.51082767      -2.22224439
H        0.88503493      -0.95435381      -1.76924348
H        2.03998389      -0.31372726       0.89789396
H        0.82902318      -1.61433333       0.73997016
14
Frame=4 idx=001532 GeodesicLength=0.20419138916267582 rxn_smarts="[C:1]([C@:2]12[C:3]([H:10])([H:11])[C@@:4]1([H:12])[C:5]([H:13])([H:14])[O:6]2)([H:7])([H:8])[H:9]>>[C:1]([O:6][C:5]([C@@:4]1([H:12])[C:2][C:3]1([H:10])[H:11])([H:13])[H:14])([H:7])([H:8])[H:9]"
C       -1.63133909      -0.34999399       0.95804430
C       -0.50202097       0.47308809      -0.57062162
C        0.61920156       1.22336664      -1.19711422
C        0.77881187      -0.24796221      -0.95784823
C        1.06356641      -0.57798496       0.48120976
O        0.04383969       0.31903632       0.97683881
H       -1.41066925      -0.91145035       1.86999336
H       -2.25708864       0.50866283       1.16478493
H       -2.08920708      -1.01531243       0.23435681
H        1.14830008       1.95367090      -0.59289472
H        0.45928821       1.51145601      -2.22919888
H        0.90230754      -0.95269976      -1.76896578
H        2.03906967      -0.31405846       0.90131680
H        0.83594000      -1.61981863       0.73009867
14
Frame=5 idx=001532 GeodesicLength=0.25501496214090963 rxn_smarts="[C:1]([C@:2]12[C:3]([H:10])([H:11])[C@@:4]1([H:12])[C:5]([H:13])([H:14])[O:6]2)([H:7])([H:8])[H:9]>>[C:1]([O:6][C:5]([C@@:4]1([H:12])[C:2][C:3]1([H:10])[H:11])([H:13])[H:14])([H:7])([H:8])[H:9]"
C       -1.63256241      -0.34603016       0.96138040
C       -0.50049746       0.46466471      -0.58724480
C        0.61947327       1.22319882      -1.20298845
C        0.78817917      -0.24583771      -0.95899888
C        1.06427778      -0.57966650       0.48160621
O        0.04541035       0.31421998       0.97921869
H       -1.42022273      -0.91575084       1.87059456
H       -2.25421074       0.51363057       1.18009619
H       -2.10962179      -1.00892166       0.24658238
H        1.13126569       1.95896951      -0.59052310
H        0.46751909       1.51215196      -2.23603259
H        0.91977663      -0.95090981      -1.76860800
H        2.03817937      -0.31447160       0.90467804
H        0.84303378      -1.62524729       0.72023936
14
Frame=6 idx=001532 GeodesicLength=0.3057181869954531 rxn_smarts="[C:1]([C@:2]12[C:3]([H:10])([H:11])[C@@:4]1([H:12])[C:5]([H:13])([H:14])[O:6]2)([H:7])([H:8])[H:9]>>[C:1]([O:6][C:5]([C@@:4]1([H:12])[C:2][C:3]1([H:10])[H:11])([H:13])[H:14])([H:7])([H:8])[H:9]"
C       -1.63376851      -0.34206761       0.96461989
C       -0.49888899       0.45599560      -0.60404131
C        0.61965767       1.22298690      -1.20882278
C        0.79754466      -0.24367476      -0.96008428
C        1.06499549      -0.58140648       0.48198567
O        0.04703279       0.30929781       0.98175609
H       -1.42998115      -0.91993175       1.87107963
H       -2.25117198       0.51849807       1.19543177
H       -2.12998233      -1.00207397       0.25887477
H        1.11384311       1.96401920      -0.58826282
H        0.47571723       1.51292597      -2.24274175
H        0.93737996      -0.94899492      -1.76816733
H        2.03731528      -0.31496295       0.90796984
H        0.85030674      -1.63061109       0.71040261
14
Frame=7 idx=001532 GeodesicLength=0.35628148717174724 rxn_smarts="[C:1]([C@:2]12[C:3]([H:10])([H:11])[C@@:4]1([H:12])[C:5]([H:13])([H:14])[O:6]2)([H:7])([H:8])[H:9]>>[C:1]([O:6][C:5]([C@@:4]1([H:12])[C:2][C:3]1([H:10])[H:11])([H:13])[H:14])([H:7])([H:8])[H:9]"
C       -1.63494883      -0.33806974       0.96775456
C       -0.49721284       0.44708689      -0.62101461
C        0.61972655       1.22272320      -1.21460226
C        0.80688357      -0.24147968      -0.96110180
C        1.06570651      -0.58320557       0.48234408
O        0.04871690       0.30425767       0.98447563
H       -1.43994530      -0.92393729       1.87145459
H       -2.24798064       0.52327474       1.21071020
H       -2.15013246      -0.99482358       0.27121384
H        1.09607049       1.96879351      -0.58608606
H        0.48383619       1.51379276      -2.24928759
H        0.95506138      -0.94695040      -1.76762196
H        2.03647082      -0.31554461       0.91117231
H        0.85774767      -1.63591788       0.70058908
14
Frame=8 idx=001532 GeodesicLength=0.4067487644661394 rxn_smarts="[C:1]([C@:2]12[C:3]([H:10])([H:11])[C@@:4]1([H:12])[C:5]([H:13])([H:14])[O:6]2)([H:7])([H:8])[H:9]>>[C:1]([O:6][C:5]([C@@:4]1([H:12])[C:2][C:3]1([H:10])[H:11])([H:13])[H:14])([H:7])([H:8])[H:9]"
C       -1.63611989      -0.33409452       0.97079483
C       -0.49542302       0.43794601      -0.63816701
C        0.61972596       1.22241936      -1.22034052
C        0.81620703      -0.23924130      -0.96204790
C        1.06643027      -0.58505837       0.48268843
O        0.05045086       0.29911215       0.98735794
H       -1.45011254      -0.92784695       1.87170784
H       -2.24463434       0.52792522       1.22604382
H       -2.17025965      -0.98707498       0.28360511
H        1.07789092       1.97329259      -0.58406402
H        0.49193941       1.51474198      -2.25570614
H        0.97286637      -0.94477885      -1.76698849
H        2.03566248      -0.31619548       0.91430784
H        0.86537615      -1.64114685       0.69080828
14
Frame=9 idx=001532 GeodesicLength=0.45708366796605426 rxn_smarts="[C:1]([C@:2]12[C:3]([H:10])([H:11])[C@@:4]1([H:12])[C:5]([H:13])([H:14])[O:6]2)([H:7])([H:8])[H:9]>>[C:1]([O:6][C:5]([C@@:4]1([H:12])[C:2][C:3]1([H:10])[H:11])([H:13])[H:14])([H:7])([H:8])[H:9]"
C       -1.63726398      -0.33007657       0.97373685
C       -0.49354547       0.42854891      -0.65549442
C        0.61958757       1.22204764      -1.22602741
C        0.82548986      -0.23697215      -0.96292738
C        1.06715059      -0.58697193       0.48301216
O        0.05225037       0.29384622       0.99043732
H       -1.46047722      -0.93156736       1.87185137
H       -2.24114511       0.53250160       1.24131658
H       -2.19016943      -0.97892157       0.29601317
H        1.05935744       1.97747724      -0.58210121
H        0.49994716       1.51578581      -2.26196644
H        0.99075656      -0.94245028      -1.76625077
H        2.03488324      -0.31693392       0.91735013
H        0.87317840      -1.64631365       0.68105005
14
Frame=10 idx=001532 GeodesicLength=0.5073051444165846 rxn_smarts="[C:1]([C@:2]12[C:3]([H:10])([H:11])[C@@:4]1([H:12])[C:5]([H:13])([H:14])[O:6]2)([H:7])([H:8])[H:9]>>[C:1]([O:6][C:5]([C@@:4]1([H:12])[C:2][C:3]1([H:10])[H:11])([H:13])[H:14])([H:7])([H:8])[H:9]"
C       -1.63839548      -0.32604434       0.97658444
C       -0.49156224       0.41890375      -0.67301192
C        0.61934725       1.22162812      -1.23166450
C        0.83474109      -0.23466644      -0.96373617
C        1.06787211      -0.58894852       0.48331729
O        0.05410269       0.28845509       0.99369812
H       -1.47103634      -0.93514107       1.87187355
H       -2.23749979       0.53697029       1.25659988
H       -2.20994750      -0.97028895       0.30845911
H        1.04040889       1.98136919      -0.58026689
H        0.50790378       1.51692351      -2.26807367
H        1.00877360      -0.93998250      -1.76541068
H        2.03413401      -0.31775930       0.92031310
H        0.88115793      -1.65141882       0.67131833
14
Frame=11 idx=001532 GeodesicLength=0.55743446073351 rxn_smarts="[C:1]([C@:2]12[C:3]([H:10])([H:11])[C@@:4]1([H:12])[C:5]([H:13])([H:14])[O:6]2)([H:7])([H:8])[H:9]>>[C:1]([O:6][C:5]([C@@:4]1([H:12])[C:2][C:3]1([H:10])[H:11])([H:13])[H:14])([H:7])([H:8])[H:9]"
C       -1.63951382      -0.32197600       0.97934951
C       -0.48947108       0.40895746      -0.69073409
C        0.61897786       1.22114402      -1.23725212
C        0.84397196      -0.23232720      -0.96447286
C        1.06860009      -0.59099808       0.48360553
O        0.05602379       0.28293236       0.99714467
H       -1.48179565      -0.93857234       1.87176709
H       -2.23366419       0.54136763       1.27191712
H       -2.22962007      -0.96112314       0.32091627
H        1.02096779       1.98495717      -0.57853006
H        0.51579029       1.51814190      -2.27403346
H        1.02699264      -0.93735358      -1.76448108
H        2.03341861      -0.31868059       0.92319940
H        0.88932179      -1.65646961       0.66160408
14
Frame=12 idx=001532 GeodesicLength=0.6074842180028472 rxn_smarts="[C:1]([C@:2]12[C:3]([H:10])([H:11])[C@@:4]1([H:12])[C:5]([H:13])([H:14])[O:6]2)([H:7])([H:8])[H:9]>>[C:1]([O:6][C:5]([C@@:4]1([H:12])[C:2][C:3]1([H:10])[H:11])([H:13])[H:14])([H:7])([H:8])[H:9]"
C       -1.64062018      -0.31786000       0.98202932
C       -0.48725707       0.39867859      -0.70867943
C        0.61845590       1.22058603      -1.24278944
C        0.85318925      -0.22995499      -0.96513536
C        1.06933732      -0.59313162       0.48387441
O        0.05800572       0.27725197       1.00077559
H       -1.49275676      -0.94187287       1.87150354
H       -2.22960382       0.54571019       1.28730633
H       -2.24921086      -0.95135962       0.33338658
H        1.00096914       1.98823494      -0.57691315
H        0.52360038       1.51943866      -2.27983515
H        1.04547741      -0.93453997      -1.76344090
H        2.03273734      -0.31970321       0.92601315
H        0.89767623      -1.66147807       0.65190451
14
Frame=13 idx=001532 GeodesicLength=0.6574393346498062 rxn_smarts="[C:1]([C@:2]12[C:3]([H:10])([H:11])[C@@:4]1([H:12])[C:5]([H:13])([H:14])[O:6]2)([H:7])([H:8])[H:9]>>[C:1]([O:6][C:5]([C@@:4]1([H:12])[C:2][C:3]1([H:10])[H:11])([H:13])[H:14])([H:7])([H:8])[H:9]"
C       -1.64171318      -0.31368564       0.98462287
C       -0.48492647       0.38808257      -0.72684307
C        0.61777837       1.21995348      -1.24827214
C        0.86237868      -0.22755076      -0.96572606
C        1.07007728      -0.59534652       0.48412211
O        0.06005935       0.27142148       1.00460392
H       -1.50391110      -0.94498381       1.87111839
H       -2.22535647       0.54999288       1.30268844
H       -2.26863597      -0.94107341       0.34587500
H        0.98046233       1.99117101      -0.57537411
H        0.53131438       1.52083299      -2.28546964
H        1.06417504      -0.93153765      -1.76230122
H        2.03208971      -0.32083609       0.92874617
H        0.90620805      -1.66644052       0.64220933
14
Frame=14 idx=001532 GeodesicLength=0.7073200906508774 rxn_smarts="[C:1]([C@:2]12[C:3]([H:10])([H:11])[C@@:4]1([H:12])[C:5]([H:13])([H:14])[O:6]2)([H:7])([H:8])[H:9]>>[C:1]([O:6][C:5]([C@@:4]1([H:12])[C:2][C:3]1([H:10])[H:11])([H:13])[H:14])([H:7])([H:8])[H:9]"
C       -1.64279200      -0.30944324       0.98713434
C       -0.48245803       0.37713136      -0.74523835
C        0.61692636       1.21923843      -1.25370013
C        0.87154494      -0.22511363      -0.96623907
C        1.07082686      -0.59765316       0.48435236
O        0.06218532       0.26542172       1.00863391
H       -1.51526449      -0.94793948       1.87057491
H       -2.22088040       0.55423329       1.31811993
H       -2.28793548      -0.93017421       0.35835440
H        0.95936721       1.99375651      -0.57394506
H        0.53891948       1.52231665      -2.29093219
H        1.08315009      -0.92832560      -1.76104417
H        2.03148148      -0.32208314       0.93140481
H        0.91492868      -1.67136552       0.63252433
14
Frame=15 idx=001532 GeodesicLength=0.7571422450389792 rxn_smarts="[C:1]([C@:2]12[C:3]([H:10])([H:11])[C@@:4]1([H:12])[C:5]([H:13])([H:14])[O:6]2)([H:7])([H:8])[H:9]>>[C:1]([O:6][C:5]([C@@:4]1([H:12])[C:2][C:3]1([H:10])[H:11])([H:13])[H:14])([H:7])([H:8])[H:9]"
C       -1.64385622      -0.30510852       0.98957094
C       -0.47984558       0.36577344      -0.76388362
C        0.61587144       1.21842654      -1.25907042
C        0.88070344      -0.22264466      -0.96667254
C        1.07159092      -0.60006502       0.48456318
O        0.06439188       0.25923525       1.01286773
H       -1.52682422      -0.95073128       1.86986296
H       -2.21614454       0.55845831       1.33362067
H       -2.30712637      -0.91860186       0.37081541
H        0.93759811       1.99597218      -0.57260963
H        0.54639842       1.52388217      -2.29621760
H        1.10248215      -0.92487357      -1.75967094
H        2.03091556      -0.32345768       0.93399161
H        0.92384502      -1.67626530       0.62283224
14
Frame=16 idx=001532 GeodesicLength=0.8069188447077668 rxn_smarts="[C:1]([C@:2]12[C:3]([H:10])([H:11])[C@@:4]1([H:12])[C:5]([H:13])([H:14])[O:6]2)([H:7])([H:8])[H:9]>>[C:1]([O:6][C:5]([C@@:4]1([H:12])[C:2][C:3]1([H:10])[H:11])([H:13])[H:14])([H:7])([H:8])[H:9]"
C       -1.64490581      -0.30065899       0.99193113
C       -0.47707454       0.35396042      -0.78279718
C        0.61458365       1.21750340      -1.26438053
C        0.88986731      -0.22014356      -0.96702305
C        1.07237483      -0.60259659       0.48475309
O        0.06668386       0.25283858       1.01730613
H       -1.53859964      -0.95336207       1.86895673
H       -2.21110921       0.56269369       1.34921895
H       -2.32622731      -0.90628545       0.38325624
H        0.91506920       1.99779977      -0.57137034
H        0.55372800       1.52552413      -2.30131566
H        1.12225174      -0.92114655      -1.75817031
H        2.03039494      -0.32497354       0.93651102
H        0.93296296      -1.68115325       0.61312380
