13
Frame=0 idx=009674 GeodesicLength=0.0 rxn_smarts="[C:1]([c:2]1[n:3][c:4]([H:11])[c:5]([O:6][H:12])[n:7]1[H:13])([H:8])([H:9])[H:10]>>[C:1]([C:2]1=[N:3][C@:4]([O:6][H:12])([H:11])[C-:5]=[N+:7]1[H:13])([H:8])([H:9])[H:10]"
C        1.93350173      -0.40127954       0.09103423
C        0.51764209      -0.00669757      -0.12283113
N       -0.16529359      -0.28651785      -1.21478195
C       -1.37263551       0.32446297      -1.00414426
C       -1.47939508       1.05336206       0.25954427
O       -2.37809191      -0.30730882       0.31089246
N       -0.19971567       0.68029018       0.78587858
H        2.34848919      -0.78611920      -0.83656080
H        1.99822079      -1.17585726       0.85771469
H        2.52143924       0.45326458       0.42973352
H       -2.10655675       0.35718227      -1.79526498
H       -1.81433049      -1.02013094       0.63895258
H        0.19672601       1.11534908       1.59983275
13
Frame=1 idx=009674 GeodesicLength=0.07104951966845115 rxn_smarts="[C:1]([c:2]1[n:3][c:4]([H:11])[c:5]([O:6][H:12])[n:7]1[H:13])([H:8])([H:9])[H:10]>>[C:1]([C:2]1=[N:3][C@:4]([O:6][H:12])([H:11])[C-:5]=[N+:7]1[H:13])([H:8])([H:9])[H:10]"
C        1.94636725      -0.39208241       0.08656102
C        0.52086749      -0.02673170      -0.11567345
N       -0.16586815      -0.31110098      -1.20123131
C       -1.37139562       0.31142129      -0.99508819
C       -1.46170529       1.05571444       0.25792581
O       -2.40561549      -0.27806832       0.32041696
N       -0.19637764       0.66848686       0.79224327
H        2.35481820      -0.79045843      -0.83823706
H        2.03454945      -1.14825728       0.86916774
H        2.52589628       0.47879348       0.39726408
H       -2.09023994       0.37464069      -1.79838248
H       -1.88860986      -1.03875431       0.61356706
H        0.19731332       1.09639668       1.61146654
13
Frame=2 idx=009674 GeodesicLength=0.14169629880608475 rxn_smarts="[C:1]([c:2]1[n:3][c:4]([H:11])[c:5]([O:6][H:12])[n:7]1[H:13])([H:8])([H:9])[H:10]>>[C:1]([C:2]1=[N:3][C@:4]([O:6][H:12])([H:11])[C-:5]=[N+:7]1[H:13])([H:8])([H:9])[H:10]"
C        1.95903058      -0.38276719       0.08186968
C        0.52476854      -0.04587242      -0.10849668
N       -0.16640806      -0.33580111      -1.18693314
C       -1.37030794       0.29776983      -0.98513714
C       -1.44416842       1.05653564       0.25734006
O       -2.43111829      -0.24989479       0.33059804
N       -0.19243186       0.65731423       0.79876817
H        2.36124705      -0.79481530      -0.83968726
H        2.07008119      -1.11989036       0.87965276
H        2.52971669       0.50344919       0.36459564
H       -2.07268632       0.39108724      -1.80031601
H       -1.96626485      -1.05578302       0.58491640
H        0.19854169       1.07866805       1.62282950
13
Frame=3 idx=009674 GeodesicLength=0.21181305164754455 rxn_smarts="[C:1]([c:2]1[n:3][c:4]([H:11])[c:5]([O:6][H:12])[n:7]1[H:13])([H:8])([H:9])[H:10]>>[C:1]([C:2]1=[N:3][C@:4]([O:6][H:12])([H:11])[C-:5]=[N+:7]1[H:13])([H:8])([H:9])[H:10]"
C        1.97148495      -0.37342541       0.07700540
C        0.52947207      -0.06357471      -0.10155246
N       -0.16685637      -0.36037034      -1.17196585
C       -1.36945547       0.28349649      -0.97427043
C       -1.42706600       1.05573720       0.25787737
O       -2.45438934      -0.22349087       0.34158697
N       -0.18778841       0.64716984       0.80528277
H        2.36780894      -0.79914059      -0.84090998
H        2.10436216      -1.09115617       0.88906173
H        2.53319228       0.52688358       0.33216110
H       -2.05414561       0.40625446      -1.80092121
H       -2.04710540      -1.07089805       0.55284461
H        0.20048620       1.06251456       1.63379996
13
Frame=4 idx=009674 GeodesicLength=0.2812563987328444 rxn_smarts="[C:1]([c:2]1[n:3][c:4]([H:11])[c:5]([O:6][H:12])[n:7]1[H:13])([H:8])([H:9])[H:10]>>[C:1]([C:2]1=[N:3][C@:4]([O:6][H:12])([H:11])[C-:5]=[N+:7]1[H:13])([H:8])([H:9])[H:10]"
C        1.98369259      -0.36424604       0.07208985
C        0.53512478      -0.07902047      -0.09524290
N       -0.16708716      -0.38416037      -1.15660503
C       -1.36900448       0.26866402      -0.96245047
C       -1.41082471       1.05319832       0.25972571
O       -2.47510098      -0.19990842       0.35369460
N       -0.18233121       0.63864900       0.81153437
H        2.37447467      -0.80365294      -0.84176886
H        2.13667008      -1.06259394       0.89745436
H        2.53681591       0.54857399       0.30049815
H       -2.03515165       0.41987842      -1.79993930
H       -2.13059608      -1.08404677       0.51695899
H        0.20331824       1.04866518       1.64405053
13
Frame=5 idx=009674 GeodesicLength=0.35002936277537006 rxn_smarts="[C:1]([c:2]1[n:3][c:4]([H:11])[c:5]([O:6][H:12])[n:7]1[H:13])([H:8])([H:9])[H:10]>>[C:1]([C:2]1=[N:3][C@:4]([O:6][H:12])([H:11])[C-:5]=[N+:7]1[H:13])([H:8])([H:9])[H:10]"
C        1.99592395      -0.35499092       0.06696711
C        0.54164020      -0.09286988      -0.08926571
N       -0.16722888      -0.40815681      -1.14034421
C       -1.36876763       0.25307150      -0.94968346
C       -1.39530161       1.04897313       0.26276726
O       -2.49373113      -0.17896102       0.36674614
N       -0.17606806       0.63138232       0.81765613
H        2.38141664      -0.80788399      -0.84257425
H        2.16796347      -1.03393890       0.90472323
H        2.54052915       0.56914715       0.26922148
H       -2.01532776       0.43194909      -1.79754772
H       -2.21792282      -1.09396188       0.47728561
H        0.20687448       1.03624020       1.65404840
13
Frame=6 idx=009674 GeodesicLength=0.417926153658831 rxn_smarts="[C:1]([c:2]1[n:3][c:4]([H:11])[c:5]([O:6][H:12])[n:7]1[H:13])([H:8])([H:9])[H:10]>>[C:1]([C:2]1=[N:3][C@:4]([O:6][H:12])([H:11])[C-:5]=[N+:7]1[H:13])([H:8])([H:9])[H:10]"
C        2.00809724      -0.34594002       0.06182235
C        0.54916823      -0.10407557      -0.08416980
N       -0.16706828      -0.43130924      -1.12367020
C       -1.36897980       0.23683562      -0.93591299
C       -1.38107181       1.04284515       0.26732939
O       -2.50981894      -0.16217752       0.38120233
N       -0.16886378       0.62615208       0.82330106
H        2.38852782      -0.81238715      -0.84302545
H        2.19728084      -1.00578487       0.91112217
H        2.54498745       0.58793301       0.23886392
H       -1.99547460       0.44225819      -1.79338055
H       -2.30817899      -1.10062636       0.43323372
H        0.21139463       1.02627668       1.66328405
13
Frame=7 idx=009674 GeodesicLength=0.48502325622531167 rxn_smarts="[C:1]([c:2]1[n:3][c:4]([H:11])[c:5]([O:6][H:12])[n:7]1[H:13])([H:8])([H:9])[H:10]>>[C:1]([C:2]1=[N:3][C@:4]([O:6][H:12])([H:11])[C-:5]=[N+:7]1[H:13])([H:8])([H:9])[H:10]"
C        2.02068248      -0.33639232       0.05621203
C        0.55749532      -0.11454195      -0.07904151
N       -0.16693428      -0.45619560      -1.10524239
C       -1.36912484       0.21930809      -0.92116478
C       -1.36741496       1.03489852       0.27295678
O       -2.52444773      -0.14820474       0.39638886
N       -0.16086940       0.62164008       0.82896019
H        2.39620858      -0.81576586      -0.84395237
H        2.22692264      -0.97715207       0.91613492
H        2.54939781       0.60656425       0.20845119
H       -1.97420914       0.45066603      -1.78802334
H       -2.40399065      -1.10110647       0.38532211
H        0.21628418       1.01628204       1.67299831
13
Frame=8 idx=009674 GeodesicLength=0.5507797380193182 rxn_smarts="[C:1]([c:2]1[n:3][c:4]([H:11])[c:5]([O:6][H:12])[n:7]1[H:13])([H:8])([H:9])[H:10]>>[C:1]([C:2]1=[N:3][C@:4]([O:6][H:12])([H:11])[C-:5]=[N+:7]1[H:13])([H:8])([H:9])[H:10]"
C        2.03320505      -0.32734841       0.05078499
C        0.56696667      -0.12112439      -0.07558445
N       -0.16615321      -0.47907074      -1.08701686
C       -1.36998397       0.20108562      -0.90538254
C       -1.35589916       1.02458023       0.28054164
O       -2.53605149      -0.14105550       0.41355428
N       -0.15178242       0.62019497       0.83352685
H        2.40402397      -0.81994736      -0.84421987
H        2.25356664      -0.94986231       0.92060431
H        2.55552130       0.62272274       0.17965643
H       -1.95402739       0.45701613      -1.78046712
H       -2.50166669      -1.09687927       0.33262191
H        0.22228070       1.00968829       1.68138044
13
Frame=9 idx=009674 GeodesicLength=0.6152410012122062 rxn_smarts="[C:1]([c:2]1[n:3][c:4]([H:11])[c:5]([O:6][H:12])[n:7]1[H:13])([H:8])([H:9])[H:10]>>[C:1]([C:2]1=[N:3][C@:4]([O:6][H:12])([H:11])[C-:5]=[N+:7]1[H:13])([H:8])([H:9])[H:10]"
C        2.04617672      -0.31789426       0.04501886
C        0.57736492      -0.12600207      -0.07286242
N       -0.16501095      -0.50301141      -1.06750243
C       -1.37094430       0.18117685      -0.88870668
C       -1.34561165       1.01192077       0.28933171
O       -2.54587829      -0.13906558       0.43172791
N       -0.14187411       0.62020720       0.83744876
H        2.41256528      -0.82294783      -0.84490025
H        2.27975566      -0.92284652       0.92378406
H        2.56228832       0.63838928       0.15166110
H       -1.93323093       0.46084364      -1.77154671
H       -2.60397872      -1.08387091       0.27654410
H        0.22837806       1.00310083       1.69000201
13
Frame=10 idx=009674 GeodesicLength=0.678076093078484 rxn_smarts="[C:1]([c:2]1[n:3][c:4]([H:11])[c:5]([O:6][H:12])[n:7]1[H:13])([H:8])([H:9])[H:10]>>[C:1]([C:2]1=[N:3][C@:4]([O:6][H:12])([H:11])[C-:5]=[N+:7]1[H:13])([H:8])([H:9])[H:10]"
C        2.05951806      -0.30816720       0.03906757
C        0.58874731      -0.12836633      -0.07153861
N       -0.16315177      -0.52714958      -1.04733870
C       -1.37216915       0.15940534      -0.87128244
C       -1.33703638       0.99653535       0.29940099
O       -2.55361559      -0.14388329       0.45099621
N       -0.13119449       0.62224837       0.84018021
H        2.42188924      -0.82490369      -0.84582580
H        2.30463745      -0.89669576       0.92585414
H        2.57018361       0.65318135       0.12516019
H       -1.91253115       0.46178851      -1.76116726
H       -2.70961693      -1.06060936       0.21793971
H        0.23433978       0.99661630       1.69855379
13
Frame=11 idx=009674 GeodesicLength=0.7387224764618653 rxn_smarts="[C:1]([c:2]1[n:3][c:4]([H:11])[c:5]([O:6][H:12])[n:7]1[H:13])([H:8])([H:9])[H:10]>>[C:1]([C:2]1=[N:3][C@:4]([O:6][H:12])([H:11])[C-:5]=[N+:7]1[H:13])([H:8])([H:9])[H:10]"
C        2.07289776      -0.29880033       0.03344733
C        0.60117141      -0.12615918      -0.07311058
N       -0.15993584      -0.54879893      -1.02845503
C       -1.37411019       0.13609478      -0.85346765
C       -1.33121326       0.97789125       0.31108373
O       -2.55842087      -0.15858116       0.47161100
N       -0.11982369       0.62780574       0.84058766
H        2.43187380      -0.82684439      -0.84619704
H        2.32586719      -0.87288174       0.92752333
H        2.58048213       0.66569415       0.10163309
H       -1.89384658       0.45995043      -1.74900547
H       -2.81508967      -1.02704136       0.15852966
H        0.24014781       0.99167073       1.70581998
13
Frame=12 idx=009674 GeodesicLength=0.7969190615288797 rxn_smarts="[C:1]([c:2]1[n:3][c:4]([H:11])[c:5]([O:6][H:12])[n:7]1[H:13])([H:8])([H:9])[H:10]>>[C:1]([C:2]1=[N:3][C@:4]([O:6][H:12])([H:11])[C-:5]=[N+:7]1[H:13])([H:8])([H:9])[H:10]"
C        2.08623528      -0.28960155       0.02823967
C        0.61447905      -0.11920692      -0.07825847
N       -0.15507108      -0.56791613      -1.01163079
C       -1.37662526       0.11096916      -0.83600157
C       -1.32800047       0.95601588       0.32359473
O       -2.56084461      -0.18295264       0.49236805
N       -0.10825694       0.63679898       0.83804844
H        2.44280505      -0.82819112      -0.84607429
H        2.34301484      -0.85169821       0.92890023
H        2.59319801       0.67625796       0.08179592
H       -1.87728611       0.45512117      -1.73585578
H       -2.91819973      -0.98163555       0.10260752
H        0.24455196       0.98603898       1.71226635
13
Frame=13 idx=009674 GeodesicLength=0.8539714197321893 rxn_smarts="[C:1]([c:2]1[n:3][c:4]([H:11])[c:5]([O:6][H:12])[n:7]1[H:13])([H:8])([H:9])[H:10]>>[C:1]([C:2]1=[N:3][C@:4]([O:6][H:12])([H:11])[C-:5]=[N+:7]1[H:13])([H:8])([H:9])[H:10]"
C        2.10044950      -0.27824548       0.02240715
C        0.62840517      -0.11246275      -0.08458764
N       -0.14889272      -0.59116464      -0.99326956
C       -1.37841401       0.08121361      -0.81904728
C       -1.32511361       0.93081194       0.33484615
O       -2.56282472      -0.21261296       0.51124965
N       -0.09719405       0.64505345       0.83402908
H        2.45615598      -0.82418430      -0.84779224
H        2.36141286      -0.83006145       0.92827165
H        2.60506416       0.68954440       0.06417557
H       -1.85892013       0.44430716      -1.72354322
H       -3.02553598      -0.91438899       0.05237290
H        0.24540755       0.97219000       1.72088778
13
Frame=14 idx=009674 GeodesicLength=0.9075997071115696 rxn_smarts="[C:1]([c:2]1[n:3][c:4]([H:11])[c:5]([O:6][H:12])[n:7]1[H:13])([H:8])([H:9])[H:10]>>[C:1]([C:2]1=[N:3][C@:4]([O:6][H:12])([H:11])[C-:5]=[N+:7]1[H:13])([H:8])([H:9])[H:10]"
C        2.11316423      -0.26809464       0.01761364
C        0.64183295      -0.10098477      -0.09446125
N       -0.14099745      -0.60827583      -0.97948748
C       -1.38081172       0.05221849      -0.80359928
C       -1.32568224       0.90132619       0.34831847
O       -2.56494538      -0.25240263       0.52638003
N       -0.08770595       0.65523405       0.82797204
H        2.46856061      -0.82351957      -0.84677842
H        2.37401203      -0.81028161       0.92937437
H        2.61869764       0.69971425       0.04824892
H       -1.84372804       0.43456468      -1.71051489
H       -3.11795946      -0.84004514       0.01067412
H        0.24556278       0.96054653       1.72625974
13
Frame=15 idx=009674 GeodesicLength=0.9604026420344927 rxn_smarts="[C:1]([c:2]1[n:3][c:4]([H:11])[c:5]([O:6][H:12])[n:7]1[H:13])([H:8])([H:9])[H:10]>>[C:1]([C:2]1=[N:3][C@:4]([O:6][H:12])([H:11])[C-:5]=[N+:7]1[H:13])([H:8])([H:9])[H:10]"
C        2.12556862      -0.25674543       0.01329363
C        0.65529309      -0.08743403      -0.10778528
N       -0.13138967      -0.62628686      -0.96716281
C       -1.38282949       0.01989231      -0.79059643
C       -1.32630410       0.87064315       0.35781064
O       -2.56814957      -0.29318239       0.53650192
N       -0.08000843       0.66511293       0.81909332
H        2.48335335      -0.81630176      -0.84743187
H        2.38346328      -0.79428168       0.92863664
H        2.63209371       0.71066807       0.04002627
H       -1.82887824       0.41896259      -1.69988945
H       -3.20335058      -0.75198305      -0.01399647
H        0.24113803       0.94093615       1.73149987
13
Frame=16 idx=009674 GeodesicLength=1.0120427072275286 rxn_smarts="[C:1]([c:2]1[n:3][c:4]([H:11])[c:5]([O:6][H:12])[n:7]1[H:13])([H:8])([H:9])[H:10]>>[C:1]([C:2]1=[N:3][C@:4]([O:6][H:12])([H:11])[C-:5]=[N+:7]1[H:13])([H:8])([H:9])[H:10]"
C        2.13661147      -0.24520662       0.00894706
C        0.66707951      -0.07564272      -0.12056629
N       -0.12177633      -0.64464346      -0.95509054
C       -1.38437467      -0.01183177      -0.77928280
C       -1.32713496       0.83873970       0.36719599
O       -2.57721692      -0.33130377       0.53956633
N       -0.07484049       0.67153102       0.81170896
H        2.49718370      -0.80879164      -0.84804129
H        2.39258129      -0.77765916       0.92784047
H        2.64299641       0.72245947       0.03117834
H       -1.81268310       0.40418314      -1.69074376
H       -3.27388853      -0.66137416      -0.02884533
H        0.23546260       0.91953997       1.73613286
