14
Frame=0 idx=009385 GeodesicLength=0.0 rxn_smarts="[C:1]([N:2]([C:3](=[O:4])[H:11])[C:5](=[O:6])[C:7]([H:12])([H:13])[H:14])([H:8])([H:9])[H:10]>>[C:1](/[N:2]=[C:3](/[O:4][C:5](=[O:6])[C:7]([H:12])([H:13])[H:14])[H:11])([H:8])([H:9])[H:10]"
C       -1.60122160      -1.19770737       0.17649962
N       -0.71714259      -0.07311241       0.04498430
C       -0.79831004       1.07518678       0.60195499
O        0.13119427       1.86680532       0.21787681
C        0.74680336       0.64126250      -0.84496890
O        0.59250823       0.85025943      -1.99459804
C        1.94960956       0.08618134      -0.14863393
H       -2.43823471      -0.96644622       0.84199367
H       -2.00256490      -1.47382201      -0.80032201
H       -1.06857536      -2.06104549       0.58033144
H       -1.54739248       1.39307420       1.33012060
H        2.78891829       0.75051016      -0.35546293
H        2.16442159      -0.89444005      -0.57347480
H        1.79998636       0.00329380       0.92369922
14
Frame=1 idx=009385 GeodesicLength=0.07838061602912659 rxn_smarts="[C:1]([N:2]([C:3](=[O:4])[H:11])[C:5](=[O:6])[C:7]([H:12])([H:13])[H:14])([H:8])([H:9])[H:10]>>[C:1](/[N:2]=[C:3](/[O:4][C:5](=[O:6])[C:7]([H:12])([H:13])[H:14])[H:11])([H:8])([H:9])[H:10]"
C       -1.62845478      -1.18985797       0.16872901
N       -0.70397209      -0.09461051       0.06757117
C       -0.79194878       1.06426487       0.60526078
O        0.08860728       1.87896261       0.16017889
C        0.74488964       0.60907061      -0.85842712
O        0.59160003       0.76207537      -2.01861860
C        1.96212619       0.10669294      -0.14607297
H       -2.47275456      -0.93279616       0.81511921
H       -2.01704630      -1.45142449      -0.81707922
H       -1.12963464      -2.07023155       0.57872455
H       -1.45744665       1.35848641       1.41933298
H        2.76885915       0.82084303      -0.31315863
H        2.24303490      -0.85135481      -0.58335540
H        1.80214060      -0.01012034       0.92179534
14
Frame=2 idx=009385 GeodesicLength=0.15458103539115484 rxn_smarts="[C:1]([N:2]([C:3](=[O:4])[H:11])[C:5](=[O:6])[C:7]([H:12])([H:13])[H:14])([H:8])([H:9])[H:10]>>[C:1](/[N:2]=[C:3](/[O:4][C:5](=[O:6])[C:7]([H:12])([H:13])[H:14])[H:11])([H:8])([H:9])[H:10]"
C       -1.65354275      -1.18128325       0.16166639
N       -0.69036703      -0.11684348       0.09174456
C       -0.78392976       1.05129008       0.61275356
O        0.04328969       1.88560463       0.10736853
C        0.74249371       0.57726800      -0.86884304
O        0.59065431       0.67621384      -2.03648434
C        1.97305381       0.12654518      -0.14430085
H       -2.50456492      -0.89721950       0.78735359
H       -2.02757160      -1.42934104      -0.83305043
H       -1.18989761      -2.07747950       0.57829335
H       -1.36702710       1.32832586       1.49317477
H        2.74265421       0.88812028      -0.27191867
H        2.31746150      -0.80358397      -0.59568483
H        1.80729356      -0.02761713       0.91792741
14
Frame=3 idx=009385 GeodesicLength=0.22881627529800452 rxn_smarts="[C:1]([N:2]([C:3](=[O:4])[H:11])[C:5](=[O:6])[C:7]([H:12])([H:13])[H:14])([H:8])([H:9])[H:10]>>[C:1](/[N:2]=[C:3](/[O:4][C:5](=[O:6])[C:7]([H:12])([H:13])[H:14])[H:11])([H:8])([H:9])[H:10]"
C       -1.67578857      -1.17248217       0.15600618
N       -0.67936938      -0.13692176       0.11125976
C       -0.77674963       1.03896951       0.61923990
O       -0.00431816       1.88891493       0.05758409
C        0.74071895       0.54761409      -0.87830848
O        0.59426204       0.59653630      -2.05124797
C        1.98109276       0.14423270      -0.14196071
H       -2.52901088      -0.86362180       0.76652829
H       -2.04062848      -1.40844222      -0.84490663
H       -1.24241523      -2.08227448       0.57547289
H       -1.27592744       1.30248098       1.55365788
H        2.71096666       0.94956153      -0.22630933
H        2.38652792      -0.75244475      -0.60961034
H        1.81063943      -0.05212286       0.91259446
14
Frame=4 idx=009385 GeodesicLength=0.3024461403991907 rxn_smarts="[C:1]([N:2]([C:3](=[O:4])[H:11])[C:5](=[O:6])[C:7]([H:12])([H:13])[H:14])([H:8])([H:9])[H:10]>>[C:1](/[N:2]=[C:3](/[O:4][C:5](=[O:6])[C:7]([H:12])([H:13])[H:14])[H:11])([H:8])([H:9])[H:10]"
C       -1.69574679      -1.16400814       0.15208173
N       -0.67107052      -0.15455544       0.12545964
C       -0.77083770       1.02807122       0.62375888
O       -0.05333579       1.89023098       0.01049284
C        0.74019658       0.52072886      -0.88763565
O        0.60333478       0.52405344      -2.06438890
C        1.98679429       0.15959340      -0.13890188
H       -2.54671731      -0.83339226       0.75438501
H       -2.05797027      -1.38864336      -0.85237651
H       -1.28675018      -2.08573121       0.57006996
H       -1.18562619       1.28129962       1.60155258
H        2.67485535       1.00441108      -0.17554683
H        2.45077050      -0.69842587      -0.62441256
H        1.81210325      -0.08363234       0.90546170
14
Frame=5 idx=009385 GeodesicLength=0.37431593981933614 rxn_smarts="[C:1]([N:2]([C:3](=[O:4])[H:11])[C:5](=[O:6])[C:7]([H:12])([H:13])[H:14])([H:8])([H:9])[H:10]>>[C:1](/[N:2]=[C:3](/[O:4][C:5](=[O:6])[C:7]([H:12])([H:13])[H:14])[H:11])([H:8])([H:9])[H:10]"
C       -1.71371021      -1.15538901       0.14996632
N       -0.66441687      -0.17042754       0.13604988
C       -0.76548059       1.01768395       0.62653070
O       -0.10295294       1.88858170      -0.03379914
C        0.74048164       0.49578893      -0.89649189
O        0.61579231       0.45772675      -2.07540181
C        1.99103266       0.17284313      -0.13538216
H       -2.55908995      -0.80579959       0.74913818
H       -2.07863322      -1.36873895      -0.85571865
H       -1.32433814      -2.08753477       0.56312716
H       -1.09830224       1.26490800       1.63637317
H        2.63429339       1.05271388      -0.11938399
H        2.51182751      -0.63995914      -0.64018177
H        1.81349665      -0.12239735       0.89517400
14
Frame=6 idx=009385 GeodesicLength=0.44618837633402453 rxn_smarts="[C:1]([N:2]([C:3](=[O:4])[H:11])[C:5](=[O:6])[C:7]([H:12])([H:13])[H:14])([H:8])([H:9])[H:10]>>[C:1](/[N:2]=[C:3](/[O:4][C:5](=[O:6])[C:7]([H:12])([H:13])[H:14])[H:11])([H:8])([H:9])[H:10]"
C       -1.73012117      -1.14724222       0.14915898
N       -0.65925673      -0.18455583       0.14228514
C       -0.76059297       1.00870276       0.62690427
O       -0.15293285       1.88550732      -0.07647610
C        0.74171652       0.47293963      -0.90558130
O        0.63243779       0.39639279      -2.08556728
C        1.99291284       0.18467781      -0.13082026
H       -2.56665713      -0.78110715       0.75048224
H       -2.10297297      -1.34954396      -0.85585523
H       -1.35613598      -2.08888731       0.55449246
H       -1.00894823       1.25216601       1.66155833
H        2.58883602       1.09443600      -0.05772413
H        2.56825870      -0.57730089      -0.65474014
H        1.81345616      -0.16618496       0.88188301
14
Frame=7 idx=009385 GeodesicLength=0.5184374875152921 rxn_smarts="[C:1]([N:2]([C:3](=[O:4])[H:11])[C:5](=[O:6])[C:7]([H:12])([H:13])[H:14])([H:8])([H:9])[H:10]>>[C:1](/[N:2]=[C:3](/[O:4][C:5](=[O:6])[C:7]([H:12])([H:13])[H:14])[H:11])([H:8])([H:9])[H:10]"
C       -1.74503119      -1.13909041       0.14924089
N       -0.65403877      -0.19808310       0.14879804
C       -0.75609214       0.99996123       0.62814588
O       -0.20370249       1.88060968      -0.11492608
C        0.74333557       0.45216577      -0.91416346
O        0.65014249       0.33983759      -2.09413832
C        1.99460352       0.19520460      -0.12687854
H       -2.57376200      -0.75650620       0.75117517
H       -2.12416073      -1.33176670      -0.85513652
H       -1.38601593      -2.08904079       0.54851563
H       -0.92347896       1.24208977       1.67919221
H        2.54164900       1.12876558       0.00361704
H        2.62007163      -0.51268875      -0.66879492
H        1.81647999      -0.21145828       0.86535298
14
Frame=8 idx=009385 GeodesicLength=0.5895952935415033 rxn_smarts="[C:1]([N:2]([C:3](=[O:4])[H:11])[C:5](=[O:6])[C:7]([H:12])([H:13])[H:14])([H:8])([H:9])[H:10]>>[C:1](/[N:2]=[C:3](/[O:4][C:5](=[O:6])[C:7]([H:12])([H:13])[H:14])[H:11])([H:8])([H:9])[H:10]"
C       -1.75794917      -1.13090929       0.14956482
N       -0.64784221      -0.21135420       0.15667643
C       -0.75064223       0.99153810       0.63051344
O       -0.25364716       1.87377778      -0.14850118
C        0.74455734       0.43245072      -0.92168399
O        0.66702253       0.28595292      -2.10038156
C        1.99534308       0.20467912      -0.12338672
H       -2.57974749      -0.73163440       0.74974896
H       -2.14111144      -1.31526916      -0.85471400
H       -1.41458813      -2.08813758       0.54454689
H       -0.84196072       1.23569429       1.69024653
H        2.49216991       1.15630051       0.06426244
H        2.66587873      -0.44590191      -0.68232347
H        1.82251695      -0.25718691       0.84543141
14
Frame=9 idx=009385 GeodesicLength=0.6612908525505755 rxn_smarts="[C:1]([N:2]([C:3](=[O:4])[H:11])[C:5](=[O:6])[C:7]([H:12])([H:13])[H:14])([H:8])([H:9])[H:10]>>[C:1](/[N:2]=[C:3](/[O:4][C:5](=[O:6])[C:7]([H:12])([H:13])[H:14])[H:11])([H:8])([H:9])[H:10]"
C       -1.76943879      -1.12279254       0.15049838
N       -0.64148279      -0.22392846       0.16496692
C       -0.74544123       0.98378721       0.63323506
O       -0.30367672       1.86582080      -0.17854972
C        0.74591325       0.41422230      -0.92889763
O        0.68456858       0.23518059      -2.10542682
C        1.99562920       0.21303492      -0.12016402
H       -2.58494976      -0.70710375       0.74784013
H       -2.15553191      -1.29987549      -0.85379521
H       -1.44128717      -2.08641520       0.54231376
H       -0.76376316       1.23220454       1.69560881
H        2.44145909       1.17663299       0.12509198
H        2.70714117      -0.37696846      -0.69490589
H        1.83086022      -0.30379945       0.82218426
14
Frame=10 idx=009385 GeodesicLength=0.7337725379527712 rxn_smarts="[C:1]([N:2]([C:3](=[O:4])[H:11])[C:5](=[O:6])[C:7]([H:12])([H:13])[H:14])([H:8])([H:9])[H:10]>>[C:1](/[N:2]=[C:3](/[O:4][C:5](=[O:6])[C:7]([H:12])([H:13])[H:14])[H:11])([H:8])([H:9])[H:10]"
C       -1.77931265      -1.11470194       0.15176565
N       -0.63473086      -0.23582052       0.17404704
C       -0.74038376       0.97681902       0.63660691
O       -0.35369564       1.85702532      -0.20485278
C        0.74711920       0.39719288      -0.93580953
O        0.70222245       0.18696541      -2.10943398
C        1.99541540       0.22029459      -0.11721812
H       -2.58935677      -0.68269887       0.74484747
H       -2.16689543      -1.28557878      -0.85295439
H       -1.46611431      -2.08393687       0.54167167
H       -0.68924697       1.23172194       1.69634678
H        2.39001258       1.18983926       0.18536967
H        2.74342553      -0.30679438      -0.70626805
H        1.84154122      -0.35032707       0.79588164
14
Frame=11 idx=009385 GeodesicLength=0.8065065221856853 rxn_smarts="[C:1]([N:2]([C:3](=[O:4])[H:11])[C:5](=[O:6])[C:7]([H:12])([H:13])[H:14])([H:8])([H:9])[H:10]>>[C:1](/[N:2]=[C:3](/[O:4][C:5](=[O:6])[C:7]([H:12])([H:13])[H:14])[H:11])([H:8])([H:9])[H:10]"
C       -1.78761883      -1.10664028       0.15322017
N       -0.62754584      -0.24702833       0.18398445
C       -0.73529107       0.97053764       0.64057494
O       -0.40339084       1.84744283      -0.22742083
C        0.74805454       0.38121574      -0.94229150
O        0.71977025       0.14104371      -2.11214829
C        1.99462425       0.22661266      -0.11450513
H       -2.59296298      -0.65844716       0.74043676
H       -2.17520394      -1.27238673      -0.85225095
H       -1.48927736      -2.08066152       0.54241760
H       -0.61828152       1.23393666       1.69291570
H        2.33847593       1.19618464       0.24447755
H        2.77438370      -0.23585392      -0.71605689
H        1.85426368      -0.39595593       0.76664643
14
Frame=12 idx=009385 GeodesicLength=0.8796447300593353 rxn_smarts="[C:1]([N:2]([C:3](=[O:4])[H:11])[C:5](=[O:6])[C:7]([H:12])([H:13])[H:14])([H:8])([H:9])[H:10]>>[C:1](/[N:2]=[C:3](/[O:4][C:5](=[O:6])[C:7]([H:12])([H:13])[H:14])[H:11])([H:8])([H:9])[H:10]"
C       -1.79441645      -1.09856452       0.15472848
N       -0.61991461      -0.25755658       0.19502770
C       -0.73026596       0.96490294       0.64533678
O       -0.45280075       1.83725758      -0.24615711
C        0.74865737       0.36615137      -0.94835850
O        0.73706239       0.09709267      -2.11366487
C        1.99342943       0.23203915      -0.11209460
H       -2.59603063      -0.63423131       0.73423167
H       -2.18021594      -1.26022693      -0.85196017
H       -1.51096481      -2.07658731       0.54450358
H       -0.55133794       1.23852936       1.68620186
H        2.28766569       1.19603783       0.30157568
H        2.80009529      -0.16498139      -0.72433113
H        1.86903692      -0.43986286       0.73496063
14
Frame=13 idx=009385 GeodesicLength=0.9533888802644059 rxn_smarts="[C:1]([N:2]([C:3](=[O:4])[H:11])[C:5](=[O:6])[C:7]([H:12])([H:13])[H:14])([H:8])([H:9])[H:10]>>[C:1](/[N:2]=[C:3](/[O:4][C:5](=[O:6])[C:7]([H:12])([H:13])[H:14])[H:11])([H:8])([H:9])[H:10]"
C       -1.79975762      -1.09051107       0.15617583
N       -0.61190716      -0.26735528       0.20704872
C       -0.72534349       0.95999239       0.65089876
O       -0.50198864       1.82679030      -0.26114492
C        0.74887215       0.35191635      -0.95410005
O        0.75405979       0.05492169      -2.11418704
C        1.99184945       0.23659726      -0.10993678
H       -2.59850688      -0.61009148       0.72626549
H       -2.18215000      -1.24910153      -0.85219907
H       -1.53111962      -2.07184172       0.54767234
H       -0.48835380       1.24526134       1.67687625
H        2.23818986       1.18992785       0.35624774
H        2.82062589      -0.09503804      -0.73103488
H        1.88553006      -0.48146807       0.70141760
14
Frame=14 idx=009385 GeodesicLength=1.0277831599380498 rxn_smarts="[C:1]([N:2]([C:3](=[O:4])[H:11])[C:5](=[O:6])[C:7]([H:12])([H:13])[H:14])([H:8])([H:9])[H:10]>>[C:1](/[N:2]=[C:3](/[O:4][C:5](=[O:6])[C:7]([H:12])([H:13])[H:14])[H:11])([H:8])([H:9])[H:10]"
C       -1.80375273      -1.08247846       0.15752843
N       -0.60360918      -0.27640566       0.21991446
C       -0.72056034       0.95577323       0.65720848
O       -0.55099307       1.81618199      -0.27251047
C        0.74870899       0.33839260      -0.95957291
O        0.77084339       0.01446851      -2.11384470
C        1.98992954       0.24032197      -0.10800833
H       -2.60041991      -0.58601328       0.71656382
H       -2.18122740      -1.23901491      -0.85294156
H       -1.54981768      -2.06643516       0.55182938
H       -0.42925383       1.25384727       1.66538092
H        2.19044151       1.17840252       0.40825670
H        2.83626850      -0.02651778      -0.73621111
H        1.90344220      -0.52052283       0.66640690
14
Frame=15 idx=009385 GeodesicLength=1.1026826946575718 rxn_smarts="[C:1]([N:2]([C:3](=[O:4])[H:11])[C:5](=[O:6])[C:7]([H:12])([H:13])[H:14])([H:8])([H:9])[H:10]>>[C:1](/[N:2]=[C:3](/[O:4][C:5](=[O:6])[C:7]([H:12])([H:13])[H:14])[H:11])([H:8])([H:9])[H:10]"
C       -1.80658810      -1.07453066       0.15884248
N       -0.59517234      -0.28464006       0.23319805
C       -0.71588364       0.95224462       0.66391235
O       -0.59978981       1.80545499      -0.28064932
C        0.74823110       0.32551613      -0.96479978
O        0.78764059      -0.02410233      -2.11266963
C        1.98761212       0.24328272      -0.10612206
H       -2.60159196      -0.56223688       0.70563255
H       -2.17824348      -1.22995566      -0.85385192
H       -1.56701176      -2.06044974       0.55668015
H       -0.37339058       1.26420916       1.65152429
H        2.14451918       1.16190810       0.45788889
H        2.84738124       0.04052433      -0.73950815
H        1.92228744      -0.55722470       0.62992211
14
Frame=16 idx=009385 GeodesicLength=1.1778494338978016 rxn_smarts="[C:1]([N:2]([C:3](=[O:4])[H:11])[C:5](=[O:6])[C:7]([H:12])([H:13])[H:14])([H:8])([H:9])[H:10]>>[C:1](/[N:2]=[C:3](/[O:4][C:5](=[O:6])[C:7]([H:12])([H:13])[H:14])[H:11])([H:8])([H:9])[H:10]"
C       -1.80826902      -1.06665462       0.16006891
N       -0.58667288      -0.29203362       0.24665142
C       -0.71133298       0.94932904       0.67099851
O       -0.64826909       1.79491327      -0.28551714
C        0.74753944       0.31332972      -0.96992728
O        0.80457551      -0.06064650      -2.11096756
C        1.98493147       0.24545245      -0.10436308
H       -2.60190881      -0.53887061       0.69368810
H       -2.17330903      -1.22175821      -0.85493494
H       -1.58256938      -2.05394846       0.56201370
H       -0.32129981       1.27566266       1.63598552
H        2.10099092       1.14123288       0.50430416
H        2.85411238       0.10471660      -0.74120311
H        1.94148129      -0.59072463       0.59320278
