14
Frame=0 idx=005772 GeodesicLength=0.0 rxn_smarts="[O:1]([C@@:2]1([H:8])[C@@:3]2([H:9])[C:4]([H:10])([H:11])[C:5]([H:12])([H:13])[C@@:6]12[H:14])[H:7]>>[O:1]([C:2][C:3]1([H:9])[C:4]([H:10])([H:11])[C:5]([H:12])([H:13])[C:6]1([H:8])[H:14])[H:7]"
O        1.55489942      -1.04418341      -0.46488232
C        1.33965835      -0.28548884       0.65916659
C        0.46151393       0.89762267       0.38758125
C       -0.29617183       0.83546801      -0.95422580
C       -1.16168837      -0.31597299      -0.38863926
C       -0.48109654      -0.12634189       0.95973857
H        2.12545079      -1.76889861      -0.20617531
H        0.50587400      -0.92733731       1.39430116
H        0.72612227       1.83709131       0.85894711
H        0.31015687       0.61235861      -1.83055814
H       -0.88063271       1.73653181      -1.13403919
H       -2.22930010      -0.09897293      -0.36245538
H       -1.00865722      -1.29352319      -0.84776512
H       -0.96612884      -0.05835330       1.92900587
14
Frame=1 idx=005772 GeodesicLength=0.04569430464501198 rxn_smarts="[O:1]([C@@:2]1([H:8])[C@@:3]2([H:9])[C:4]([H:10])([H:11])[C:5]([H:12])([H:13])[C@@:6]12[H:14])[H:7]>>[O:1]([C:2][C:3]1([H:9])[C:4]([H:10])([H:11])[C:5]([H:12])([H:13])[C:6]1([H:8])[H:14])[H:7]"
O        1.55547586      -1.05422607      -0.46530268
C        1.33513948      -0.29533762       0.65596147
C        0.46384963       0.89148518       0.38469178
C       -0.29788247       0.83386101      -0.95438801
C       -1.16825158      -0.31331759      -0.38787345
C       -0.48405283      -0.12984804       0.96024543
H        2.16670006      -1.74832484      -0.21519517
H        0.50072184      -0.93356432       1.41329642
H        0.73270887       1.82809584       0.85935748
H        0.30502766       0.60846334      -1.83263317
H       -0.87755174       1.73855526      -1.13168569
H       -2.23493745      -0.09196636      -0.36161505
H       -1.01965803      -1.29073372      -0.84861979
H       -0.97728928      -0.04314207       1.92376042
14
Frame=2 idx=005772 GeodesicLength=0.09116367193232094 rxn_smarts="[O:1]([C@@:2]1([H:8])[C@@:3]2([H:9])[C:4]([H:10])([H:11])[C:5]([H:12])([H:13])[C@@:6]12[H:14])[H:7]>>[O:1]([C:2][C:3]1([H:9])[C:4]([H:10])([H:11])[C:5]([H:12])([H:13])[C:6]1([H:8])[H:14])[H:7]"
O        1.55603218      -1.06475509      -0.46539188
C        1.33044965      -0.30560389       0.65299684
C        0.46627219       0.88506511       0.38187491
C       -0.29936392       0.83199992      -0.95452968
C       -1.17476362      -0.31072907      -0.38706449
C       -0.48712379      -0.13342141       0.96087080
H        2.20715195      -1.72560956      -0.22547206
H        0.49531278      -0.93948623       1.43292183
H        0.73950876       1.81877520       0.85977083
H        0.30015699       0.60418501      -1.83461218
H       -0.87407691       1.74035845      -1.12943369
H       -2.24048133      -0.08489281      -0.36087438
H       -1.03069302      -1.28805465      -0.84932093
H       -0.98838191      -0.02783098       1.91826407
14
Frame=3 idx=005772 GeodesicLength=0.1363983917158645 rxn_smarts="[O:1]([C@@:2]1([H:8])[C@@:3]2([H:9])[C:4]([H:10])([H:11])[C:5]([H:12])([H:13])[C@@:6]12[H:14])[H:7]>>[O:1]([C:2][C:3]1([H:9])[C:4]([H:10])([H:11])[C:5]([H:12])([H:13])[C:6]1([H:8])[H:14])[H:7]"
O        1.55666238      -1.07570907      -0.46513682
C        1.32561773      -0.31623475       0.65027652
C        0.46878298       0.87838475       0.37913875
C       -0.30060353       0.82989045      -0.95464623
C       -1.18117995      -0.30822997      -0.38622337
C       -0.49028177      -0.13706777       0.96160639
H        2.24641818      -1.70085023      -0.23700889
H        0.48968889      -0.94504211       1.45318104
H        0.74649116       1.80915560       0.86020587
H        0.29556847       0.59955335      -1.83648484
H       -0.87021989       1.74192849      -1.12727660
H       -2.24589040      -0.07781057      -0.36025106
H       -1.04168725      -1.28549921      -0.84988116
H       -0.99936701      -0.01246895       1.91250040
14
Frame=4 idx=005772 GeodesicLength=0.18143716216213562 rxn_smarts="[O:1]([C@@:2]1([H:8])[C@@:3]2([H:9])[C:4]([H:10])([H:11])[C:5]([H:12])([H:13])[C@@:6]12[H:14])[H:7]>>[O:1]([C:2][C:3]1([H:9])[C:4]([H:10])([H:11])[C:5]([H:12])([H:13])[C:6]1([H:8])[H:14])[H:7]"
O        1.55742490      -1.08698509      -0.46457137
C        1.32068381      -0.32719444       0.64777924
C        0.47138404       0.87146176       0.37648188
C       -0.30161265       0.82755750      -0.95473910
C       -1.18746705      -0.30583380      -0.38536995
C       -0.49349362      -0.14079668       0.96244106
H        2.28422608      -1.67424285      -0.24966427
H        0.48391374      -0.95019062       1.47406152
H        0.75362949       1.79925035       0.86067403
H        0.29124999       0.59463024      -1.83826747
H       -0.86602524       1.74327507      -1.12518987
H       -2.25113989      -0.07076694      -0.35975626
H       -1.05257335      -1.28307124      -0.85034323
H       -1.01020023       0.00290673       1.90646378
14
Frame=5 idx=005772 GeodesicLength=0.2262615659505542 rxn_smarts="[O:1]([C@@:2]1([H:8])[C@@:3]2([H:9])[C:4]([H:10])([H:11])[C:5]([H:12])([H:13])[C@@:6]12[H:14])[H:7]>>[O:1]([C:2][C:3]1([H:9])[C:4]([H:10])([H:11])[C:5]([H:12])([H:13])[C:6]1([H:8])[H:14])[H:7]"
O        1.55839705      -1.09860176      -0.46356790
C        1.31564443      -0.33846205       0.64557213
C        0.47407385       0.86430048       0.37393497
C       -0.30233331       0.82496190      -0.95480545
C       -1.19359731      -0.30355596      -0.38449670
C       -0.49676844      -0.14460756       0.96339265
H        2.32026319      -1.64563496      -0.26375532
H        0.47796518      -0.95489281       1.49559927
H        0.76090064       1.78908224       0.86119646
H        0.28729491       0.58934555      -1.83992230
H       -0.86142185       1.74435543      -1.12322475
H       -2.25619834      -0.06376757      -0.35941457
H       -1.06332340      -1.28079268      -0.85067035
H       -1.02089659       0.01826977       1.90016187
14
Frame=6 idx=005772 GeodesicLength=0.2709092741854867 rxn_smarts="[O:1]([C@@:2]1([H:8])[C@@:3]2([H:9])[C:4]([H:10])([H:11])[C:5]([H:12])([H:13])[C@@:6]12[H:14])[H:7]>>[O:1]([C:2][C:3]1([H:9])[C:4]([H:10])([H:11])[C:5]([H:12])([H:13])[C:6]1([H:8])[H:14])[H:7]"
O        1.55964866      -1.11043636      -0.46220058
C        1.31054817      -0.34997192       0.64361562
C        0.47684998       0.85693785       0.37149390
C       -0.30278913       0.82214584      -0.95484228
C       -1.19952902      -0.30141352      -0.38362727
C       -0.50006200      -0.14850895       0.96444122
H        2.35423215      -1.61535071      -0.27905866
H        0.47192370      -0.95908767       1.51776531
H        0.76826715       1.77868317       0.86178947
H        0.28367635       0.58379597      -1.84146487
H       -0.85648091       1.74518967      -1.12133991
H       -2.26103468      -0.05688281      -0.35923617
H       -1.07384976      -1.27866482      -0.85091493
H       -1.03140065       0.03356426       1.89357915
14
Frame=7 idx=005772 GeodesicLength=0.31540724429885103 rxn_smarts="[O:1]([C@@:2]1([H:8])[C@@:3]2([H:9])[C:4]([H:10])([H:11])[C:5]([H:12])([H:13])[C@@:6]12[H:14])[H:7]>>[O:1]([C:2][C:3]1([H:9])[C:4]([H:10])([H:11])[C:5]([H:12])([H:13])[C:6]1([H:8])[H:14])[H:7]"
O        1.56125573      -1.12240901      -0.46046921
C        1.30542420      -0.36166663       0.64190580
C        0.47970577       0.84940589       0.36916742
C       -0.30297557       0.81912647      -0.95484719
C       -1.20522699      -0.29942084      -0.38277293
C       -0.50335106      -0.15250532       0.96558028
H        2.38585053      -1.58358813      -0.29554655
H        0.46583314      -0.96272061       1.54054775
H        0.77568907       1.76809295       0.86247235
H        0.28041242       0.57802265      -1.84289043
H       -0.85122493       1.74577895      -1.11953009
H       -2.26561974      -0.05015896      -0.35923452
H       -1.08408500      -1.27669375      -0.85109577
H       -1.04168759       0.04873633       1.88671311
14
Frame=8 idx=005772 GeodesicLength=0.35980608425088617 rxn_smarts="[O:1]([C@@:2]1([H:8])[C@@:3]2([H:9])[C:4]([H:10])([H:11])[C:5]([H:12])([H:13])[C@@:6]12[H:14])[H:7]>>[O:1]([C:2][C:3]1([H:9])[C:4]([H:10])([H:11])[C:5]([H:12])([H:13])[C:6]1([H:8])[H:14])[H:7]"
O        1.56326869      -1.13446213      -0.45840878
C        1.30029297      -0.37349873       0.64043585
C        0.48263309       0.84173339       0.36696142
C       -0.30289576       0.81592591      -0.95481876
C       -1.21066678      -0.29758543      -0.38194296
C       -0.50661958      -0.15659901       0.96680413
H        2.41495910      -1.55055346      -0.31316184
H        0.45971485      -0.96574025       1.56393735
H        0.78313327       1.75734337       0.86326203
H        0.27751028       0.57207233      -1.84419846
H       -0.84568228       1.74613373      -1.11778830
H       -2.26993379      -0.04363063      -0.35942040
H       -1.09397754      -1.27487901      -0.85122903
H       -1.05173652       0.06373990       1.87956773
14
Frame=9 idx=005772 GeodesicLength=0.40404394219112955 rxn_smarts="[O:1]([C@@:2]1([H:8])[C@@:3]2([H:9])[C:4]([H:10])([H:11])[C:5]([H:12])([H:13])[C@@:6]12[H:14])[H:7]>>[O:1]([C:2][C:3]1([H:9])[C:4]([H:10])([H:11])[C:5]([H:12])([H:13])[C:6]1([H:8])[H:14])[H:7]"
O        1.56551436      -1.14671387      -0.45603646
C        1.29515749      -0.38553624       0.63914851
C        0.48564629       0.83388065       0.36486732
C       -0.30256530       0.81254313      -0.95475967
C       -1.21588674      -0.29588221      -0.38114795
C       -0.50986583      -0.16081008       0.96810198
H        2.44182160      -1.51607076      -0.33168669
H        0.45359555      -0.96815748       1.58784493
H        0.79066111       1.74637642       0.86415055
H        0.27492658       0.56593536      -1.84541511
H       -0.83984048       1.74627176      -1.11608467
H       -2.27401539      -0.03723504      -0.35977477
H       -1.10360456      -1.27319140      -0.85136466
H       -1.06154469       0.07858975       1.87215669
14
Frame=10 idx=005772 GeodesicLength=0.4482553104279369 rxn_smarts="[O:1]([C@@:2]1([H:8])[C@@:3]2([H:9])[C:4]([H:10])([H:11])[C:5]([H:12])([H:13])[C@@:6]12[H:14])[H:7]>>[O:1]([C:2][C:3]1([H:9])[C:4]([H:10])([H:11])[C:5]([H:12])([H:13])[C:6]1([H:8])[H:14])[H:7]"
O        1.56825254      -1.15884903      -0.45345711
C        1.29007960      -0.39760936       0.63801029
C        0.48871727       0.82595271       0.36287734
C       -0.30202336       0.80905656      -0.95466638
C       -1.22082245      -0.29434112      -0.38040802
C       -0.51303731      -0.16513123       0.96944717
H        2.46597884      -1.48092142      -0.35091615
H        0.44756437      -0.96988996       1.61226086
H        0.79815347       1.73531309       0.86516201
H        0.27264071       0.55977143      -1.84654293
H       -0.83382890       1.74622895      -1.11438771
H       -2.27781778      -0.03110460      -0.36031017
H       -1.11281307      -1.27164110      -0.85153282
H       -1.07104391       0.09316510       1.86446361
14
Frame=11 idx=005772 GeodesicLength=0.49243066624625453 rxn_smarts="[O:1]([C@@:2]1([H:8])[C@@:3]2([H:9])[C:4]([H:10])([H:11])[C:5]([H:12])([H:13])[C@@:6]12[H:14])[H:7]>>[O:1]([C:2][C:3]1([H:9])[C:4]([H:10])([H:11])[C:5]([H:12])([H:13])[C:6]1([H:8])[H:14])[H:7]"
O        1.57154654      -1.17075809      -0.45072777
C        1.28509042      -0.40964378       0.63697309
C        0.49182986       0.81799684       0.36098150
C       -0.30130363       0.80551457      -0.95453655
C       -1.22545237      -0.29296635      -0.37973700
C       -0.51610237      -0.16956826       0.97081919
H        2.48732518      -1.44550039      -0.37063710
H        0.44168605      -0.97088847       1.63711988
H        0.80556324       1.72420315       0.86630213
H        0.27061580       0.55367589      -1.84759471
H       -0.82772130       1.74603556      -1.11266138
H       -2.28132859      -0.02528917      -0.36101827
H       -1.12154468      -1.27021506      -0.85177378
H       -1.08020415       0.10740355       1.85649080
14
Frame=12 idx=005772 GeodesicLength=0.5365861389272785 rxn_smarts="[O:1]([C@@:2]1([H:8])[C@@:3]2([H:9])[C:4]([H:10])([H:11])[C:5]([H:12])([H:13])[C@@:6]12[H:14])[H:7]>>[O:1]([C:2][C:3]1([H:9])[C:4]([H:10])([H:11])[C:5]([H:12])([H:13])[C:6]1([H:8])[H:14])[H:7]"
O        1.57542148      -1.18236380      -0.44789982
C        1.28020518      -0.42160047       0.63599092
C        0.49497278       0.81004105       0.35916793
C       -0.30043795       0.80195385      -0.95437168
C       -1.22977922      -0.29175219      -0.37914496
C       -0.51904545      -0.17412352       0.97220211
H        2.50590150      -1.41009259      -0.39065689
H        0.43600269      -0.97112926       1.66236680
H        0.81286680       1.71307295       0.86757117
H        0.26881320       0.54771336      -1.84858690
H       -0.82157183       1.74572193      -1.11087952
H       -2.28455732      -0.01980406      -0.36188783
H       -1.12978750      -1.26889704      -0.85211938
H       -1.08900436       0.12125980       1.84824806
14
Frame=13 idx=005772 GeodesicLength=0.5807454838592518 rxn_smarts="[O:1]([C@@:2]1([H:8])[C@@:3]2([H:9])[C:4]([H:10])([H:11])[C:5]([H:12])([H:13])[C@@:6]12[H:14])[H:7]>>[O:1]([C:2][C:3]1([H:9])[C:4]([H:10])([H:11])[C:5]([H:12])([H:13])[C:6]1([H:8])[H:14])[H:7]"
O        1.57989765      -1.19355662      -0.44505411
C        1.27546369      -0.43343607       0.63500513
C        0.49814134       0.80212303       0.35741882
C       -0.29947208       0.79842420      -0.95417247
C       -1.23381301      -0.29069707      -0.37864441
C       -0.52184607      -0.17879993       0.97357457
H        2.52178704      -1.37506446      -0.41071241
H        0.43056986      -0.97059296       1.68793512
H        0.82004494       1.70196044       0.86896523
H        0.26717847       0.54196945      -1.84954189
H       -0.81546097       1.74533431      -1.10900250
H       -2.28753099      -0.01467668      -0.36290450
H       -1.13753136      -1.26767990      -0.85261091
H       -1.09742851       0.13469225       1.83974433
14
Frame=14 idx=005772 GeodesicLength=0.624905572362292 rxn_smarts="[O:1]([C@@:2]1([H:8])[C@@:3]2([H:9])[C:4]([H:10])([H:11])[C:5]([H:12])([H:13])[C@@:6]12[H:14])[H:7]>>[O:1]([C:2][C:3]1([H:9])[C:4]([H:10])([H:11])[C:5]([H:12])([H:13])[C:6]1([H:8])[H:14])[H:7]"
O        1.58495514      -1.20436745      -0.44219361
C        1.27082567      -0.44515689       0.63401012
C        0.50131856       0.79423712       0.35573349
C       -0.29841061       0.79492502      -0.95393961
C       -1.23757089      -0.28978110      -0.37822789
C       -0.52452129      -0.18359288       0.97493872
H        2.53518815      -1.34043696      -0.43081608
H        0.42534331      -0.96927106       1.71380029
H        0.82709189       1.69085433       0.87048290
H        0.26570279       0.53643391      -1.85045641
H       -0.80937514       1.74487499      -1.10703804
H       -2.29025352      -0.00987011      -0.36405700
H       -1.14481047      -1.26653782      -0.85323699
H       -1.10548358       0.14768890       1.83100010
14
Frame=15 idx=005772 GeodesicLength=0.6690818618498091 rxn_smarts="[O:1]([C@@:2]1([H:8])[C@@:3]2([H:9])[C:4]([H:10])([H:11])[C:5]([H:12])([H:13])[C@@:6]12[H:14])[H:7]>>[O:1]([C:2][C:3]1([H:9])[C:4]([H:10])([H:11])[C:5]([H:12])([H:13])[C:6]1([H:8])[H:14])[H:7]"
O        1.59056527      -1.21476905      -0.43935183
C        1.26630564      -0.45675637       0.63297347
C        0.50450367       0.78639466       0.35410376
C       -0.29727714       0.79147685      -0.95367278
C       -1.24107377      -0.28899686      -0.37789955
C       -0.52707196      -0.18850084       0.97628515
H        2.54627302      -1.30635523      -0.45085042
H        0.42032999      -0.96715712       1.73991797
H        0.83401004       1.67976459       0.87212173
H        0.26435765       0.53113444      -1.85134198
H       -0.80334475       1.74436991      -1.10496520
H       -2.29275433      -0.00537862      -0.36533458
H       -1.15164787      -1.26546528      -0.85401800
H       -1.11317546       0.16023892       1.82203226
14
Frame=16 idx=005772 GeodesicLength=0.713274583695686 rxn_smarts="[O:1]([C@@:2]1([H:8])[C@@:3]2([H:9])[C:4]([H:10])([H:11])[C:5]([H:12])([H:13])[C@@:6]12[H:14])[H:7]>>[O:1]([C:2][C:3]1([H:9])[C:4]([H:10])([H:11])[C:5]([H:12])([H:13])[C:6]1([H:8])[H:14])[H:7]"
O        1.59672608      -1.22470870      -0.43660059
C        1.26191016      -0.46820987       0.63185683
C        0.50768580       0.77861632       0.35251271
C       -0.29610642       0.78811250      -0.95337330
C       -1.24433722      -0.28833545      -0.37765981
C       -0.52949318      -0.19352280       0.97760258
H        2.55522043      -1.27305581      -0.47064581
H        0.41553577      -0.96424463       1.76623908
H        0.84078553       1.66870858       0.87387093
H        0.26309797       0.52612478      -1.85221211
H       -0.79742033       1.74385087      -1.10276272
H       -2.29505324      -0.00120683      -0.36671833
H       -1.15805223      -1.26444718      -0.85496612
H       -1.12049913       0.17231823       1.81285667
