10
Frame=0 idx=009383 GeodesicLength=0.0 rxn_smarts="[O:1]=[C:2]([C:3]([C:4]#[C:5][H:10])([H:8])[H:9])[C:6]#[N:7]>>[O:1]1[C@:2]([C:4]#[C:5][H:10])([C:6]#[N:7])[C:3]1([H:8])[H:9]"
O       -1.64793831      -0.17296796       1.12024059
C       -0.71338204       0.21493625       0.29883016
C       -0.44320115      -0.90133915      -0.60612038
C        0.77719692       0.12609393       0.64541058
C        1.93968492      -0.18310074       0.75947135
C       -0.92842218       1.52113750      -0.38742862
N       -1.13309107       2.50892262      -0.93190348
H       -0.43963584      -0.84591140      -1.69465621
H       -0.38343946      -1.85764155      -0.10423171
H        2.97222820      -0.41012949       0.90038773
10
Frame=1 idx=009383 GeodesicLength=0.06771352139281793 rxn_smarts="[O:1]=[C:2]([C:3]([C:4]#[C:5][H:10])([H:8])[H:9])[C:6]#[N:7]>>[O:1]1[C@:2]([C:4]#[C:5][H:10])([C:6]#[N:7])[C:3]1([H:8])[H:9]"
O       -1.66588014      -0.19222820       1.08916190
C       -0.71698510       0.22323244       0.30070539
C       -0.44849085      -0.90224337      -0.59416365
C        0.78922311       0.11101735       0.63467322
C        1.95634875      -0.17432377       0.75252962
C       -0.92750890       1.52802393      -0.38432627
N       -1.12451131       2.51652524      -0.93021777
H       -0.46416939      -0.84682438      -1.68243450
H       -0.38395849      -1.86181468      -0.09893070
H        2.98593233      -0.40136455       0.91300275
10
Frame=2 idx=009383 GeodesicLength=0.1354249560363906 rxn_smarts="[O:1]=[C:2]([C:3]([C:4]#[C:5][H:10])([H:8])[H:9])[C:6]#[N:7]>>[O:1]1[C@:2]([C:4]#[C:5][H:10])([C:6]#[N:7])[C:3]1([H:8])[H:9]"
O       -1.68340113      -0.21035722       1.05786472
C       -0.72074974       0.23091200       0.30304521
C       -0.45395286      -0.90329006      -0.58235840
C        0.80132348       0.09517318       0.62324118
C        1.97260750      -0.16592471       0.74580766
C       -0.92637334       1.53446118      -0.38089218
N       -1.11522148       2.52378192      -0.92807864
H       -0.48833653      -0.84772722      -1.67004012
H       -0.38533952      -1.86625056      -0.09405784
H        2.99944362      -0.39077851       0.92546840
10
Frame=3 idx=009383 GeodesicLength=0.20316183443607344 rxn_smarts="[O:1]=[C:2]([C:3]([C:4]#[C:5][H:10])([H:8])[H:9])[C:6]#[N:7]>>[O:1]1[C@:2]([C:4]#[C:5][H:10])([C:6]#[N:7])[C:3]1([H:8])[H:9]"
O       -1.70116338      -0.22731177       1.02599319
C       -0.72486937       0.23779148       0.30586495
C       -0.45977868      -0.90469675      -0.57065823
C        0.81310855       0.07781467       0.61179074
C        1.98789528      -0.15905408       0.74052037
C       -0.92447332       1.54040725      -0.37703714
N       -1.10406740       2.53080365      -0.92531065
H       -0.51177749      -0.84869030      -1.65747674
H       -0.38835556      -1.87122218      -0.08957807
H        3.01348138      -0.37584198       0.93589157
10
Frame=4 idx=009383 GeodesicLength=0.27089871924945513 rxn_smarts="[O:1]=[C:2]([C:3]([C:4]#[C:5][H:10])([H:8])[H:9])[C:6]#[N:7]>>[O:1]1[C@:2]([C:4]#[C:5][H:10])([C:6]#[N:7])[C:3]1([H:8])[H:9]"
O       -1.71834610      -0.24313633       0.99409094
C       -0.72909818       0.24412174       0.30905812
C       -0.46576122      -0.90624893      -0.55913600
C        0.82502327       0.05980719       0.59944276
C        2.00272916      -0.15250967       0.73557814
C       -0.92240136       1.54594919      -0.37288247
N       -1.09247095       2.53745891      -0.92211366
H       -0.53473416      -0.84961813      -1.64484578
H       -0.39220765      -1.87640816      -0.08543716
H        3.02726720      -0.35941580       0.94624512
10
Frame=5 idx=009383 GeodesicLength=0.3386512153029244 rxn_smarts="[O:1]=[C:2]([C:3]([C:4]#[C:5][H:10])([H:8])[H:9])[C:6]#[N:7]>>[O:1]1[C@:2]([C:4]#[C:5][H:10])([C:6]#[N:7])[C:3]1([H:8])[H:9]"
O       -1.73445100      -0.25787257       0.96255262
C       -0.73324314       0.24999809       0.31252949
C       -0.47186600      -0.90790430      -0.54786710
C        0.83737898       0.04145646       0.58553276
C        2.01742721      -0.14581008       0.73015387
C       -0.92037988       1.55110902      -0.36851328
N       -1.08095093       2.54377855      -0.91845465
H       -0.55756705      -0.85055539      -1.63222648
H       -0.39657198      -1.88170388      -0.08162891
H        3.04022378      -0.34249591       0.95792169
10
Frame=6 idx=009383 GeodesicLength=0.40643636952340306 rxn_smarts="[O:1]=[C:2]([C:3]([C:4]#[C:5][H:10])([H:8])[H:9])[C:6]#[N:7]>>[O:1]1[C@:2]([C:4]#[C:5][H:10])([C:6]#[N:7])[C:3]1([H:8])[H:9]"
O       -1.75005974      -0.27149628       0.93105417
C       -0.73745227       0.25524909       0.31628949
C       -0.47828855      -0.90985632      -0.53682222
C        0.84983284       0.02205526       0.57060878
C        2.03149551      -0.13997642       0.72523488
C       -0.91790009       1.55584277      -0.36383141
N       -1.06844887       2.54985649      -0.91414085
H       -0.58005673      -0.85156620      -1.61963099
H       -0.40213280      -1.88735731      -0.07815834
H        3.05301070      -0.32275108       0.96939650
10
Frame=7 idx=009383 GeodesicLength=0.47422014427967285 rxn_smarts="[O:1]=[C:2]([C:3]([C:4]#[C:5][H:10])([H:8])[H:9])[C:6]#[N:7]>>[O:1]1[C@:2]([C:4]#[C:5][H:10])([C:6]#[N:7])[C:3]1([H:8])[H:9]"
O       -1.76472408      -0.28405923       0.89996161
C       -0.74156468       0.26004818       0.32027048
C       -0.48485411      -0.91197518      -0.52601331
C        0.86264027       0.00214073       0.55413502
C        2.04515987      -0.13430528       0.72042423
C       -0.91528670       1.56022262      -0.35893341
N       -1.05579328       2.55564333      -0.90932656
H       -0.60223300      -0.85262003      -1.60708280
H       -0.40836190      -1.89316781      -0.07494657
H        3.06501760      -0.30192733       0.98151132
10
Frame=8 idx=009383 GeodesicLength=0.5420919768529544 rxn_smarts="[O:1]=[C:2]([C:3]([C:4]#[C:5][H:10])([H:8])[H:9])[C:6]#[N:7]>>[O:1]1[C@:2]([C:4]#[C:5][H:10])([C:6]#[N:7])[C:3]1([H:8])[H:9]"
O       -1.77866364      -0.29559329       0.86924012
C       -0.74560587       0.26428641       0.32447197
C       -0.49170038      -0.91438886      -0.51544022
C        0.87572637      -0.01874800       0.53623315
C        2.05821922      -0.12927276       0.71586524
C       -0.91230806       1.56421317      -0.35377513
N       -1.04231103       2.56125274      -0.90385422
H       -0.62411205      -0.85375142      -1.59463123
H       -0.41559266      -1.89929671      -0.07199140
H        3.07634809      -0.27870127       0.99388171
10
Frame=9 idx=009383 GeodesicLength=0.609914831565231 rxn_smarts="[O:1]=[C:2]([C:3]([C:4]#[C:5][H:10])([H:8])[H:9])[C:6]#[N:7]>>[O:1]1[C@:2]([C:4]#[C:5][H:10])([C:6]#[N:7])[C:3]1([H:8])[H:9]"
O       -1.79106831      -0.30606163       0.83947746
C       -0.74915105       0.26810369       0.32875177
C       -0.49885472      -0.91702438      -0.50526105
C        0.88952379      -0.04020658       0.51562558
C        2.07109234      -0.12466956       0.71056071
C       -0.90905889       1.56783478      -0.34840955
N       -1.02872906       2.56658599      -0.89767785
H       -0.64654326      -0.85507857      -1.58229692
H       -0.42349502      -1.90557830      -0.06943352
H        3.08628419      -0.25390543       1.00866337
10
Frame=10 idx=009383 GeodesicLength=0.6778702996447551 rxn_smarts="[O:1]=[C:2]([C:3]([C:4]#[C:5][H:10])([H:8])[H:9])[C:6]#[N:7]>>[O:1]1[C@:2]([C:4]#[C:5][H:10])([C:6]#[N:7])[C:3]1([H:8])[H:9]"
O       -1.80328073      -0.31556172       0.80977650
C       -0.75272404       0.27123263       0.33328852
C       -0.50630581      -0.92008223      -0.49521306
C        0.90328732      -0.06322550       0.49425020
C        2.08271543      -0.12134985       0.70663143
C       -0.90500805       1.57100557      -0.34269999
N       -1.01334920       2.57179164      -0.89064727
H       -0.66809776      -0.85645527      -1.57008009
H       -0.43279918      -1.91232987      -0.06702548
H        3.09556202      -0.22502540       1.02171923
10
Frame=11 idx=009383 GeodesicLength=0.7457795589599955 rxn_smarts="[O:1]=[C:2]([C:3]([C:4]#[C:5][H:10])([H:8])[H:9])[C:6]#[N:7]>>[O:1]1[C@:2]([C:4]#[C:5][H:10])([C:6]#[N:7])[C:3]1([H:8])[H:9]"
O       -1.81344577      -0.32406145       0.78163429
C       -0.75546152       0.27413361       0.33780608
C       -0.51388293      -0.92327563      -0.48557074
C        0.91811438      -0.08641619       0.46917606
C        2.09428768      -0.11808478       0.70159123
C       -0.90085899       1.57392957      -0.33692420
N       -0.99856797       2.57679258      -0.88305725
H       -0.69046546      -0.85808127      -1.55793739
H       -0.44223470      -1.91909769      -0.06491512
H        3.10251530      -0.19583874       1.03819704
10
Frame=12 idx=009383 GeodesicLength=0.8138123661182832 rxn_smarts="[O:1]=[C:2]([C:3]([C:4]#[C:5][H:10])([H:8])[H:9])[C:6]#[N:7]>>[O:1]1[C@:2]([C:4]#[C:5][H:10])([C:6]#[N:7])[C:3]1([H:8])[H:9]"
O       -1.82418898      -0.33168504       0.75289565
C       -0.75847746       0.27613944       0.34267697
C       -0.52175144      -0.92705546      -0.47590018
C        0.93234748      -0.11192619       0.44458216
C        2.10372326      -0.11687124       0.69908073
C       -0.89538276       1.57626893      -0.33062193
N       -0.98048623       2.58168606      -0.87420323
H       -0.71110211      -0.85972458      -1.54594024
H       -0.45361544      -1.92653721      -0.06286186
H        3.10893369      -0.16029471       1.05029192
10
Frame=13 idx=009383 GeodesicLength=0.8817505488680737 rxn_smarts="[O:1]=[C:2]([C:3]([C:4]#[C:5][H:10])([H:8])[H:9])[C:6]#[N:7]>>[O:1]1[C@:2]([C:4]#[C:5][H:10])([C:6]#[N:7])[C:3]1([H:8])[H:9]"
O       -1.83274126      -0.33844695       0.72582302
C       -0.76056127       0.27812577       0.34753716
C       -0.52931738      -0.93078488      -0.46642841
C        0.94764920      -0.13704161       0.41638719
C        2.11280496      -0.11506530       0.69547202
C       -0.88998636       1.57841085      -0.32434966
N       -0.96342957       2.58627231      -0.86502218
H       -0.73199107      -0.86159773      -1.53385262
H       -0.46447840      -1.93370611      -0.06079233
H        3.11205116      -0.12616634       1.06522582
10
Frame=14 idx=009383 GeodesicLength=0.9497828923754225 rxn_smarts="[O:1]=[C:2]([C:3]([C:4]#[C:5][H:10])([H:8])[H:9])[C:6]#[N:7]>>[O:1]1[C@:2]([C:4]#[C:5][H:10])([C:6]#[N:7])[C:3]1([H:8])[H:9]"
O       -1.84130073      -0.34458617       0.69857864
C       -0.76283303       0.27967062       0.35265730
C       -0.53656198      -0.93474303      -0.45675386
C        0.96267828      -0.16304779       0.38819895
C        2.12014055      -0.11364999       0.69312822
C       -0.88413078       1.58021208      -0.31786538
N       -0.94484090       2.59081788      -0.85499721
H       -0.75089140      -0.86351115      -1.52175522
H       -0.47592732      -1.94107621      -0.05840507
H        3.11366731      -0.09008624       1.07721360
10
Frame=15 idx=009383 GeodesicLength=1.0178460161837848 rxn_smarts="[O:1]=[C:2]([C:3]([C:4]#[C:5][H:10])([H:8])[H:9])[C:6]#[N:7]>>[O:1]1[C@:2]([C:4]#[C:5][H:10])([C:6]#[N:7])[C:3]1([H:8])[H:9]"
O       -1.84938156      -0.35008970       0.67153801
C       -0.76505196       0.28090054       0.35803697
C       -0.54344118      -0.93884301      -0.44687091
C        0.97763940      -0.18973316       0.35955775
C        2.12621210      -0.11274405       0.69046382
C       -0.87782250       1.58172321      -0.31111781
N       -0.92508387       2.59519758      -0.84419225
H       -0.76813814      -0.86548761      -1.50958766
H       -0.48772813      -1.94851659      -0.05572191
H        3.11279584      -0.05240719       1.08789399
10
Frame=16 idx=009383 GeodesicLength=1.0859536454043806 rxn_smarts="[O:1]=[C:2]([C:3]([C:4]#[C:5][H:10])([H:8])[H:9])[C:6]#[N:7]>>[O:1]1[C@:2]([C:4]#[C:5][H:10])([C:6]#[N:7])[C:3]1([H:8])[H:9]"
O       -1.85780174      -0.35512965       0.64377303
C       -0.76786551       0.28181779       0.36376113
C       -0.54974699      -0.94304127      -0.43652719
C        0.99191080      -0.21705995       0.33232969
C        2.13064488      -0.11204097       0.68818199
C       -0.87120615       1.58293959      -0.30408771
N       -0.90373311       2.59943813      -0.83250000
H       -0.78251898      -0.86746581      -1.49736547
H       -0.49991695      -1.95599329      -0.05250594
H        3.11023375      -0.01346457       1.09494046
