11
Frame=0 idx=005939 GeodesicLength=0.0 rxn_smarts="[N:1]([C@@:2]1([H:9])[C:3]([H:10])([H:11])[O:4][C:5]1=[O:6])([H:7])[H:8]>>[N:1]([C:2]1=[C:5]([O:6][H:9])[O:4][C:3]1([H:10])[H:11])([H:7])[H:8]"
N        1.55990872      -0.45176720       0.32365780
C        0.24416904      -0.16507007      -0.06790210
C       -1.07100594      -0.79912962       0.35057139
O       -1.72262835       0.51157302       0.12246201
C       -0.51453423       1.00696842      -0.19350325
O       -0.22906290       2.08686946      -0.81275378
H        1.99928793       0.27559729       0.86620302
H        2.16968383      -0.76093644      -0.41513972
H        0.23815870       0.91665433      -1.27570666
H       -1.53342901      -1.54090357      -0.29946225
H       -1.14054779      -1.07985558       1.40157353
11
Frame=1 idx=005939 GeodesicLength=0.0614906100290629 rxn_smarts="[N:1]([C@@:2]1([H:9])[C:3]([H:10])([H:11])[O:4][C:5]1=[O:6])([H:7])[H:8]>>[N:1]([C:2]1=[C:5]([O:6][H:9])[O:4][C:3]1([H:10])[H:11])([H:7])[H:8]"
N        1.55734795      -0.45536003       0.32104171
C        0.24344119      -0.16437957      -0.07624396
C       -1.06989860      -0.79705384       0.35159022
O       -1.72195559       0.51390764       0.13230562
C       -0.51489505       1.01256725      -0.18562028
O       -0.23413785       2.08231404      -0.82219284
H        1.98927458       0.26064018       0.88432335
H        2.17421203      -0.74370895      -0.42036169
H        0.24666387       0.90959883      -1.28923432
H       -1.53596478      -1.53727881      -0.29763207
H       -1.13408772      -1.08124673       1.40202426
11
Frame=2 idx=005939 GeodesicLength=0.12299349850175889 rxn_smarts="[N:1]([C@@:2]1([H:9])[C:3]([H:10])([H:11])[O:4][C:5]1=[O:6])([H:7])[H:8]>>[N:1]([C:2]1=[C:5]([O:6][H:9])[O:4][C:3]1([H:10])[H:11])([H:7])[H:8]"
N        1.55478565      -0.45883369       0.31839766
C        0.24270422      -0.16333490      -0.08432629
C       -1.06871939      -0.79488344       0.35255206
O       -1.72115783       0.51637318       0.14255902
C       -0.51516058       1.01842844      -0.17726779
O       -0.23974675       2.07728706      -0.83205969
H        1.97925124       0.24524519       0.90204015
H        2.17860477      -0.72632543      -0.42507723
H        0.25543228       0.90228266      -1.30298319
H       -1.53839289      -1.53333634      -0.29611213
H       -1.12760072      -1.08290273       1.40227743
11
Frame=3 idx=005939 GeodesicLength=0.18450267917965285 rxn_smarts="[N:1]([C@@:2]1([H:9])[C:3]([H:10])([H:11])[O:4][C:5]1=[O:6])([H:7])[H:8]>>[N:1]([C:2]1=[C:5]([O:6][H:9])[O:4][C:3]1([H:10])[H:11])([H:7])[H:8]"
N        1.55221415      -0.46216450       0.31575731
C        0.24195573      -0.16190990      -0.09213709
C       -1.06747073      -0.79262239       0.35344702
O       -1.72026255       0.51893319       0.15316415
C       -0.51535367       1.02456025      -0.16842096
O       -0.24591034       2.07177746      -0.84226523
H        1.96929440       0.22955401       0.91919742
H        2.18280059      -0.70897183      -0.42923704
H        0.26452677       0.89475364      -1.31691469
H       -1.54067378      -1.52910352      -0.29491605
H       -1.12112058      -1.08480640       1.40232517
11
Frame=4 idx=005939 GeodesicLength=0.24602404150259896 rxn_smarts="[N:1]([C@@:2]1([H:9])[C:3]([H:10])([H:11])[O:4][C:5]1=[O:6])([H:7])[H:8]>>[N:1]([C:2]1=[C:5]([O:6][H:9])[O:4][C:3]1([H:10])[H:11])([H:7])[H:8]"
N        1.54963072      -0.46536558       0.31309455
C        0.24119427      -0.16010640      -0.09970850
C       -1.06615571      -0.79025658       0.35428150
O       -1.71924672       0.52161806       0.16419996
C       -0.51546734       1.03096865      -0.15910125
O       -0.25265540       2.06570416      -0.85286960
H        1.95934478       0.21346507       0.93593412
H        2.18685112      -0.69149911      -0.43289183
H        0.27397868       0.88697541      -1.33107319
H       -1.54286301      -1.52453773      -0.29403194
H       -1.11461140      -1.08696597       1.40216617
11
Frame=5 idx=005939 GeodesicLength=0.30757046067986943 rxn_smarts="[N:1]([C@@:2]1([H:9])[C:3]([H:10])([H:11])[O:4][C:5]1=[O:6])([H:7])[H:8]>>[N:1]([C:2]1=[C:5]([O:6][H:9])[O:4][C:3]1([H:10])[H:11])([H:7])[H:8]"
N        1.54702871      -0.46844397       0.31038988
C        0.24042154      -0.15792882      -0.10708305
C       -1.06477130      -0.78777021       0.35505576
O       -1.71807262       0.52445806       0.17574449
C       -0.51548277       1.03765825      -0.14933273
O       -0.26001889       2.05898247      -0.86388326
H        1.94932507       0.19691537       0.95233766
H        2.19080550      -0.67380321      -0.43605053
H        0.28380970       0.87890903      -1.34551482
H       -1.54501089      -1.51959042      -0.29345407
H       -1.10803406      -1.08938654       1.40179067
11
Frame=6 idx=005939 GeodesicLength=0.36912074375964393 rxn_smarts="[N:1]([C@@:2]1([H:9])[C:3]([H:10])([H:11])[O:4][C:5]1=[O:6])([H:7])[H:8]>>[N:1]([C:2]1=[C:5]([O:6][H:9])[O:4][C:3]1([H:10])[H:11])([H:7])[H:8]"
N        1.54440009      -0.47137211       0.30766460
C        0.23963201      -0.15534631      -0.11424909
C       -1.06332306      -0.78516308       0.35576168
O       -1.71676855       0.52742298       0.18776751
C       -0.51543113       1.04464069      -0.13909992
O       -0.26801264       2.05156550      -0.87524347
H        1.93930576       0.18001220       0.96828819
H        2.19461344      -0.65602143      -0.43867998
H        0.29408953       0.87059214      -1.36019931
H       -1.54709270      -1.51427224      -0.29319755
H       -1.10141274      -1.09205834       1.40118735
11
Frame=7 idx=005939 GeodesicLength=0.43070847305326027 rxn_smarts="[N:1]([C@@:2]1([H:9])[C:3]([H:10])([H:11])[O:4][C:5]1=[O:6])([H:7])[H:8]>>[N:1]([C:2]1=[C:5]([O:6][H:9])[O:4][C:3]1([H:10])[H:11])([H:7])[H:8]"
N        1.54174083      -0.47415723       0.30490228
C        0.23882157      -0.15235854      -0.12123791
C       -1.06181290      -0.78242429       0.35640215
O       -1.71531362       0.53053624       0.20036697
C       -0.51531617       1.05191807      -0.12842285
O       -0.27666494       2.04338391      -0.88700527
H        1.92923302       0.16268490       0.98387636
H        2.19831708      -0.63804806      -0.44079425
H        0.30486536       0.86200171      -1.37517239
H       -1.54916276      -1.50853576      -0.29326157
H       -1.09470747      -1.09500096       1.40034649
11
Frame=8 idx=005939 GeodesicLength=0.49231325220043093 rxn_smarts="[N:1]([C@@:2]1([H:9])[C:3]([H:10])([H:11])[O:4][C:5]1=[O:6])([H:7])[H:8]>>[N:1]([C:2]1=[C:5]([O:6][H:9])[O:4][C:3]1([H:10])[H:11])([H:7])[H:8]"
N        1.53904083      -0.47680356       0.30208037
C        0.23800249      -0.14896770      -0.12809593
C       -1.06022669      -0.77952916       0.35697458
O       -1.71362422       0.53384544       0.21365020
C       -0.51509169       1.05950110      -0.11735490
O       -0.28605883       2.03433619      -0.89917611
H        1.91898900       0.14482600       0.99918006
H        2.20197224      -0.61974286      -0.44235851
H        0.31613965       0.85307012      -1.39050129
H       -1.55127739      -1.50229840      -0.29363995
H       -1.08786539      -1.09823717       1.39924148
11
Frame=9 idx=005939 GeodesicLength=0.5539929130548615 rxn_smarts="[N:1]([C@@:2]1([H:9])[C:3]([H:10])([H:11])[O:4][C:5]1=[O:6])([H:7])[H:8]>>[N:1]([C:2]1=[C:5]([O:6][H:9])[O:4][C:3]1([H:10])[H:11])([H:7])[H:8]"
N        1.53628852      -0.47929896       0.29918596
C        0.23715287      -0.14516119      -0.13484783
C       -1.05857574      -0.77646407       0.35748101
O       -1.71170378       0.53735486       0.22771373
C       -0.51479901       1.06740086      -0.10591971
O       -0.29615242       2.02424489      -0.91176686
H        1.90853354       0.12641735       1.01426071
H        2.20558512      -0.60100317      -0.44342443
H        0.32801410       0.84379996      -1.40620576
H       -1.55349099      -1.49551457      -0.29433747
H       -1.08085222      -1.10177597       1.39786065
11
Frame=10 idx=005939 GeodesicLength=0.6156803561208888 rxn_smarts="[N:1]([C@@:2]1([H:9])[C:3]([H:10])([H:11])[O:4][C:5]1=[O:6])([H:7])[H:8]>>[N:1]([C:2]1=[C:5]([O:6][H:9])[O:4][C:3]1([H:10])[H:11])([H:7])[H:8]"
N        1.53348830      -0.48162462       0.29621432
C        0.23627217      -0.14092036      -0.14150332
C       -1.05686449      -0.77322991       0.35791644
O       -1.70956027       0.54106298       0.24253097
C       -0.51445069       1.07563393      -0.09413387
O       -0.30697878       2.01310917      -0.92472270
H        1.89792572       0.10747990       1.02899863
H        2.20914847      -0.58189647      -0.44388842
H        0.34050199       0.83419985      -1.42225615
H       -1.55580085      -1.48820288      -0.29535535
H       -1.07368159      -1.10561158       1.39619943
11
Frame=11 idx=005939 GeodesicLength=0.6774584624038766 rxn_smarts="[N:1]([C@@:2]1([H:9])[C:3]([H:10])([H:11])[O:4][C:5]1=[O:6])([H:7])[H:8]>>[N:1]([C:2]1=[C:5]([O:6][H:9])[O:4][C:3]1([H:10])[H:11])([H:7])[H:8]"
N        1.53060775      -0.48376579       0.29318004
C        0.23537110      -0.13624623      -0.14808861
C       -1.05508107      -0.76980898       0.35827629
O       -1.70713223       0.54491816       0.25817403
C       -0.51403693       1.08416938      -0.08202978
O       -0.31855161       2.00083850      -0.93795834
H        1.88705235       0.08810302       1.04336739
H        2.21263568      -0.56245424      -0.44376869
H        0.35369765       0.82426738      -1.43869318
H       -1.55822038      -1.48028456      -0.29666714
H       -1.06634232      -1.10973663       1.39420800
11
Frame=12 idx=005939 GeodesicLength=0.7392813727501124 rxn_smarts="[N:1]([C@@:2]1([H:9])[C:3]([H:10])([H:11])[O:4][C:5]1=[O:6])([H:7])[H:8]>>[N:1]([C:2]1=[C:5]([O:6][H:9])[O:4][C:3]1([H:10])[H:11])([H:7])[H:8]"
N        1.52765975      -0.48571359       0.29007448
C        0.23442404      -0.13112629      -0.15461655
C       -1.05324261      -0.76621568       0.35856454
O       -1.70448139       0.54892169       0.27457773
C       -0.51362326       1.09304064      -0.06964178
O       -0.33080029       1.98742296      -0.95139565
H        1.87600071       0.06832567       1.05729248
H        2.21604184      -0.54273037      -0.44302694
H        0.36761329       0.81403915      -1.45547892
H       -1.56075711      -1.47183025      -0.29826366
H       -1.05883496      -1.11413394       1.39191428
11
Frame=13 idx=005939 GeodesicLength=0.8011414614752052 rxn_smarts="[N:1]([C@@:2]1([H:9])[C:3]([H:10])([H:11])[O:4][C:5]1=[O:6])([H:7])[H:8]>>[N:1]([C:2]1=[C:5]([O:6][H:9])[O:4][C:3]1([H:10])[H:11])([H:7])[H:8]"
N        1.52460921      -0.48743205       0.28689290
C        0.23341055      -0.12555150      -0.16110970
C       -1.05134851      -0.76244222       0.35877881
O       -1.70159179       0.55304742       0.29169696
C       -0.51324008       1.10224366      -0.05701474
O       -0.34363622       1.97274527      -0.96485803
H        1.86475298       0.04824347       1.07068638
H        2.21933541      -0.52277792      -0.44164904
H        0.38227344       0.80354452      -1.47261587
H       -1.56340683      -1.46285473      -0.30012683
H       -1.05115817      -1.11876594       1.38931916
11
Frame=14 idx=005939 GeodesicLength=0.8630602788139095 rxn_smarts="[N:1]([C@@:2]1([H:9])[C:3]([H:10])([H:11])[O:4][C:5]1=[O:6])([H:7])[H:8]>>[N:1]([C:2]1=[C:5]([O:6][H:9])[O:4][C:3]1([H:10])[H:11])([H:7])[H:8]"
N        1.52144435      -0.48891567       0.28362867
C        0.23234544      -0.11954072      -0.16757782
C       -1.04939005      -0.75848458       0.35892284
O       -1.69848242       0.55719324       0.30946530
C       -0.51291097       1.11171282      -0.04416561
O       -0.35695285       1.95689424      -0.97820654
H        1.85325610       0.02796605       1.08347415
H        2.22245634      -0.50265570      -0.43967891
H        0.39768837       0.79273715      -1.49006681
H       -1.56610132      -1.45335377      -0.30219103
H       -1.04335300      -1.12355307       1.38639576
11
Frame=15 idx=005939 GeodesicLength=0.9250231895731644 rxn_smarts="[N:1]([C@@:2]1([H:9])[C:3]([H:10])([H:11])[O:4][C:5]1=[O:6])([H:7])[H:8]>>[N:1]([C:2]1=[C:5]([O:6][H:9])[O:4][C:3]1([H:10])[H:11])([H:7])[H:8]"
N        1.51817649      -0.49015843       0.28027885
C        0.23119829      -0.11310588      -0.17403980
C       -1.04739568      -0.75437342       0.35900879
O       -1.69520874       0.56134640       0.32773340
C       -0.51269072       1.12147120      -0.03116078
O       -0.37057117       1.93990774      -0.99125216
H        1.84158618       0.00757072       1.09559659
H        2.22541906      -0.48240439      -0.43710786
H        0.41378934       0.78166124      -1.50784694
H       -1.56887367      -1.44345417      -0.30441416
H       -1.03542938      -1.12846102       1.38320408
11
Frame=16 idx=005939 GeodesicLength=0.9870233803311159 rxn_smarts="[N:1]([C@@:2]1([H:9])[C:3]([H:10])([H:11])[O:4][C:5]1=[O:6])([H:7])[H:8]>>[N:1]([C:2]1=[C:5]([O:6][H:9])[O:4][C:3]1([H:10])[H:11])([H:7])[H:8]"
N        1.51478988      -0.49113991       0.27684448
C        0.22995979      -0.10626525      -0.18049463
C       -1.04536660      -0.75012820       0.35904328
O       -1.69183631       0.56541953       0.34629560
C       -0.51263053       1.13147511      -0.01802358
O       -0.38425971       1.92191736      -1.00373609
H        1.82977370      -0.01276098       1.10694548
H        2.22815233      -0.46216458      -0.43399164
H        0.43049626       0.77030554      -1.52592424
H       -1.57163674      -1.43326711      -0.30673813
H       -1.02744208      -1.13339151       1.37977946
