16
Frame=0 idx=011127 GeodesicLength=0.0 rxn_smarts="[C:1]([C:2]1([C:6]#[N:7])[C:3]([H:11])([H:12])[C:4]([H:13])([H:14])[C:5]1([H:15])[H:16])([H:8])([H:9])[H:10]>>[C:1]1([H:8])([H:10])[C:2]2([C:3]([H:11])([H:12])[C:4]([H:13])([H:14])[C:5]2([H:15])[H:16])/[C:6]1=[N:7]/[H:9]"
C        1.21114448       1.13519652       0.13290055
C        0.33715510      -0.16566103      -0.00897891
C       -0.74779269      -0.49466010       1.02785435
C       -1.79567978      -0.10732887      -0.03881373
C       -0.71205890      -0.27759285      -1.12611603
C        1.67309315      -0.63199445      -0.03823009
N        2.81820912      -1.02971219      -0.06406534
H        1.11573690       1.79680998      -0.72281146
H        2.65634525       0.25723573       0.06056914
H        1.10135898       1.60828786       1.10426175
H       -0.71765811       0.07663681       1.95441565
H       -0.77483142      -1.56030340       1.25863028
H       -2.68260724      -0.73338389      -0.11601698
H       -2.10406497       0.93291472       0.06103837
H       -0.72737292      -1.27475455      -1.56742850
H       -0.65097693       0.46830978      -1.91720901
16
Frame=1 idx=011127 GeodesicLength=0.07826422768711543 rxn_smarts="[C:1]([C:2]1([C:6]#[N:7])[C:3]([H:11])([H:12])[C:4]([H:13])([H:14])[C:5]1([H:15])[H:16])([H:8])([H:9])[H:10]>>[C:1]1([H:8])([H:10])[C:2]2([C:3]([H:11])([H:12])[C:4]([H:13])([H:14])[C:5]2([H:15])[H:16])/[C:6]1=[N:7]/[H:9]"
C        1.21500961       1.13085286       0.12677442
C        0.33573151      -0.16283460      -0.01452479
C       -0.74385205      -0.49639479       1.02643137
C       -1.79757124      -0.10988474      -0.03473086
C       -0.71795257      -0.27097895      -1.12748396
C        1.66898400      -0.64003657      -0.05373527
N        2.81399363      -1.03731011      -0.04787364
H        1.13935183       1.78665687      -0.73563382
H        2.66614733       0.26695093       0.09275116
H        1.08504372       1.61962619       1.08786600
H       -0.71120134       0.07366290       1.95373326
H       -0.76579611      -1.56232727       1.25620518
H       -2.68111027      -0.74094129      -0.11076028
H       -2.11181901       0.92811542       0.07018936
H       -0.73196988      -1.26533285      -1.57507866
H       -0.66298914       0.48017600      -1.91412946
16
Frame=2 idx=011127 GeodesicLength=0.1565195560401538 rxn_smarts="[C:1]([C:2]1([C:6]#[N:7])[C:3]([H:11])([H:12])[C:4]([H:13])([H:14])[C:5]1([H:15])[H:16])([H:8])([H:9])[H:10]>>[C:1]1([H:8])([H:10])[C:2]2([C:3]([H:11])([H:12])[C:4]([H:13])([H:14])[C:5]2([H:15])[H:16])/[C:6]1=[N:7]/[H:9]"
C        1.21895364       1.12641339       0.12071767
C        0.33444423      -0.16014101      -0.02006355
C       -0.73978421      -0.49816527       1.02499280
C       -1.79928878      -0.11243691      -0.03063038
C       -0.72374978      -0.26433939      -1.12878980
C        1.66495481      -0.64812067      -0.06929895
N        2.80910372      -1.04477504      -0.03196436
H        1.16291827       1.77611662      -0.74807185
H        2.67515665       0.27683645       0.12549230
H        1.06860222       1.63116526       1.07056956
H       -0.70453102       0.07067429       1.95301097
H       -0.75668061      -1.56436861       1.25372812
H       -2.67943117      -0.74843812      -0.10555857
H       -2.11932138       0.92327397       0.07942852
H       -0.73656885      -1.25580479      -1.58273057
H       -0.67477774       0.49210983      -1.91083190
16
Frame=3 idx=011127 GeodesicLength=0.2347729132345714 rxn_smarts="[C:1]([C:2]1([C:6]#[N:7])[C:3]([H:11])([H:12])[C:4]([H:13])([H:14])[C:5]1([H:15])[H:16])([H:8])([H:9])[H:10]>>[C:1]1([H:8])([H:10])[C:2]2([C:3]([H:11])([H:12])[C:4]([H:13])([H:14])[C:5]2([H:15])[H:16])/[C:6]1=[N:7]/[H:9]"
C        1.22297819       1.12185135       0.11479562
C        0.33328433      -0.15759659      -0.02555285
C       -0.73563279      -0.49995059       1.02355982
C       -1.80084153      -0.11497922      -0.02653421
C       -0.72942647      -0.25770070      -1.13001922
C        1.66098149      -0.65630102      -0.08479988
N        2.80359709      -1.05203413      -0.01657036
H        1.18641255       1.76519234      -0.76004786
H        2.68340326       0.28697549       0.15865818
H        1.05209957       1.64282518       1.05241686
H       -0.69771874       0.06771747       1.95225625
H       -0.74755378      -1.56640162       1.25124912
H       -2.67758263      -0.75586376      -0.10044677
H       -2.12657688       0.91840266       0.08870020
H       -0.74114165      -1.24620610      -1.59034915
H       -0.68628201       0.50406923      -1.90731575
16
Frame=4 idx=011127 GeodesicLength=0.31309200855051406 rxn_smarts="[C:1]([C:2]1([C:6]#[N:7])[C:3]([H:11])([H:12])[C:4]([H:13])([H:14])[C:5]1([H:15])[H:16])([H:8])([H:9])[H:10]>>[C:1]1([H:8])([H:10])[C:2]2([C:3]([H:11])([H:12])[C:4]([H:13])([H:14])[C:5]2([H:15])[H:16])/[C:6]1=[N:7]/[H:9]"
C        1.22708522       1.11715099       0.10905217
C        0.33224032      -0.15521915      -0.03096794
C       -0.73143154      -0.50174226       1.02216122
C       -1.80224227      -0.11750442      -0.02245538
C       -0.73497385      -0.25108234      -1.13117872
C        1.65703455      -0.66464515      -0.10016383
N        2.79755518      -1.05903621      -0.00187592
H        1.20982807       1.75389513      -0.77152806
H        2.69092451       0.29745465       0.19221366
H        1.03559209       1.65455513       1.03343615
H       -0.69081462       0.06482701       1.95150033
H       -0.73847010      -1.56842899       1.24882205
H       -2.67558078      -0.76321439      -0.09544504
H       -2.13359554       0.91352787       0.09797112
H       -0.74568109      -1.23657447      -1.59793533
H       -0.69747017       0.51603661      -1.90360649
16
Frame=5 idx=011127 GeodesicLength=0.3912016973210008 rxn_smarts="[C:1]([C:2]1([C:6]#[N:7])[C:3]([H:11])([H:12])[C:4]([H:13])([H:14])[C:5]1([H:15])[H:16])([H:8])([H:9])[H:10]>>[C:1]1([H:8])([H:10])[C:2]2([C:3]([H:11])([H:12])[C:4]([H:13])([H:14])[C:5]2([H:15])[H:16])/[C:6]1=[N:7]/[H:9]"
C        1.23127613       1.11223631       0.10353772
C        0.33129822      -0.15301830      -0.03627876
C       -0.72722509      -0.50351082       1.02076258
C       -1.80350882      -0.12000620      -0.01841322
C       -0.74038235      -0.24449967      -1.13221111
C        1.65308061      -0.67317393      -0.11531313
N        2.79107293      -1.06560166       0.01206977
H        1.23312895       1.74217041      -0.78239977
H        2.69779915       0.30834520       0.22591387
H        1.01916627       1.66617905       1.01365842
H       -0.68388370       0.06202233       1.95065976
H       -0.72950296      -1.57036969       1.24642191
H       -2.67345518      -0.77044728      -0.09057943
H       -2.14038082       0.90861555       0.10719078
H       -0.75018469      -1.22688856      -1.60539329
H       -0.70829864       0.52794726      -1.89962611
16
Frame=6 idx=011127 GeodesicLength=0.4693335557445036 rxn_smarts="[C:1]([C:2]1([C:6]#[N:7])[C:3]([H:11])([H:12])[C:4]([H:13])([H:14])[C:5]1([H:15])[H:16])([H:8])([H:9])[H:10]>>[C:1]1([H:8])([H:10])[C:2]2([C:3]([H:11])([H:12])[C:4]([H:13])([H:14])[C:5]2([H:15])[H:16])/[C:6]1=[N:7]/[H:9]"
C        1.23554758       1.10711857       0.09829762
C        0.33044309      -0.15102016      -0.04146437
C       -0.72305341      -0.50526736       1.01942245
C       -1.80465703      -0.12246587      -0.01442111
C       -0.74564602      -0.23798726      -1.13315979
C        1.64908268      -0.68197655      -0.13021720
N        2.78424840      -1.07173417       0.02512618
H        1.25626236       1.73009911      -0.79264121
H        2.70409545       0.31979911       0.25970321
H        1.00293291       1.67765195       0.99317772
H       -0.67698322       0.05932665       1.94982616
H       -0.72072077      -1.57227927       1.24413734
H       -2.67123798      -0.77754909      -0.08586759
H       -2.14692751       0.90374220       0.11631788
H       -0.75465663      -1.21723663      -1.61275942
H       -0.71872989       0.53977877      -1.89547789
16
Frame=7 idx=011127 GeodesicLength=0.5474363185486403 rxn_smarts="[C:1]([C:2]1([C:6]#[N:7])[C:3]([H:11])([H:12])[C:4]([H:13])([H:14])[C:5]1([H:15])[H:16])([H:8])([H:9])[H:10]>>[C:1]1([H:8])([H:10])[C:2]2([C:3]([H:11])([H:12])[C:4]([H:13])([H:14])[C:5]2([H:15])[H:16])/[C:6]1=[N:7]/[H:9]"
C        1.23987209       1.10176799       0.09337133
C        0.32966498      -0.14924524      -0.04650601
C       -0.71893669      -0.50700204       1.01815347
C       -1.80569649      -0.12485500      -0.01049384
C       -0.75075852      -0.23157066      -1.13403067
C        1.64502200      -0.69112762      -0.14485908
N        2.77714965      -1.07737195       0.03723126
H        1.27913735       1.71769948      -0.80221759
H        2.70993802       0.33188870       0.29346949
H        0.98693470       1.68888939       0.97210423
H       -0.67015948       0.05676724       1.94901588
H       -0.71214644      -1.57415495       1.24199213
H       -2.66894149      -0.78447188      -0.08132990
H       -2.15324531       0.89896000       0.12531548
H       -0.75908171      -1.20766413      -1.62002597
H       -0.72875267       0.55149068      -1.89119021
16
Frame=8 idx=011127 GeodesicLength=0.6255569562385133 rxn_smarts="[C:1]([C:2]1([C:6]#[N:7])[C:3]([H:11])([H:12])[C:4]([H:13])([H:14])[C:5]1([H:15])[H:16])([H:8])([H:9])[H:10]>>[C:1]1([H:8])([H:10])[C:2]2([C:3]([H:11])([H:12])[C:4]([H:13])([H:14])[C:5]2([H:15])[H:16])/[C:6]1=[N:7]/[H:9]"
C        1.24430303       1.09612103       0.08870828
C        0.32894400      -0.14768825      -0.05145024
C       -0.71487126      -0.50873002       1.01687082
C       -1.80662745      -0.12720318      -0.00660296
C       -0.75576690      -0.22521826      -1.13475951
C        1.64081132      -0.70058628      -0.15930985
N        2.76984179      -1.08239343       0.04846002
H        1.30192072       1.70482976      -0.81114702
H        2.71522641       0.34477481       0.32751695
H        0.97123618       1.69980500       0.95017812
H       -0.66333765       0.05426959       1.94809210
H       -0.70382937      -1.57595795       1.23986593
H       -2.66659262      -0.79122631      -0.07691565
H       -2.15927844       0.89417000       0.13424378
H       -0.76357944      -1.19806608      -1.62712350
H       -0.73840032       0.56309960      -1.88662729
16
Frame=9 idx=011127 GeodesicLength=0.7037286910602425 rxn_smarts="[C:1]([C:2]1([C:6]#[N:7])[C:3]([H:11])([H:12])[C:4]([H:13])([H:14])[C:5]1([H:15])[H:16])([H:8])([H:9])[H:10]>>[C:1]1([H:8])([H:10])[C:2]2([C:3]([H:11])([H:12])[C:4]([H:13])([H:14])[C:5]2([H:15])[H:16])/[C:6]1=[N:7]/[H:9]"
C        1.24880014       1.09019846       0.08432390
C        0.32828688      -0.14638494      -0.05629976
C       -0.71085983      -0.51046644       1.01567610
C       -1.80749595      -0.12946375      -0.00275532
C       -0.76068030      -0.21893844      -1.13545904
C        1.63650304      -0.71050587      -0.17359737
N        2.76246630      -1.08685192       0.05881934
H        1.32450791       1.69159012      -0.81950615
H        2.72010124       0.35847243       0.36180966
H        0.95584321       1.71041577       0.92757980
H       -0.65656018       0.05186939       1.94724301
H       -0.69572080      -1.57778314       1.23789589
H       -2.66422408      -0.79778520      -0.07263666
H       -2.16513653       0.88951242       0.14309701
H       -0.76811145      -1.18852755      -1.63420722
H       -0.74771959       0.57464865      -1.88198319
16
Frame=10 idx=011127 GeodesicLength=0.781637338968183 rxn_smarts="[C:1]([C:2]1([C:6]#[N:7])[C:3]([H:11])([H:12])[C:4]([H:13])([H:14])[C:5]1([H:15])[H:16])([H:8])([H:9])[H:10]>>[C:1]1([H:8])([H:10])[C:2]2([C:3]([H:11])([H:12])[C:4]([H:13])([H:14])[C:5]2([H:15])[H:16])/[C:6]1=[N:7]/[H:9]"
C        1.25339506       1.08392692       0.08021730
C        0.32766823      -0.14532991      -0.06104923
C       -0.70693596      -0.51219600       1.01446747
C       -1.80828083      -0.13167075       0.00104172
C       -0.76549600      -0.21274197      -1.13602142
C        1.63198859      -0.72083536      -0.18771754
N        2.75491656      -1.09049404       0.06836051
H        1.34694465       1.67790152      -0.82720740
H        2.72460537       0.37309919       0.39620669
H        0.94091775       1.72053034       0.90430942
H       -0.64983828       0.04954407       1.94627370
H       -0.68792893      -1.57953497       1.23596728
H       -2.66184129      -0.80414824      -0.06849312
H       -2.17072475       0.88487331       0.15184449
H       -0.77273968      -1.17898853      -1.64111604
H       -0.75665050       0.58606442      -1.87708384
16
Frame=11 idx=011127 GeodesicLength=0.8596845875818352 rxn_smarts="[C:1]([C:2]1([C:6]#[N:7])[C:3]([H:11])([H:12])[C:4]([H:13])([H:14])[C:5]1([H:15])[H:16])([H:8])([H:9])[H:10]>>[C:1]1([H:8])([H:10])[C:2]2([C:3]([H:11])([H:12])[C:4]([H:13])([H:14])[C:5]2([H:15])[H:16])/[C:6]1=[N:7]/[H:9]"
C        1.25807836       1.07731431       0.07634743
C        0.32709745      -0.14454841      -0.06575008
C       -0.70305534      -0.51395197       1.01330341
C       -1.80900875      -0.13379300       0.00481616
C       -0.77025758      -0.20659585      -1.13653804
C        1.62729793      -0.73168649      -0.20176555
N        2.74735050      -1.09346360       0.07708235
H        1.36926257       1.66374271      -0.83439284
H        2.72865240       0.38876881       0.43113541
H        0.92641379       1.73022312       0.88024803
H       -0.64310346       0.04727097       1.94531728
H       -0.68036228      -1.58131285       1.23413508
H       -2.65945634      -0.81030831      -0.06444735
H       -2.17611856       0.88034472       0.16056229
H       -0.77749143      -1.16945363      -1.64800499
H       -0.76529926       0.59744948      -1.87204857
16
Frame=12 idx=011127 GeodesicLength=0.9376558890543305 rxn_smarts="[C:1]([C:2]1([C:6]#[N:7])[C:3]([H:11])([H:12])[C:4]([H:13])([H:14])[C:5]1([H:15])[H:16])([H:8])([H:9])[H:10]>>[C:1]1([H:8])([H:10])[C:2]2([C:3]([H:11])([H:12])[C:4]([H:13])([H:14])[C:5]2([H:15])[H:16])/[C:6]1=[N:7]/[H:9]"
C        1.26285399       1.07032283       0.07274189
C        0.32656346      -0.14405632      -0.07038812
C       -0.69925246      -0.51573784       1.01216029
C       -1.80968119      -0.13582444       0.00855491
C       -0.77495459      -0.20052677      -1.13698172
C        1.62238436      -0.74307929      -0.21573532
N        2.73975198      -1.09562264       0.08502462
H        1.39141926       1.64912327      -0.84100272
H        2.73232264       0.40560394       0.46637131
H        0.91245722       1.73936477       0.85551685
H       -0.63639776       0.04503423       1.94433039
H       -0.67309792      -1.58310176       1.23237462
H       -2.65710059      -0.81622765      -0.06051286
H       -2.18127275       0.87592649       0.16921579
H       -0.78238380      -1.15994187      -1.65481560
H       -0.77361184       0.60874304      -1.86685433
16
Frame=13 idx=011127 GeodesicLength=1.0156000117723554 rxn_smarts="[C:1]([C:2]1([C:6]#[N:7])[C:3]([H:11])([H:12])[C:4]([H:13])([H:14])[C:5]1([H:15])[H:16])([H:8])([H:9])[H:10]>>[C:1]1([H:8])([H:10])[C:2]2([C:3]([H:11])([H:12])[C:4]([H:13])([H:14])[C:5]2([H:15])[H:16])/[C:6]1=[N:7]/[H:9]"
C        1.26772181       1.06292494       0.06942151
C        0.32606447      -0.14387322      -0.07496015
C       -0.69553723      -0.51756534       1.01103718
C       -1.81030014      -0.13774048       0.01225308
C       -0.77958416      -0.19455205      -1.13735553
C        1.61722527      -0.75506002      -0.22963599
N        2.73214939      -1.09695778       0.09216856
H        1.41336578       1.63404921      -0.84701619
H        2.73564228       0.42377441       0.50186400
H        0.89909988       1.74786739       0.83018276
H       -0.62973208       0.04280990       1.94331956
H       -0.66616272      -1.58491722       1.23068290
H       -2.65479857      -0.82185392      -0.05669387
H       -2.18615978       0.87166143       0.17778917
H       -0.78742673      -1.15048052      -1.66153226
H       -0.78156749       0.61991328      -1.86152474
16
Frame=14 idx=011127 GeodesicLength=1.09352634075487 rxn_smarts="[C:1]([C:2]1([C:6]#[N:7])[C:3]([H:11])([H:12])[C:4]([H:13])([H:14])[C:5]1([H:15])[H:16])([H:8])([H:9])[H:10]>>[C:1]1([H:8])([H:10])[C:2]2([C:3]([H:11])([H:12])[C:4]([H:13])([H:14])[C:5]2([H:15])[H:16])/[C:6]1=[N:7]/[H:9]"
C        1.27269654       1.05510024       0.06636787
C        0.32559899      -0.14401131      -0.07948819
C       -0.69190606      -0.51944978       1.00992943
C       -1.81087380      -0.13954795       0.01592307
C       -0.78415989      -0.18865476      -1.13766603
C        1.61179675      -0.76767115      -0.24350355
N        2.72453704      -1.09743872       0.09854746
H        1.43516237       1.61847680      -0.85248070
H        2.73858267       0.44339630       0.53771430
H        0.88640042       1.75571087       0.80421412
H       -0.62308725       0.04057685       1.94228618
H       -0.65956262      -1.58678176       1.22904745
H       -2.65256113      -0.82720305      -0.05297344
H       -2.19079191       0.86754245       0.18631722
H       -0.79264776      -1.14104262      -1.66818659
H       -0.78918436       0.63099758      -1.85604862
16
Frame=15 idx=011127 GeodesicLength=1.171460039121075 rxn_smarts="[C:1]([C:2]1([C:6]#[N:7])[C:3]([H:11])([H:12])[C:4]([H:13])([H:14])[C:5]1([H:15])[H:16])([H:8])([H:9])[H:10]>>[C:1]1([H:8])([H:10])[C:2]2([C:3]([H:11])([H:12])[C:4]([H:13])([H:14])[C:5]2([H:15])[H:16])/[C:6]1=[N:7]/[H:9]"
C        1.27778251       1.04682043       0.06356051
C        0.32516885      -0.14448000      -0.08398969
C       -0.68833739      -0.52139824       1.00882963
C       -1.81139548      -0.14124988       0.01957253
C       -0.78869048      -0.18280905      -1.13791301
C        1.60607478      -0.78095337      -0.25735999
N        2.71689078      -1.09707523       0.10416447
H        1.45684161       1.60234309      -0.85744454
H        2.74106251       0.46457804       0.57405169
H        0.87439340       1.76287718       0.77756758
H       -0.61642849       0.03832035       1.94121893
H       -0.65326969      -1.58870227       1.22746132
H       -2.65036689      -0.83228789      -0.04934434
H       -2.19517905       0.86355745       0.19482679
H       -0.79805821      -1.13158278      -1.67479856
H       -0.79648876       0.64204217      -1.85040332
16
Frame=16 idx=011127 GeodesicLength=1.2493416692681405 rxn_smarts="[C:1]([C:2]1([C:6]#[N:7])[C:3]([H:11])([H:12])[C:4]([H:13])([H:14])[C:5]1([H:15])[H:16])([H:8])([H:9])[H:10]>>[C:1]1([H:8])([H:10])[C:2]2([C:3]([H:11])([H:12])[C:4]([H:13])([H:14])[C:5]2([H:15])[H:16])/[C:6]1=[N:7]/[H:9]"
C        1.28297868       1.03806435       0.06105505
C        0.32477343      -0.14529767      -0.08844242
C       -0.68486179      -0.52342519       1.00773122
C       -1.81187062      -0.14281963       0.02318327
C       -0.79315810      -0.17705000      -1.13809184
C        1.60004429      -0.79492809      -0.27117390
N        2.70919298      -1.09586874       0.10905553
H        1.47832247       1.58569305      -0.86183391
H        2.74318535       0.48754699       0.61056047
H        0.86315874       1.76923351       0.75042858
H       -0.60979929       0.03600149       1.94012335
H       -0.64734948      -1.59069084       1.22590437
H       -2.64826544      -0.83703609      -0.04583026
H       -2.19927592       0.85975225       0.20327562
H       -0.80365453      -1.12214920      -1.68132990
H       -0.80342077       0.65297383      -1.84461523
