21
Frame=0 idx=011596 GeodesicLength=0.0 rxn_smarts="[C:1]([C:2]([C:3]([C:4]([C:5]([C:6]([O:7][H:21])([H:19])[H:20])([H:17])[H:18])([H:15])[H:16])([H:13])[H:14])([H:11])[H:12])([H:8])([H:9])[H:10]>>[C:1]([C:2]([C:3]([H:13])([H:14])[H:20])([H:11])[H:12])([H:8])([H:9])[H:10].[C:4]1([H:15])([H:16])[C:5]([H:17])([H:18])[C:6]1([O:7][H:21])[H:19]"
C       -2.91273369       0.96973147      -0.21799491
C       -1.58801201       0.26322176      -0.49557552
C       -0.58689366       0.44537087       0.63033283
C        0.72434551      -1.82527265       0.24587335
C        1.97257161      -1.10936071       0.33923064
C        1.97147822       0.29140545      -0.23739168
O        3.03106874       1.07849692       0.11246063
H       -3.63048361       0.80655671      -1.02508360
H       -2.77063068       2.04791066      -0.10872245
H       -3.36257619       0.60104718       0.70717804
H       -1.76724713      -0.80168104      -0.65698553
H       -1.17071192       0.64382223      -1.43430396
H       -0.56037615       1.49941148       0.93728686
H       -0.83936977      -0.13855891       1.50913339
H        0.31913909      -2.06066211      -0.73143236
H        0.40366526      -2.46189138       1.05927906
H        2.39615968      -1.08425556       1.34410018
H        2.70902729      -1.58439161      -0.33485237
H        1.71432258       0.34683872      -1.30219526
H        0.62715869       0.46139842       0.28987626
H        3.32009808       1.61086216      -0.63021362
21
Frame=1 idx=011596 GeodesicLength=0.13679575596726598 rxn_smarts="[C:1]([C:2]([C:3]([C:4]([C:5]([C:6]([O:7][H:21])([H:19])[H:20])([H:17])[H:18])([H:15])[H:16])([H:13])[H:14])([H:11])[H:12])([H:8])([H:9])[H:10]>>[C:1]([C:2]([C:3]([H:13])([H:14])[H:20])([H:11])[H:12])([H:8])([H:9])[H:10].[C:4]1([H:15])([H:16])[C:5]([H:17])([H:18])[C:6]1([O:7][H:21])[H:19]"
C       -2.93210211       0.96575663      -0.19630109
C       -1.60973818       0.26233143      -0.49172814
C       -0.58772698       0.44646627       0.61596868
C        0.72552614      -1.79206654       0.20905503
C        1.98871114      -1.11049137       0.37281744
C        2.00162098       0.26118788      -0.26256689
O        3.04234075       1.06998957       0.10305660
H       -3.66026959       0.80112866      -0.99363695
H       -2.79086282       2.04414487      -0.08837171
H       -3.36827611       0.59551645       0.73480761
H       -1.79338701      -0.80289147      -0.64772329
H       -1.20661095       0.64054648      -1.43754818
H       -0.56560801       1.50071840       0.92332185
H       -0.84198953      -0.12415173       1.50425037
H        0.32691119      -1.99390592      -0.77862769
H        0.40027872      -2.48772854       0.97118609
H        2.34275882      -1.03985105       1.40139604
H        2.75909847      -1.62031373      -0.23216379
H        1.79175103       0.27860532      -1.33853330
H        0.65184451       0.49360029       0.26655227
H        3.32572956       1.61140808      -0.63521094
21
Frame=2 idx=011596 GeodesicLength=0.273012428758439 rxn_smarts="[C:1]([C:2]([C:3]([C:4]([C:5]([C:6]([O:7][H:21])([H:19])[H:20])([H:17])[H:18])([H:15])[H:16])([H:13])[H:14])([H:11])[H:12])([H:8])([H:9])[H:10]>>[C:1]([C:2]([C:3]([H:13])([H:14])[H:20])([H:11])[H:12])([H:8])([H:9])[H:10].[C:4]1([H:15])([H:16])[C:5]([H:17])([H:18])[C:6]1([O:7][H:21])[H:19]"
C       -2.95160317       0.96014429      -0.17413517
C       -1.63149202       0.26057507      -0.48760460
C       -0.58827377       0.44898627       0.60053186
C        0.72744933      -1.75810949       0.17264802
C        2.00103109      -1.11074656       0.40572367
C        2.03270304       0.23071921      -0.28467304
O        3.05537045       1.05924985       0.09634418
H       -3.69051302       0.79252908      -0.96082157
H       -2.81208736       2.03897554      -0.06882209
H       -3.37299796       0.58906645       0.76345102
H       -1.81843249      -0.80531721      -0.63675563
H       -1.24376671       0.63571850      -1.44101642
H       -0.57047650       1.50395516       0.90641111
H       -0.84306430      -0.10721634       1.49907224
H        0.33454824      -1.92604260      -0.82388049
H        0.39965293      -2.50915989       0.87975976
H        2.28902246      -0.99651925       1.45022918
H        2.79757421      -1.65354887      -0.13025659
H        1.87514576       0.20978718      -1.36913796
H        0.67716111       0.52729630       0.24034780
H        3.33304868       1.60965729      -0.63741529
21
Frame=3 idx=011596 GeodesicLength=0.4087252130730145 rxn_smarts="[C:1]([C:2]([C:3]([C:4]([C:5]([C:6]([O:7][H:21])([H:19])[H:20])([H:17])[H:18])([H:15])[H:16])([H:13])[H:14])([H:11])[H:12])([H:8])([H:9])[H:10]>>[C:1]([C:2]([C:3]([H:13])([H:14])[H:20])([H:11])[H:12])([H:8])([H:9])[H:10].[C:4]1([H:15])([H:16])[C:5]([H:17])([H:18])[C:6]1([O:7][H:21])[H:19]"
C       -2.97123628       0.95294167      -0.15133254
C       -1.65332680       0.25798023      -0.48317930
C       -0.58864161       0.45284623       0.58399409
C        0.73001763      -1.72345114       0.13624891
C        2.00962656      -1.11013161       0.43783927
C        2.06455044       0.20007267      -0.30398270
O        3.06982453       1.04669368       0.09213674
H       -3.72120844       0.78090853      -0.92643823
H       -2.83431688       2.03242537      -0.04976847
H       -3.37669733       0.58168402       0.79320899
H       -1.84238943      -0.80890471      -0.62417790
H       -1.28229111       0.62943518      -1.44460338
H       -0.57494884       1.50905116       0.88643183
H       -0.84266312      -0.08779665       1.49352263
H        0.34210886      -1.85681875      -0.86772061
H        0.40159189      -2.52590821       0.78494014
H        2.23502019      -0.95400445       1.49170136
H        2.82536580      -1.68443221      -0.02917528
H        1.96413299       0.13992327      -1.39353377
H        0.70316900       0.56216180       0.21121832
H        3.34231192       1.60532392      -0.63733008
21
Frame=4 idx=011596 GeodesicLength=0.543977623906115 rxn_smarts="[C:1]([C:2]([C:3]([C:4]([C:5]([C:6]([O:7][H:21])([H:19])[H:20])([H:17])[H:18])([H:15])[H:16])([H:13])[H:14])([H:11])[H:12])([H:8])([H:9])[H:10]>>[C:1]([C:2]([C:3]([H:13])([H:14])[H:20])([H:11])[H:12])([H:8])([H:9])[H:10].[C:4]1([H:15])([H:16])[C:5]([H:17])([H:18])[C:6]1([O:7][H:21])[H:19]"
C       -2.99096623       0.94419595      -0.12781754
C       -1.67523144       0.25458594      -0.47842095
C       -0.58896951       0.45795723       0.56642612
C        0.73315622      -1.68809757       0.09955952
C        2.01456429      -1.10862861       0.46904654
C        2.09695526       0.16929907      -0.32073282
O        3.08538353       1.03267871       0.09015268
H       -3.75224682       0.76642360      -0.89044065
H       -2.85753698       2.02451665      -0.03096100
H       -3.37937926       0.57334201       0.82404810
H       -1.86518326      -0.81358837      -0.61012128
H       -1.32213712       0.62181924      -1.44815273
H       -0.57909981       1.51591085       0.86342395
H       -0.84094600      -0.06599623       1.48756502
H        0.34969304      -1.78597771      -0.91051991
H        0.40618210      -2.53788098       0.68667745
H        2.18082772      -0.91203250       1.52663109
H        2.84306907      -1.71316237       0.07098045
H        2.05799195       0.06866857      -1.41110135
H        0.72997153       0.59796511       0.17936976
H        3.35390173       1.59800142      -0.63561247
21
Frame=5 idx=011596 GeodesicLength=0.6786164649815497 rxn_smarts="[C:1]([C:2]([C:3]([C:4]([C:5]([C:6]([O:7][H:21])([H:19])[H:20])([H:17])[H:18])([H:15])[H:16])([H:13])[H:14])([H:11])[H:12])([H:8])([H:9])[H:10]>>[C:1]([C:2]([C:3]([H:13])([H:14])[H:20])([H:11])[H:12])([H:8])([H:9])[H:10].[C:4]1([H:15])([H:16])[C:5]([H:17])([H:18])[C:6]1([O:7][H:21])[H:19]"
C       -3.01062390       0.93390813      -0.10359362
C       -1.69707921       0.25042565      -0.47329293
C       -0.58938121       0.46420707       0.54795114
C        0.73678793      -1.65200594       0.06237114
C        2.01583110      -1.10622458       0.49917389
C        2.12962032       0.13844476      -0.33512166
O        3.10166991       1.01745413       0.09006296
H       -3.78331599       0.74918534      -0.85288494
H       -2.88162329       2.01520230      -0.01223967
H       -3.38094663       0.56395013       0.85582751
H       -1.88660189      -0.81928454      -0.59471375
H       -1.36309765       0.61300603      -1.45147352
H       -0.58306089       1.52437198       0.83748453
H       -0.83809924      -0.04196534       1.48118649
H        0.35744169      -1.71324848      -0.95248360
H        0.41357027      -2.54488082       0.58512598
H        2.12652461      -0.87047395       1.55558963
H        2.85098159      -1.73981279       0.16996458
H        2.15548309      -0.00404937      -1.42119287
H        0.75768924       0.63453827       0.14518882
H        3.36823016       1.58725203      -0.63293011
21
Frame=6 idx=011596 GeodesicLength=0.8127670386758942 rxn_smarts="[C:1]([C:2]([C:3]([C:4]([C:5]([C:6]([O:7][H:21])([H:19])[H:20])([H:17])[H:18])([H:15])[H:16])([H:13])[H:14])([H:11])[H:12])([H:8])([H:9])[H:10]>>[C:1]([C:2]([C:3]([H:13])([H:14])[H:20])([H:11])[H:12])([H:8])([H:9])[H:10].[C:4]1([H:15])([H:16])[C:5]([H:17])([H:18])[C:6]1([O:7][H:21])[H:19]"
C       -3.03015548       0.92215611      -0.07878178
C       -1.71876074       0.24556692      -0.46777074
C       -0.59004258       0.47151732       0.52883394
C        0.74083408      -1.61512076       0.02473684
C        2.01358441      -1.10294047       0.52808460
C        2.16231123       0.10748063      -0.34732673
O        3.11854969       1.00114770       0.09139904
H       -3.81418022       0.72939888      -0.81406891
H       -2.90653798       2.00453780       0.00651049
H       -3.38155812       0.55349142       0.88825205
H       -1.90647556      -0.82590005      -0.57815524
H       -1.40484129       0.60313908      -1.45436871
H       -0.58703907       1.53431909       0.80892587
H       -0.83445447      -0.01583828       1.47447676
H        0.36546643      -1.63847542      -0.99356581
H        0.42429161      -2.54706722       0.48025450
H        2.07250512      -0.82910970       1.57907096
H        2.84935583      -1.76458162       0.26733197
H        2.25512193      -0.07832771      -1.42322517
H        0.78655465       0.67179981       0.10938941
H        3.38547052       1.57280645      -0.63000335
21
Frame=7 idx=011596 GeodesicLength=0.9464156301637222 rxn_smarts="[C:1]([C:2]([C:3]([C:4]([C:5]([C:6]([O:7][H:21])([H:19])[H:20])([H:17])[H:18])([H:15])[H:16])([H:13])[H:14])([H:11])[H:12])([H:8])([H:9])[H:10]>>[C:1]([C:2]([C:3]([H:13])([H:14])[H:20])([H:11])[H:12])([H:8])([H:9])[H:10].[C:4]1([H:15])([H:16])[C:5]([H:17])([H:18])[C:6]1([O:7][H:21])[H:19]"
C       -3.04941131       0.90895292      -0.05352210
C       -1.74011311       0.24002066      -0.46182830
C       -0.59106768       0.47978891       0.50931537
C        0.74520195      -1.57735401      -0.01328998
C        2.00793973      -1.09882747       0.55559869
C        2.19478033       0.07636819      -0.35749710
O        3.13592670       0.98375135       0.09376559
H       -3.84451958       0.70715397      -0.77426413
H       -2.93214846       1.99249604       0.02528443
H       -3.38123272       0.54194015       0.92105661
H       -1.92459311      -0.83337835      -0.56057021
H       -1.44700734       0.59226082      -1.45667881
H       -0.59121334       1.54559112       0.77797524
H       -0.83028216       0.01228229       1.46754044
H        0.37392114      -1.56151814      -1.03367793
H        0.43864414      -2.54422486       0.37227334
H        2.01913397      -0.78790014       1.59747493
H        2.83834250      -1.78762284       0.36254149
H        2.35512210      -0.15397376      -1.41686835
H        0.81681849       0.70971359       0.07267953
H        3.40575776       1.55447955      -0.62730876
21
Frame=8 idx=011596 GeodesicLength=1.0797175734634321 rxn_smarts="[C:1]([C:2]([C:3]([C:4]([C:5]([C:6]([O:7][H:21])([H:19])[H:20])([H:17])[H:18])([H:15])[H:16])([H:13])[H:14])([H:11])[H:12])([H:8])([H:9])[H:10]>>[C:1]([C:2]([C:3]([H:13])([H:14])[H:20])([H:11])[H:12])([H:8])([H:9])[H:10].[C:4]1([H:15])([H:16])[C:5]([H:17])([H:18])[C:6]1([O:7][H:21])[H:19]"
C       -3.06836274       0.89434013      -0.02796323
C       -1.76104914       0.23375456      -0.45543726
C       -0.59258160       0.48894729       0.48965753
C        0.74980969      -1.53864064      -0.05162278
C        1.99911076      -1.09396490       0.58154640
C        2.22689903       0.04503117      -0.36577621
O        3.15393182       0.96518788       0.09682828
H       -3.87418095       0.68251443      -0.73375354
H       -2.95840623       1.97910771       0.04401230
H       -3.38013757       0.52938608       0.95401987
H       -1.94085985      -0.84173367      -0.54203352
H       -1.48927461       0.58028504      -1.45829337
H       -0.59577034       1.55807955       0.74487169
H       -0.82588971       0.04236970       1.46053330
H        0.38297367      -1.48234328      -1.07270228
H        0.45693240      -2.53613102       0.26137353
H        1.96684356      -0.74680293       1.61119758
H        2.81817141      -1.80914832       0.45500436
H        2.45380482      -0.23077796      -1.40211720
H        0.84879387       0.74831024       0.03577383
H        3.42924172       1.53222893      -0.62511928
21
Frame=9 idx=011596 GeodesicLength=1.2123513152876397 rxn_smarts="[C:1]([C:2]([C:3]([C:4]([C:5]([C:6]([O:7][H:21])([H:19])[H:20])([H:17])[H:18])([H:15])[H:16])([H:13])[H:14])([H:11])[H:12])([H:8])([H:9])[H:10]>>[C:1]([C:2]([C:3]([H:13])([H:14])[H:20])([H:11])[H:12])([H:8])([H:9])[H:10].[C:4]1([H:15])([H:16])[C:5]([H:17])([H:18])[C:6]1([O:7][H:21])[H:19]"
C       -3.08656778       0.87825027      -0.00227529
C       -1.78123373       0.22669059      -0.44853794
C       -0.59456258       0.49884191       0.47000927
C        0.75456101      -1.49883907      -0.09021020
C        1.98710012      -1.08847478       0.60567482
C        2.25828713       0.01344356      -0.37224944
O        3.17233618       0.94523077       0.10036455
H       -3.90253435       0.65542741      -0.69271358
H       -2.98488204       1.96423063       0.06244585
H       -3.37792110       0.51581664       0.98690185
H       -1.95490940      -0.85095868      -0.52245731
H       -1.53116519       0.56709446      -1.45905836
H       -0.60078032       1.57150981       0.70959592
H       -0.82138497       0.07432848       1.45348270
H        0.39282307      -1.40081464      -1.11041647
H        0.47899120      -2.52212416       0.14842699
H        1.91580200      -0.70610907       1.62047455
H        2.78881807      -1.82927150       0.54411521
H        2.54899201      -0.30801205      -1.37941816
H        0.88270122       0.78761581      -0.00079237
H        3.45552945       1.50612358      -0.62336259
21
Frame=10 idx=011596 GeodesicLength=1.3447864296683107 rxn_smarts="[C:1]([C:2]([C:3]([C:4]([C:5]([C:6]([O:7][H:21])([H:19])[H:20])([H:17])[H:18])([H:15])[H:16])([H:13])[H:14])([H:11])[H:12])([H:8])([H:9])[H:10]>>[C:1]([C:2]([C:3]([H:13])([H:14])[H:20])([H:11])[H:12])([H:8])([H:9])[H:10].[C:4]1([H:15])([H:16])[C:5]([H:17])([H:18])[C:6]1([O:7][H:21])[H:19]"
C       -3.10427086       0.86082427       0.02324330
C       -1.80069366       0.21879614      -0.44111417
C       -0.59721999       0.50931854       0.45089296
C        0.75944284      -1.45789285      -0.12873673
C        1.97248948      -1.08242548       0.62786669
C        2.28894763      -0.01848495      -0.37715005
O        3.19165457       0.92374743       0.10394195
H       -3.92966137       0.62617716      -0.65183267
H       -3.01170397       1.94801315       0.08051591
H       -3.37527009       0.50137068       1.01930054
H       -1.96684941      -0.86107813      -0.50203971
H       -1.57225442       0.55258156      -1.45889930
H       -0.60650005       1.58568208       0.67282963
H       -0.81732081       0.10800002       1.44676751
H        0.40349481      -1.31714032      -1.14650559
H        0.50501497      -2.50194507       0.03399063
H        1.86692871      -0.66565839       1.62576712
H        2.75083951      -1.84829096       0.62901989
H        2.63938316      -0.38563285      -1.34947989
H        0.91893571       0.82774237      -0.03601768
H        3.48461323       1.47629560      -0.62236035
21
Frame=11 idx=011596 GeodesicLength=1.4769854565527623 rxn_smarts="[C:1]([C:2]([C:3]([C:4]([C:5]([C:6]([O:7][H:21])([H:19])[H:20])([H:17])[H:18])([H:15])[H:16])([H:13])[H:14])([H:11])[H:12])([H:8])([H:9])[H:10]>>[C:1]([C:2]([C:3]([H:13])([H:14])[H:20])([H:11])[H:12])([H:8])([H:9])[H:10].[C:4]1([H:15])([H:16])[C:5]([H:17])([H:18])[C:6]1([O:7][H:21])[H:19]"
C       -3.12124300       0.84201389       0.04838910
C       -1.81921375       0.20997316      -0.43311580
C       -0.60056728       0.52020433       0.43255358
C        0.76441738      -1.41558984      -0.16708313
C        1.95550754      -1.07588217       0.64795852
C        2.31862164      -0.05075973      -0.38064638
O        3.21187850       0.90050366       0.10737853
H       -3.95518309       0.59474696      -0.61141137
H       -3.03861672       1.93034574       0.09795210
H       -3.37212212       0.48606498       1.05098353
H       -1.97648362      -0.87210915      -0.48071386
H       -1.61211466       0.53656838      -1.45773501
H       -0.61299899       1.60029164       0.63472449
H       -0.81387827       0.14325654       1.44052012
H        0.41508385      -1.23120525      -1.18071614
H        0.53451148      -2.47491003      -0.08086989
H        1.82057336      -0.62559490       1.62738595
H        2.70439625      -1.86636467       0.70904760
H        2.72357512      -0.46321047      -1.31322904
H        0.95776364       0.86880052      -0.06934492
H        3.51609275       1.44285641      -0.62202798
21
Frame=12 idx=011596 GeodesicLength=1.609181095512791 rxn_smarts="[C:1]([C:2]([C:3]([C:4]([C:5]([C:6]([O:7][H:21])([H:19])[H:20])([H:17])[H:18])([H:15])[H:16])([H:13])[H:14])([H:11])[H:12])([H:8])([H:9])[H:10]>>[C:1]([C:2]([C:3]([H:13])([H:14])[H:20])([H:11])[H:12])([H:8])([H:9])[H:10].[C:4]1([H:15])([H:16])[C:5]([H:17])([H:18])[C:6]1([O:7][H:21])[H:19]"
C       -3.13760859       0.82182216       0.07303087
C       -1.83679926       0.20009055      -0.42449662
C       -0.60467089       0.53141729       0.41522483
C        0.76953146      -1.37177036      -0.20525419
C        1.93653727      -1.06889383       0.66581535
C        2.34732128      -0.08340115      -0.38294533
O        3.23332344       0.87534563       0.11062830
H       -3.97919633       0.56106380      -0.57165757
H       -3.06570934       1.91124370       0.11451849
H       -3.36876381       0.47007406       1.08186786
H       -1.98385914      -0.88417183      -0.45838997
H       -1.65053757       0.51875511      -1.45555729
H       -0.62037086       1.61519736       0.59542979
H       -0.81129188       0.18012428       1.43490571
H        0.42772828      -1.14294729      -1.21294928
H        0.56685962      -2.44062766      -0.19524603
H        1.77710879      -0.58594792       1.62568390
H        2.64986674      -1.88365358       0.78360736
H        2.80094090      -0.54060473      -1.27168108
H        0.99955995       0.91097025      -0.10034510
H        3.55002995       1.40591414      -0.62219000
21
Frame=13 idx=011596 GeodesicLength=1.7412188726317006 rxn_smarts="[C:1]([C:2]([C:3]([C:4]([C:5]([C:6]([O:7][H:21])([H:19])[H:20])([H:17])[H:18])([H:15])[H:16])([H:13])[H:14])([H:11])[H:12])([H:8])([H:9])[H:10]>>[C:1]([C:2]([C:3]([H:13])([H:14])[H:20])([H:11])[H:12])([H:8])([H:9])[H:10].[C:4]1([H:15])([H:16])[C:5]([H:17])([H:18])[C:6]1([O:7][H:21])[H:19]"
C       -3.15299881       0.80016354       0.09695454
C       -1.85312648       0.18902920      -0.41521383
C       -0.60945592       0.54272370       0.39912576
C        0.77482520      -1.32614897      -0.24321612
C        1.91576097      -1.06146667       0.68125602
C        2.37469427      -0.11631793      -0.38424732
O        3.25577527       0.84807877       0.11364085
H       -4.00116485       0.52510836      -0.53286575
H       -3.09256007       1.89052450       0.12991989
H       -3.36498729       0.45337738       1.11173091
H       -1.98869896      -0.89726235      -0.43498462
H       -1.68698904       0.49896170      -1.45230815
H       -0.62857880       1.62995116       0.55509619
H       -0.80967724       0.21837054       1.43000203
H        0.44153318      -1.05219336      -1.24297819
H        0.60076066      -2.39869049      -0.30731773
H        1.73663736      -0.54698052       1.62090898
H        2.58745740      -1.90002370       0.85218863
H        2.87033422      -0.61712750      -1.22629243
H        1.04453151       0.95435009      -0.12875831
H        3.58592741       1.36557257      -0.62264135
21
Frame=14 idx=011596 GeodesicLength=1.8734187743484039 rxn_smarts="[C:1]([C:2]([C:3]([C:4]([C:5]([C:6]([O:7][H:21])([H:19])[H:20])([H:17])[H:18])([H:15])[H:16])([H:13])[H:14])([H:11])[H:12])([H:8])([H:9])[H:10]>>[C:1]([C:2]([C:3]([H:13])([H:14])[H:20])([H:11])[H:12])([H:8])([H:9])[H:10].[C:4]1([H:15])([H:16])[C:5]([H:17])([H:18])[C:6]1([O:7][H:21])[H:19]"
C       -3.16773003       0.77713340       0.11984974
C       -1.86823311       0.17674346      -0.40523780
C       -0.61506891       0.55392453       0.38482235
C        0.78043218      -1.27853554      -0.28069995
C        1.89386243      -1.05352543       0.69426162
C        2.40079252      -0.14946549      -0.38496389
O        3.27965978       0.81868881       0.11600404
H       -4.02128664       0.48712652      -0.49575246
H       -3.11937286       1.86830582       0.14400169
H       -3.36157475       0.43601606       1.14020105
H       -1.99115796      -0.91142007      -0.41063116
H       -1.72103646       0.47712764      -1.44794733
H       -0.63772772       1.64426428       0.51450870
H       -0.80954367       0.25766583       1.42620683
H        0.45650053      -0.95896180      -1.27044206
H        0.63519032      -2.34925452      -0.41595122
H        1.69990351      -0.50848111       1.61346691
H        2.51791710      -1.91542459       0.91413601
H        2.93164804      -0.69305250      -1.17810654
H        1.09308082       0.99913031      -0.15392623
H        3.62374489       1.32199440      -0.62380031
21
Frame=15 idx=011596 GeodesicLength=2.0058220433793816 rxn_smarts="[C:1]([C:2]([C:3]([C:4]([C:5]([C:6]([O:7][H:21])([H:19])[H:20])([H:17])[H:18])([H:15])[H:16])([H:13])[H:14])([H:11])[H:12])([H:8])([H:9])[H:10]>>[C:1]([C:2]([C:3]([H:13])([H:14])[H:20])([H:11])[H:12])([H:8])([H:9])[H:10].[C:4]1([H:15])([H:16])[C:5]([H:17])([H:18])[C:6]1([O:7][H:21])[H:19]"
C       -3.18163333       0.75264366       0.14149763
C       -1.88188469       0.16316988      -0.39452558
C       -0.62146290       0.56488823       0.37259151
C        0.78640754      -1.22857822      -0.31754161
C        1.87110018      -1.04498094       0.70482176
C        2.42536268      -0.18275963      -0.38536910
O        3.30488981       0.78700732       0.11753129
H       -4.03926017       0.44703662      -0.46064992
H       -3.14597502       1.84444593       0.15645582
H       -3.35854750       0.41792774       1.16706136
H       -1.99103754      -0.92662745      -0.38525469
H       -1.75219961       0.45316781      -1.44243153
H       -0.64775166       1.65782250       0.47394576
H       -0.81105584       0.29779944       1.42364798
H        0.47268428      -0.86287977      -1.29495697
H        0.66878938      -2.29251975      -0.51997539
H        1.66703978      -0.47046477       1.60364003
H        2.44155713      -1.92953328       0.96917387
H        2.98432989      -0.76819042      -1.12831294
H        1.14553769       1.04545137      -0.17558183
H        3.66310992       1.27517372      -0.62576747
21
Frame=16 idx=011596 GeodesicLength=2.138592616908136 rxn_smarts="[C:1]([C:2]([C:3]([C:4]([C:5]([C:6]([O:7][H:21])([H:19])[H:20])([H:17])[H:18])([H:15])[H:16])([H:13])[H:14])([H:11])[H:12])([H:8])([H:9])[H:10]>>[C:1]([C:2]([C:3]([H:13])([H:14])[H:20])([H:11])[H:12])([H:8])([H:9])[H:10].[C:4]1([H:15])([H:16])[C:5]([H:17])([H:18])[C:6]1([O:7][H:21])[H:19]"
C       -3.19478701       0.72662536       0.16170330
C       -1.89398808       0.14823852      -0.38302966
C       -0.62863662       0.57555274       0.36274956
C        0.79282199      -1.17591967      -0.35357487
C        1.84780535      -1.03570548       0.71300673
C        2.44831850      -0.21615419      -0.38577054
O        3.33161634       0.75284817       0.11804078
H       -4.05508878       0.40471216      -0.42789173
H       -3.17244234       1.81884509       0.16697691
H       -3.35620199       0.39913276       1.19217779
H       -1.98829242      -0.94289637      -0.35874676
H       -1.78010927       0.42693014      -1.43577204
H       -0.65859872       1.67040797       0.43374311
H       -0.81445746       0.33867006       1.42254684
H        0.49016505      -0.76353763      -1.31614975
H        0.70027175      -2.22889503      -0.61871294
H        1.63821791      -0.43282681       1.59178229
H        2.35880792      -1.94188907       1.01717258
H        3.02820224      -0.84256460      -1.07803046
H        1.20238896       1.09343124      -0.19350470
H        3.70398670       1.22499464      -0.62871646
