11
Frame=0 idx=001315 GeodesicLength=0.0 rxn_smarts="[C:1]([C:2]([C:3]#[C:4][C:5]#[N:6])([H:10])[H:11])([H:7])([H:8])[H:9]>>[C:1]([C:3]1=[C:4]([C:5]#[N:6])[C:2]1([H:10])[H:11])([H:7])([H:8])[H:9]"
C       -1.27697863      -0.83636230       0.29439456
C       -0.20887472       0.71577348      -0.18557782
C        0.52442000      -0.94912368       0.24232243
C        1.11449579       0.18042925      -0.10185361
C        2.43764980       0.61829116      -0.29101189
N        3.50666641       1.00676439      -0.45478537
H       -1.35425482      -1.20838387       1.31158582
H       -1.43661273      -1.65241111      -0.40404311
H       -2.09554665      -0.12524722       0.15023029
H       -0.56115000       1.37305899       0.60311461
H       -0.64981441       0.87721093      -1.16437594
11
Frame=1 idx=001315 GeodesicLength=0.11226791511668122 rxn_smarts="[C:1]([C:2]([C:3]#[C:4][C:5]#[N:6])([H:10])[H:11])([H:7])([H:8])[H:9]>>[C:1]([C:3]1=[C:4]([C:5]#[N:6])[C:2]1([H:10])[H:11])([H:7])([H:8])[H:9]"
C       -1.28748334      -0.84401180       0.29250117
C       -0.22062300       0.71607973      -0.17802300
C        0.51640330      -0.91539207       0.23560351
C        1.13510307       0.19314779      -0.10360761
C        2.46061712       0.62050420      -0.29084096
N        3.53482178       0.99013502      -0.46508282
H       -1.36302261      -1.20538280       1.31404675
H       -1.43567030      -1.67116950      -0.39583149
H       -2.11983798      -0.15144881       0.13796423
H       -0.56645041       1.37628561       0.61144912
H       -0.65385763       0.89125262      -1.15817889
11
Frame=2 idx=001315 GeodesicLength=0.224262273635147 rxn_smarts="[C:1]([C:2]([C:3]#[C:4][C:5]#[N:6])([H:10])[H:11])([H:7])([H:8])[H:9]>>[C:1]([C:3]1=[C:4]([C:5]#[N:6])[C:2]1([H:10])[H:11])([H:7])([H:8])[H:9]"
C       -1.29732465      -0.85158356       0.29092066
C       -0.23319702       0.71737339      -0.17120291
C        0.50827917      -0.88111645       0.22740443
C        1.15502766       0.20564506      -0.10738443
C        2.48308938       0.62114838      -0.29433343
N        3.56310319       0.97281718      -0.46975790
H       -1.37043156      -1.20174899       1.31692940
H       -1.43375621      -1.69008374      -0.38656023
H       -2.14371628      -0.17877419       0.12629578
H       -0.57136130       1.38020189       0.61974164
H       -0.65971237       0.90612102      -1.15205302
11
Frame=3 idx=001315 GeodesicLength=0.3360333503273441 rxn_smarts="[C:1]([C:2]([C:3]#[C:4][C:5]#[N:6])([H:10])[H:11])([H:7])([H:8])[H:9]>>[C:1]([C:3]1=[C:4]([C:5]#[N:6])[C:2]1([H:10])[H:11])([H:7])([H:8])[H:9]"
C       -1.30653745      -0.85934816       0.28852960
C       -0.24652706       0.72011635      -0.16333488
C        0.50010735      -0.84547777       0.22092735
C        1.17457798       0.21915383      -0.10813275
C        2.50555822       0.62218082      -0.29324582
N        3.59061424       0.95160231      -0.48181644
H       -1.37883955      -1.19799886       1.31884536
H       -1.42873839      -1.70933044      -0.37781284
H       -2.16716122      -0.20804150       0.11220871
H       -0.57806836       1.38493406       0.62908500
H       -0.66498576       0.92220937      -1.14525328
11
Frame=4 idx=001315 GeodesicLength=0.4475571197899385 rxn_smarts="[C:1]([C:2]([C:3]#[C:4][C:5]#[N:6])([H:10])[H:11])([H:7])([H:8])[H:9]>>[C:1]([C:3]1=[C:4]([C:5]#[N:6])[C:2]1([H:10])[H:11])([H:7])([H:8])[H:9]"
C       -1.31504230      -0.86697635       0.28656804
C       -0.26078850       0.72381539      -0.15635813
C        0.49170838      -0.80939626       0.21241579
C        1.19345617       0.23215789      -0.11156446
C        2.52745293       0.62115334      -0.29698248
N        3.61822812       0.93028081      -0.48647805
H       -1.38562629      -1.19358289       1.32127816
H       -1.42294616      -1.72856059      -0.36780024
H       -2.19002950      -0.23843861       0.09919048
H       -0.58404703       1.39037852       0.63833621
H       -0.67236582       0.93916875      -1.13860533
11
Frame=5 idx=001315 GeodesicLength=0.5588772512757069 rxn_smarts="[C:1]([C:2]([C:3]#[C:4][C:5]#[N:6])([H:10])[H:11])([H:7])([H:8])[H:9]>>[C:1]([C:3]1=[C:4]([C:5]#[N:6])[C:2]1([H:10])[H:11])([H:7])([H:8])[H:9]"
C       -1.32288164      -0.87467582       0.28405599
C       -0.27588782       0.72881338      -0.14874986
C        0.48310124      -0.77217930       0.20483745
C        1.21198696       0.24564005      -0.11307888
C        2.54929564       0.61953366      -0.29813396
N        3.64493049       0.90635876      -0.49544951
H       -1.39299242      -1.18884643       1.32303728
H       -1.41450640      -1.74792011      -0.35780339
H       -2.21219865      -0.27064756       0.08443690
H       -0.59119539       1.39667044       0.64835736
H       -0.67965199       0.95725293      -1.13150939
11
Frame=6 idx=001315 GeodesicLength=0.6700055368272955 rxn_smarts="[C:1]([C:2]([C:3]#[C:4][C:5]#[N:6])([H:10])[H:11])([H:7])([H:8])[H:9]>>[C:1]([C:3]1=[C:4]([C:5]#[N:6])[C:2]1([H:10])[H:11])([H:7])([H:8])[H:9]"
C       -1.33001945      -0.88221066       0.28204877
C       -0.29206822       0.73474505      -0.14208602
C        0.47410879      -0.73454223       0.19478815
C        1.22981958       0.25834662      -0.11791424
C        2.57042066       0.61547220      -0.30483568
N        3.67211475       0.88280924      -0.49579377
H       -1.39857289      -1.18348051       1.32534594
H       -1.40539540      -1.76709246      -0.34645766
H       -2.23369986      -0.30403230       0.07117980
H       -0.59738039       1.40367918       0.65829459
H       -0.68932757       0.97630587      -1.12456987
11
Frame=7 idx=001315 GeodesicLength=0.7809584348682969 rxn_smarts="[C:1]([C:2]([C:3]#[C:4][C:5]#[N:6])([H:10])[H:11])([H:7])([H:8])[H:9]>>[C:1]([C:3]1=[C:4]([C:5]#[N:6])[C:2]1([H:10])[H:11])([H:7])([H:8])[H:9]"
C       -1.33634712      -0.88991252       0.27899990
C       -0.30922689       0.74220368      -0.13410697
C        0.46493316      -0.69515827       0.18721147
C        1.24748331       0.27216604      -0.11838970
C        2.59168938       0.61184380      -0.30506052
N        3.69753479       0.85459842      -0.50644221
H       -1.40579962      -1.17791484       1.32637929
H       -1.39237324      -1.78639384      -0.33557451
H       -2.25409467      -0.33980361       0.05466040
H       -0.60588243       1.41174700       0.66929313
H       -0.69791669       0.99662414      -1.11697028
11
Frame=8 idx=001315 GeodesicLength=0.891726455491676 rxn_smarts="[C:1]([C:2]([C:3]#[C:4][C:5]#[N:6])([H:10])[H:11])([H:7])([H:8])[H:9]>>[C:1]([C:3]1=[C:4]([C:5]#[N:6])[C:2]1([H:10])[H:11])([H:7])([H:8])[H:9]"
C       -1.34180724      -0.89749057       0.27626378
C       -0.32766631       0.75074798      -0.12677322
C        0.45535072      -0.65495075       0.17750639
C        1.26446828       0.28546915      -0.12160127
C        2.61215780       0.60627091      -0.30986147
N        3.72302820       0.82550546      -0.50997698
H       -1.41143533      -1.17189679       1.32768105
H       -1.37801783      -1.80535822      -0.32357389
H       -2.27350312      -0.37709753       0.03928254
H       -0.61381927       1.42063629       0.68039922
H       -0.70875590       1.01816407      -1.10934614
11
Frame=9 idx=001315 GeodesicLength=1.0023140955355863 rxn_smarts="[C:1]([C:2]([C:3]#[C:4][C:5]#[N:6])([H:10])[H:11])([H:7])([H:8])[H:9]>>[C:1]([C:3]1=[C:4]([C:5]#[N:6])[C:2]1([H:10])[H:11])([H:7])([H:8])[H:9]"
C       -1.34646543      -0.90505904       0.27294192
C       -0.34719046       0.76054154      -0.11880831
C        0.44533540      -0.61339378       0.16879775
C        1.28120535       0.29888165      -0.12270759
C        2.63257460       0.59940937      -0.31164957
N        3.74698496       0.79415455      -0.51827947
H       -1.41787488      -1.16548525       1.32819882
H       -1.36064589      -1.82407202      -0.31134483
H       -2.29152697      -0.41643018       0.02204406
H       -0.62293678       1.43054478       0.69212848
H       -0.71945991       1.04090837      -1.10132125
11
Frame=10 idx=001315 GeodesicLength=1.1127452458623557 rxn_smarts="[C:1]([C:2]([C:3]#[C:4][C:5]#[N:6])([H:10])[H:11])([H:7])([H:8])[H:9]>>[C:1]([C:3]1=[C:4]([C:5]#[N:6])[C:2]1([H:10])[H:11])([H:7])([H:8])[H:9]"
C       -1.35022566      -0.91246418       0.27004429
C       -0.36821514       0.77137869      -0.11158337
C        0.43470514      -0.57097149       0.15730602
C        1.29714093       0.31139221      -0.12762933
C        2.65192989       0.59008022      -0.31908027
N        3.77152470       0.76243621      -0.51750092
H       -1.42233874      -1.15872812       1.32906159
H       -1.34204521      -1.84215768      -0.29796747
H       -2.30840349      -0.45729195       0.00662392
H       -0.63113736       1.44127365       0.70392486
H       -0.73293506       1.06505243      -1.09319931
11
Frame=11 idx=001315 GeodesicLength=1.2230166799995663 rxn_smarts="[C:1]([C:2]([C:3]#[C:4][C:5]#[N:6])([H:10])[H:11])([H:7])([H:8])[H:9]>>[C:1]([C:3]1=[C:4]([C:5]#[N:6])[C:2]1([H:10])[H:11])([H:7])([H:8])[H:9]"
C       -1.35295673      -0.91988393       0.26626214
C       -0.39052924       0.78360434      -0.10335563
C        0.42361922      -0.52661954       0.14790466
C        1.31292476       0.32431633      -0.12873729
C        2.67131582       0.57977984      -0.32098093
N        3.79357195       0.72708654      -0.52539921
H       -1.42831627      -1.15158486       1.32875207
H       -1.31934322      -1.85982978      -0.28444875
H       -2.32324624      -0.50066146      -0.01176633
H       -0.64136710       1.45328070       0.71635679
H       -0.74567294       1.09051183      -1.08458753
11
Frame=12 idx=001315 GeodesicLength=1.3331637437316397 rxn_smarts="[C:1]([C:2]([C:3]#[C:4][C:5]#[N:6])([H:10])[H:11])([H:7])([H:8])[H:9]>>[C:1]([C:3]1=[C:4]([C:5]#[N:6])[C:2]1([H:10])[H:11])([H:7])([H:8])[H:9]"
C       -1.35449491      -0.92716104       0.26294744
C       -0.41478865       0.79703290      -0.09585013
C        0.41180257      -0.48088755       0.13511693
C        1.32763181       0.33649754      -0.13466923
C        2.68911897       0.56739789      -0.32988453
N        3.81659529       0.68994055      -0.52204847
H       -1.43164475      -1.14438512       1.32879434
H       -1.29493317      -1.87654082      -0.26992055
H       -2.33657522      -0.54588502      -0.02773663
H       -0.65071750       1.46622068       0.72890219
H       -0.76199444       1.11776998      -1.07565135
11
Frame=13 idx=001315 GeodesicLength=1.443156116974742 rxn_smarts="[C:1]([C:2]([C:3]#[C:4][C:5]#[N:6])([H:10])[H:11])([H:7])([H:8])[H:9]>>[C:1]([C:3]1=[C:4]([C:5]#[N:6])[C:2]1([H:10])[H:11])([H:7])([H:8])[H:9]"
C       -1.35481489      -0.93436849       0.25862043
C       -0.44049230       0.81181496      -0.08722294
C        0.39937324      -0.43292961       0.12505490
C        1.34227832       0.34881067      -0.13567397
C        2.70700849       0.55306294      -0.33204037
N        3.83615353       0.64951516      -0.52943972
H       -1.43699267      -1.13667190       1.32744319
H       -1.26576349      -1.89246164      -0.25505033
H       -2.34707263      -0.59379482      -0.04735323
H       -0.66249459       1.48066310       0.74189166
H       -0.77718300       1.14635962      -1.06622962
11
Frame=14 idx=001315 GeodesicLength=1.5530187016981534 rxn_smarts="[C:1]([C:2]([C:3]#[C:4][C:5]#[N:6])([H:10])[H:11])([H:7])([H:8])[H:9]>>[C:1]([C:3]1=[C:4]([C:5]#[N:6])[C:2]1([H:10])[H:11])([H:7])([H:8])[H:9]"
C       -1.35367226      -0.94143423       0.25400660
C       -0.46819119       0.82792263      -0.07843247
C        0.38615397      -0.38281481       0.11436358
C        1.35615869       0.36067403      -0.13699703
C        2.72385532       0.53657399      -0.33425507
N        3.85437672       0.60596120      -0.53611788
H       -1.44166551      -1.12886844       1.32550523
H       -1.23299487      -1.90710008      -0.23954138
H       -2.35486203      -0.64412707      -0.06732441
H       -0.67515575       1.49642574       0.75507422
H       -0.79400310       1.17678704      -1.05628140
11
Frame=15 idx=001315 GeodesicLength=1.6629010175362502 rxn_smarts="[C:1]([C:2]([C:3]#[C:4][C:5]#[N:6])([H:10])[H:11])([H:7])([H:8])[H:9]>>[C:1]([C:3]1=[C:4]([C:5]#[N:6])[C:2]1([H:10])[H:11])([H:7])([H:8])[H:9]"
C       -1.35057522      -0.94836115       0.24979303
C       -0.49870563       0.84556935      -0.07008771
C        0.37193810      -0.33008282       0.09959013
C        1.36843263       0.37233505      -0.14437100
C        2.73814870       0.51870180      -0.34580456
N        3.87364343       0.55718182      -0.52836029
H       -1.44246563      -1.12157497       1.32382754
H       -1.19707196      -1.91998165      -0.22353514
H       -2.36010606      -0.69700026      -0.08424093
H       -0.68739259       1.51340128       0.76856891
H       -0.81584577       1.20981156      -1.04537998
11
Frame=16 idx=001315 GeodesicLength=1.7725583690849327 rxn_smarts="[C:1]([C:2]([C:3]#[C:4][C:5]#[N:6])([H:10])[H:11])([H:7])([H:8])[H:9]>>[C:1]([C:3]1=[C:4]([C:5]#[N:6])[C:2]1([H:10])[H:11])([H:7])([H:8])[H:9]"
C       -1.34560505      -0.95498054       0.24437463
C       -0.53106649       0.86453631      -0.06057701
C        0.35685679      -0.27436579       0.08858017
C        1.38054966       0.38353263      -0.14454938
C        2.75213515       0.49673441      -0.34866688
N        3.88755024       0.50542495      -0.53475905
H       -1.44582815      -1.11355331       1.32032451
H       -1.15489691      -1.93109486      -0.20664361
H       -2.36054963      -0.75285860      -0.10596951
H       -0.70309245       1.53236713       0.78190536
H       -0.83605316       1.24425767      -1.03401924
