11
Frame=0 idx=004045 GeodesicLength=0.0 rxn_smarts="[O:1]([c:2]1[c:3]([H:8])[n:4]([H:9])[c:5]([H:10])[c:6]1[H:11])[H:7]>>[O:1]([C:2]1(/[C:3](=[N:4]/[H:9])[H:8])[C:5]([H:10])=[C:6]1[H:11])[H:7]"
O        1.67200631       0.00082423      -0.69383594
C        0.48596095       0.00957188      -0.07173001
C       -0.25165251      -1.23712176      -0.37832130
N       -1.46416668      -1.34431256      -0.70276582
C       -1.11091490       1.29587778       0.54174686
C        0.17364426       1.01827732       0.84253993
H        2.20641219       0.74064510      -0.38499619
H        0.42798748      -2.09456971      -0.29630266
H       -1.70287227      -2.33128946      -0.80039991
H       -1.40249633       2.34965081       0.60369887
H        0.96609152       1.59244633       1.34036622
11
Frame=1 idx=004045 GeodesicLength=0.09982576058285088 rxn_smarts="[O:1]([c:2]1[c:3]([H:8])[n:4]([H:9])[c:5]([H:10])[c:6]1[H:11])[H:7]>>[O:1]([C:2]1(/[C:3](=[N:4]/[H:9])[H:8])[C:5]([H:10])=[C:6]1[H:11])[H:7]"
O        1.69475177       0.00544269      -0.69018249
C        0.50459776       0.00604270      -0.07029492
C       -0.23600130      -1.23511694      -0.37599178
N       -1.46718483      -1.30346843      -0.65225070
C       -1.10009843       1.25888065       0.50810886
C        0.17641583       1.00299097       0.85520380
H        2.21760018       0.75481420      -0.38544831
H        0.43453599      -2.10176759      -0.35034320
H       -1.74185328      -2.27922200      -0.76290451
H       -1.43152627       2.30038868       0.55856120
H        0.94876258       1.59101508       1.36554206
11
Frame=2 idx=004045 GeodesicLength=0.1999648755465658 rxn_smarts="[O:1]([c:2]1[c:3]([H:8])[n:4]([H:9])[c:5]([H:10])[c:6]1[H:11])[H:7]>>[O:1]([C:2]1(/[C:3](=[N:4]/[H:9])[H:8])[C:5]([H:10])=[C:6]1[H:11])[H:7]"
O        1.71338072       0.00947754      -0.68898067
C        0.52035573       0.00385836      -0.07025619
C       -0.22225866      -1.23349455      -0.36943987
N       -1.46814732      -1.26747227      -0.59696129
C       -1.08781745       1.22530475       0.47639210
C        0.17896529       0.99027867       0.86559251
H        2.22804066       0.76469064      -0.38563878
H        0.43789804      -2.10614239      -0.39969288
H       -1.77372526      -2.22909973      -0.73700471
H       -1.45810552       2.25267077       0.51716139
H        0.93141377       1.58992820       1.38882839
11
Frame=3 idx=004045 GeodesicLength=0.29992188006889847 rxn_smarts="[O:1]([c:2]1[c:3]([H:8])[n:4]([H:9])[c:5]([H:10])[c:6]1[H:11])[H:7]>>[O:1]([C:2]1(/[C:3](=[N:4]/[H:9])[H:8])[C:5]([H:10])=[C:6]1[H:11])[H:7]"
O        1.73257862       0.01331979      -0.68683281
C        0.53528085       0.00207165      -0.07108020
C       -0.20908455      -1.23199777      -0.36353677
N       -1.46625875      -1.23289021      -0.54904810
C       -1.07497464       1.19419018       0.44484497
C        0.18048963       0.97732720       0.87548006
H        2.23774048       0.77560993      -0.38624134
H        0.43879351      -2.10847407      -0.45149933
H       -1.80443169      -2.18102931      -0.70222242
H       -1.48278022       2.20641739       0.47544531
H        0.91264676       1.58545522       1.41469065
11
Frame=4 idx=004045 GeodesicLength=0.3999340122596492 rxn_smarts="[O:1]([c:2]1[c:3]([H:8])[n:4]([H:9])[c:5]([H:10])[c:6]1[H:11])[H:7]>>[O:1]([C:2]1(/[C:3](=[N:4]/[H:9])[H:8])[C:5]([H:10])=[C:6]1[H:11])[H:7]"
O        1.74831713       0.01618840      -0.68738463
C        0.54827300       0.00086073      -0.07180841
C       -0.19710189      -1.23202907      -0.35074697
N       -1.46334624      -1.20348383      -0.49250646
C       -1.06136126       1.16532503       0.41629705
C        0.18275865       0.96732094       0.88369943
H        2.24692945       0.78332939      -0.38903208
H        0.43706056      -2.10967596      -0.49585281
H       -1.82970797      -2.13197456      -0.68727981
H       -1.50705780       2.16049828       0.43755982
H        0.89523637       1.58364065       1.43705487
11
Frame=5 idx=004045 GeodesicLength=0.5002131875556306 rxn_smarts="[O:1]([c:2]1[c:3]([H:8])[n:4]([H:9])[c:5]([H:10])[c:6]1[H:11])[H:7]>>[O:1]([C:2]1(/[C:3](=[N:4]/[H:9])[H:8])[C:5]([H:10])=[C:6]1[H:11])[H:7]"
O        1.76548718       0.01894176      -0.68564574
C        0.56108346      -0.00024496      -0.07343286
C       -0.18484473      -1.23156729      -0.34145747
N       -1.45744132      -1.17354661      -0.44727979
C       -1.04682293       1.13829380       0.38631089
C        0.18360328       0.95621810       0.89155193
H        2.25535007       0.79259262      -0.39073387
H        0.43269259      -2.10790337      -0.54565261
H       -1.85516402      -2.08549533      -0.65479465
H       -1.52903377       2.11509766       0.39826993
H        0.87509019       1.57761362       1.46286425
11
Frame=6 idx=004045 GeodesicLength=0.6004206393138379 rxn_smarts="[O:1]([c:2]1[c:3]([H:8])[n:4]([H:9])[c:5]([H:10])[c:6]1[H:11])[H:7]>>[O:1]([C:2]1(/[C:3](=[N:4]/[H:9])[H:8])[C:5]([H:10])=[C:6]1[H:11])[H:7]"
O        1.78039376       0.02140987      -0.68622616
C        0.57267053      -0.00093524      -0.07520555
C       -0.17298168      -1.23220611      -0.32799219
N       -1.45043881      -1.14730486      -0.39728050
C       -1.03203366       1.11243843       0.35902697
C        0.18500713       0.94702487       0.89822723
H        2.26379334       0.79966402      -0.39374494
H        0.42603318      -2.10496029      -0.58969566
H       -1.87729226      -2.03747799      -0.63487935
H       -1.55081298       2.06913465       0.36144973
H        0.85566144       1.57321264       1.48632041
11
Frame=7 idx=004045 GeodesicLength=0.7006072441678683 rxn_smarts="[O:1]([c:2]1[c:3]([H:8])[n:4]([H:9])[c:5]([H:10])[c:6]1[H:11])[H:7]>>[O:1]([C:2]1(/[C:3](=[N:4]/[H:9])[H:8])[C:5]([H:10])=[C:6]1[H:11])[H:7]"
O        1.79580373       0.02359879      -0.68612789
C        0.58402025      -0.00159206      -0.07732292
C       -0.16101093      -1.23291885      -0.31553453
N       -1.44195989      -1.12187405      -0.35130239
C       -1.01669262       1.08812951       0.33164606
C        0.18582353       0.93789777       0.90431189
H        2.27218264       0.80691212      -0.39663051
H        0.41681457      -2.09979903      -0.63478451
H       -1.89826269      -1.99064818      -0.60959390
H       -1.57148512       2.02319051       0.32455741
H        0.83476653       1.56710348       1.51078131
11
Frame=8 idx=004045 GeodesicLength=0.800983782343394 rxn_smarts="[O:1]([c:2]1[c:3]([H:8])[n:4]([H:9])[c:5]([H:10])[c:6]1[H:11])[H:7]>>[O:1]([C:2]1(/[C:3](=[N:4]/[H:9])[H:8])[C:5]([H:10])=[C:6]1[H:11])[H:7]"
O        1.80798803       0.02478875      -0.68923290
C        0.59438522      -0.00263928      -0.07832111
C       -0.14877993      -1.23589396      -0.29542893
N       -1.43211548      -1.10248291      -0.29279024
C       -1.00131767       1.06337060       0.30823803
C        0.18824208       0.93143190       0.90934746
H        2.27907377       0.81265381      -0.40443397
H        0.40591871      -2.09554254      -0.66863695
H       -1.91596022      -1.93504570      -0.61124797
H       -1.59345571       1.97405994       0.29181987
H        0.81602121       1.56529938       1.53068672
11
Frame=9 idx=004045 GeodesicLength=0.9019623750568885 rxn_smarts="[O:1]([c:2]1[c:3]([H:8])[n:4]([H:9])[c:5]([H:10])[c:6]1[H:11])[H:7]>>[O:1]([C:2]1(/[C:3](=[N:4]/[H:9])[H:8])[C:5]([H:10])=[C:6]1[H:11])[H:7]"
O        1.82263934       0.02654684      -0.68912392
C        0.60512679      -0.00360884      -0.08032880
C       -0.13644355      -1.23707012      -0.28351053
N       -1.42070972      -1.08019772      -0.24890453
C       -0.98496320       1.04036116       0.28252203
C        0.18868765       0.92278923       0.91458288
H        2.28579129       0.82049172      -0.40932924
H        0.39231785      -2.08734412      -0.70980929
H       -1.93432798      -1.88573487      -0.58607136
H       -1.61118595       1.92622038       0.25445228
H        0.79306749       1.55754636       1.55552048
11
Frame=10 idx=004045 GeodesicLength=1.0031115279505738 rxn_smarts="[O:1]([c:2]1[c:3]([H:8])[n:4]([H:9])[c:5]([H:10])[c:6]1[H:11])[H:7]>>[O:1]([C:2]1(/[C:3](=[N:4]/[H:9])[H:8])[C:5]([H:10])=[C:6]1[H:11])[H:7]"
O        1.83542325       0.02893578      -0.69135314
C        0.61501703      -0.00427993      -0.08269773
C       -0.12425603      -1.23848144      -0.27065302
N       -1.40851051      -1.06025412      -0.20323643
C       -0.96905514       1.01708796       0.25961997
C        0.18955950       0.91479735       0.91928758
H        2.29230646       0.82736337      -0.41520871
H        0.37765498      -2.07898164      -0.74459835
H       -1.95056538      -1.83353668      -0.56842545
H       -1.62790971       1.87720007       0.21834011
H        0.77033555       1.55014928       1.57892517
11
Frame=11 idx=004045 GeodesicLength=1.1043660131805189 rxn_smarts="[O:1]([c:2]1[c:3]([H:8])[n:4]([H:9])[c:5]([H:10])[c:6]1[H:11])[H:7]>>[O:1]([C:2]1(/[C:3](=[N:4]/[H:9])[H:8])[C:5]([H:10])=[C:6]1[H:11])[H:7]"
O        1.84825938       0.03186914      -0.69348427
C        0.62469191      -0.00490385      -0.08523400
C       -0.11228833      -1.23942182      -0.26037034
N       -1.39569819      -1.04028618      -0.16213174
C       -0.95309266       0.99455075       0.23772812
C        0.18987478       0.90627445       0.92418592
H        2.29828142       0.83508835      -0.42114238
H        0.36144516      -2.06914346      -0.77896842
H       -1.96589744      -1.78345562      -0.54457795
H       -1.64150461       1.82903424       0.18017114
H        0.74592859       1.54039400       1.60382393
11
Frame=12 idx=004045 GeodesicLength=1.2057157411966153 rxn_smarts="[O:1]([c:2]1[c:3]([H:8])[n:4]([H:9])[c:5]([H:10])[c:6]1[H:11])[H:7]>>[O:1]([C:2]1(/[C:3](=[N:4]/[H:9])[H:8])[C:5]([H:10])=[C:6]1[H:11])[H:7]"
O        1.86030465       0.03529961      -0.69649615
C        0.63393385      -0.00548296      -0.08784770
C       -0.10064671      -1.24021487      -0.25111643
N       -1.38244071      -1.02103647      -0.12311073
C       -0.93724050       0.97237925       0.21744508
C        0.19007922       0.89772044       0.92906616
H        2.30357271       0.84317718      -0.42793784
H        0.34439005      -2.05902141      -0.81004630
H       -1.97977535      -1.73338044      -0.52072958
H       -1.65279199       1.78116400       0.14177989
H        0.72061479       1.52939566       1.62899360
11
Frame=13 idx=004045 GeodesicLength=1.3074798007513921 rxn_smarts="[O:1]([c:2]1[c:3]([H:8])[n:4]([H:9])[c:5]([H:10])[c:6]1[H:11])[H:7]>>[O:1]([C:2]1(/[C:3](=[N:4]/[H:9])[H:8])[C:5]([H:10])=[C:6]1[H:11])[H:7]"
O        1.87167750       0.03937088      -0.69990067
C        0.64280107      -0.00605575      -0.09034833
C       -0.08938509      -1.24064109      -0.24338114
N       -1.36889350      -1.00189030      -0.08745798
C       -0.92146939       0.95060495       0.19875134
C        0.19005700       0.88871529       0.93430315
H        2.30763471       0.85225134      -0.43570252
H        0.32652691      -2.04822487      -0.83895211
H       -1.99248327      -1.68480562      -0.49414744
H       -1.66056713       1.73442845       0.10164775
H        0.69410118       1.51624673       1.65518795
11
Frame=14 idx=004045 GeodesicLength=1.4094360638602215 rxn_smarts="[O:1]([c:2]1[c:3]([H:8])[n:4]([H:9])[c:5]([H:10])[c:6]1[H:11])[H:7]>>[O:1]([C:2]1(/[C:3](=[N:4]/[H:9])[H:8])[C:5]([H:10])=[C:6]1[H:11])[H:7]"
O        1.88229656       0.04393019      -0.70374444
C        0.65130721      -0.00669985      -0.09254687
C       -0.07856668      -1.24089919      -0.23652282
N       -1.35522967      -0.98301455      -0.05444447
C       -0.90573782       0.92922797       0.18175871
C        0.18996831       0.87945214       0.93997487
H        2.31016481       0.86251820      -0.44516733
H        0.30816300      -2.03740549      -0.86493108
H       -2.00401924      -1.63729063      -0.46698168
H       -1.66496676       1.68888783       0.06041410
H        0.66662026       1.50129338       1.68219101
11
Frame=15 idx=004045 GeodesicLength=1.5115391988929137 rxn_smarts="[O:1]([c:2]1[c:3]([H:8])[n:4]([H:9])[c:5]([H:10])[c:6]1[H:11])[H:7]>>[O:1]([C:2]1(/[C:3](=[N:4]/[H:9])[H:8])[C:5]([H:10])=[C:6]1[H:11])[H:7]"
O        1.89207787       0.04893978      -0.70835872
C        0.65943195      -0.00736954      -0.09456905
C       -0.06816471      -1.24101065      -0.23019533
N       -1.34159042      -0.96431263      -0.02382610
C       -0.89014591       0.90837853       0.16634736
C        0.18983546       0.87007613       0.94590246
H        2.31136704       0.87358739      -0.45625326
H        0.28981914      -2.02706693      -0.88745257
H       -2.01426646      -1.59042772      -0.44020773
H       -1.66659688       1.64458600       0.01899208
H        0.63823292       1.48461964       1.70962086
11
Frame=16 idx=004045 GeodesicLength=1.6138568687026382 rxn_smarts="[O:1]([c:2]1[c:3]([H:8])[n:4]([H:9])[c:5]([H:10])[c:6]1[H:11])[H:7]>>[O:1]([C:2]1(/[C:3](=[N:4]/[H:9])[H:8])[C:5]([H:10])=[C:6]1[H:11])[H:7]"
O        1.90111444       0.05441017      -0.71360722
C        0.66722019      -0.00800155      -0.09646281
C       -0.05822122      -1.24087093      -0.22444503
N       -1.32808595      -0.94563270       0.00439320
C       -0.87461562       0.88815849       0.15219457
C        0.18971677       0.86065995       0.95198826
H        2.31132688       0.88540439      -0.46877630
H        0.27159122      -2.01718716      -0.90688300
H       -2.02339334      -1.54451960      -0.41329471
H       -1.66551893       1.60155389      -0.02264593
H        0.60886556       1.46602506       1.73753897
