21
Frame=0 idx=007721 GeodesicLength=0.0 rxn_smarts="[C:1]([C:2]([C:3]([C:4]([C:5]([O:6][C:7]([H:19])([H:20])[H:21])([H:17])[H:18])([H:15])[H:16])([H:13])[H:14])([H:11])[H:12])([H:8])([H:9])[H:10]>>[C:1](=[C:2]([C:3]([C:4]([C:5]([O:6][C:7]([H:19])([H:20])[H:21])([H:17])[H:18])([H:15])[H:16])([H:12])[H:13])[H:11])([H:8])[H:10].[H:9][H:14]"
C       -3.26658927       0.15836972      -0.47140252
C       -2.19338737       0.10227941       0.44359280
C       -1.02797193      -0.73311217       0.19784005
C        0.26558344      -0.54982817       0.92982139
C        1.33434615      -0.00066501      -0.00811806
O        2.53636238       0.12897538       0.70518257
C        3.58220555       0.62032164      -0.09075615
H       -3.55890776      -0.74028732      -1.00296927
H       -1.86875911       0.32743201      -1.69706215
H       -4.04754207       0.89367728      -0.32383748
H       -1.98084004       1.01280397       1.00156214
H       -2.29449063      -0.75412721       1.22987615
H       -1.22055668      -1.69408367      -0.26928298
H       -1.11813506       0.00764163      -1.59228627
H        0.63481611      -1.48499421       1.35785310
H        0.13634859       0.15997748       1.75115198
H        1.46556733      -0.67824782      -0.86478045
H        1.00968287       0.97020253      -0.40926558
H        3.78794947      -0.04706932      -0.93802947
H        4.47178194       0.68126673       0.53466718
H        3.35253602       1.61946702      -0.48375693
21
Frame=1 idx=007721 GeodesicLength=0.09173962510036711 rxn_smarts="[C:1]([C:2]([C:3]([C:4]([C:5]([O:6][C:7]([H:19])([H:20])[H:21])([H:17])[H:18])([H:15])[H:16])([H:13])[H:14])([H:11])[H:12])([H:8])([H:9])[H:10]>>[C:1](=[C:2]([C:3]([C:4]([C:5]([O:6][C:7]([H:19])([H:20])[H:21])([H:17])[H:18])([H:15])[H:16])([H:12])[H:13])[H:11])([H:8])[H:10].[H:9][H:14]"
C       -3.26115374       0.15469233      -0.48069331
C       -2.20156941       0.09516021       0.45077142
C       -1.02669351      -0.72900032       0.20014956
C        0.26383218      -0.54153325       0.93852420
C        1.33341795      -0.00011492      -0.00172217
O        2.53866309       0.12899996       0.70630591
C        3.58055626       0.61646260      -0.09741774
H       -3.56912306      -0.74893741      -0.99487930
H       -1.87979020       0.33854557      -1.71361844
H       -4.02493952       0.91187661      -0.35346670
H       -2.00245144       0.99964016       1.02332110
H       -2.27875176      -0.78835149       1.23027693
H       -1.20429797      -1.68792764      -0.27761800
H       -1.10939515       0.02682079      -1.58512620
H        0.62877489      -1.47600089       1.37174488
H        0.13661354       0.17103135       1.75766760
H        1.46190578      -0.68196927      -0.85571244
H        1.01060791       0.97144854      -0.40320858
H        3.77990877      -0.05286775      -0.94478938
H        4.47394727       0.67755640       0.52242984
H        3.34993812       1.61446842      -0.49293919
21
Frame=2 idx=007721 GeodesicLength=0.18320397409355277 rxn_smarts="[C:1]([C:2]([C:3]([C:4]([C:5]([O:6][C:7]([H:19])([H:20])[H:21])([H:17])[H:18])([H:15])[H:16])([H:13])[H:14])([H:11])[H:12])([H:8])([H:9])[H:10]>>[C:1](=[C:2]([C:3]([C:4]([C:5]([O:6][C:7]([H:19])([H:20])[H:21])([H:17])[H:18])([H:15])[H:16])([H:12])[H:13])[H:11])([H:8])[H:10].[H:9][H:14]"
C       -3.25524392       0.15154017      -0.49021359
C       -2.20980133       0.08770767       0.45783267
C       -1.02549480      -0.72509222       0.20255166
C        0.26202949      -0.53331828       0.94717195
C        1.33239327       0.00046412       0.00469282
O        2.54083989       0.12905241       0.70744092
C        3.57870989       0.61270860      -0.10400324
H       -3.58000243      -0.75630460      -0.98660583
H       -1.89078957       0.34884023      -1.73093751
H       -4.00122548       0.92957506      -0.38238672
H       -2.02402878       0.98591786       1.04456108
H       -2.26229980      -0.82210367       1.23055871
H       -1.18819306      -1.68173882      -0.28560410
H       -1.10064213       0.04568655      -1.57780562
H        0.62275636      -1.46704466       1.38551046
H        0.13678234       0.18195881       1.76414722
H        1.45817992      -0.68558741      -0.84664277
H        1.01137911       0.97272378      -0.39707825
H        3.77169203      -0.05849128      -0.95147138
H        4.47587986       0.67392303       0.51024953
H        3.34707916       1.60958265      -0.50196802
21
Frame=3 idx=007721 GeodesicLength=0.2745729172985688 rxn_smarts="[C:1]([C:2]([C:3]([C:4]([C:5]([O:6][C:7]([H:19])([H:20])[H:21])([H:17])[H:18])([H:15])[H:16])([H:13])[H:14])([H:11])[H:12])([H:8])([H:9])[H:10]>>[C:1](=[C:2]([C:3]([C:4]([C:5]([O:6][C:7]([H:19])([H:20])[H:21])([H:17])[H:18])([H:15])[H:16])([H:12])[H:13])[H:11])([H:8])[H:10].[H:9][H:14]"
C       -3.24885963       0.14888159      -0.49995942
C       -2.21808039       0.07991225       0.46474212
C       -1.02436631      -0.72139032       0.20502951
C        0.26017647      -0.52516964       0.95576041
C        1.33128350       0.00107428       0.01112526
O        2.54289700       0.12914798       0.70859640
C        3.57668124       0.60905792      -0.11050237
H       -3.59158525      -0.76231001      -0.97816514
H       -1.90181036       0.35830503      -1.74907756
H       -3.97646861       0.94677299      -0.41045284
H       -2.04558215       0.97163858       1.06526140
H       -2.24513802      -0.85541167       1.23072369
H       -1.17222199      -1.67553178      -0.29325712
H       -1.09184565       0.06421257      -1.57034812
H        0.61676200      -1.45810434       1.39916535
H        0.13684371       0.19278584       1.77057444
H        1.45441171      -0.68911319      -0.83756239
H        1.01201183       0.97402475      -0.39089354
H        3.76332148      -0.06395820      -0.95805137
H        4.47758837       0.67037366       0.49814477
H        3.34398105       1.60480172      -0.51085348
21
Frame=4 idx=007721 GeodesicLength=0.36595671528571816 rxn_smarts="[C:1]([C:2]([C:3]([C:4]([C:5]([O:6][C:7]([H:19])([H:20])[H:21])([H:17])[H:18])([H:15])[H:16])([H:13])[H:14])([H:11])[H:12])([H:8])([H:9])[H:10]>>[C:1](=[C:2]([C:3]([C:4]([C:5]([O:6][C:7]([H:19])([H:20])[H:21])([H:17])[H:18])([H:15])[H:16])([H:12])[H:13])[H:11])([H:8])[H:10].[H:9][H:14]"
C       -3.24199837       0.14668454      -0.50992445
C       -2.22640244       0.07176461       0.47146869
C       -1.02329984      -0.71790060       0.20757300
C        0.25827464      -0.51707609       0.96428810
C        1.33009825       0.00171613       0.01757417
O        2.54483807       0.12930153       0.70977952
C        3.57448171       0.60551059      -0.11690825
H       -3.60389653      -0.76686953      -0.96958396
H       -1.91289913       0.36694322      -1.76807961
H       -3.95073317       0.96347864      -0.43754528
H       -2.06712015       0.95679903       1.08540579
H       -2.22726747      -0.88830474       1.23077593
H       -1.15636689      -1.66932477      -0.30058644
H       -1.08298458       0.08236220      -1.56277710
H        0.61079596      -1.44916079       1.41272683
H        0.13678791       0.20353580       1.77693554
H        1.45062010      -0.69255921      -0.82846155
H        1.01251719       0.97534562      -0.38467267
H        3.75481580      -0.06928352      -0.96450982
H        4.47907934       0.66691808       0.48612917
H        3.34065961       1.60011927      -0.51960762
21
Frame=5 idx=007721 GeodesicLength=0.4574467125763111 rxn_smarts="[C:1]([C:2]([C:3]([C:4]([C:5]([O:6][C:7]([H:19])([H:20])[H:21])([H:17])[H:18])([H:15])[H:16])([H:13])[H:14])([H:11])[H:12])([H:8])([H:9])[H:10]>>[C:1](=[C:2]([C:3]([C:4]([C:5]([O:6][C:7]([H:19])([H:20])[H:21])([H:17])[H:18])([H:15])[H:16])([H:12])[H:13])[H:11])([H:8])[H:10].[H:9][H:14]"
C       -3.23466840       0.14489526      -0.52009551
C       -2.23476334       0.06324916       0.47798366
C       -1.02228601      -0.71463397       0.21017495
C        0.25632658      -0.50902747       0.97275470
C        1.32884717       0.00238687       0.02403844
O        2.54666697       0.12952724       0.71099669
C        3.57212250       0.60206545      -0.12321600
H       -3.61694385      -0.76989988      -0.96090616
H       -1.92411422       0.37479822      -1.78797335
H       -3.92408818       0.97969719      -0.46355582
H       -2.08865352       0.94139477       1.10497126
H       -2.20868606      -0.92079535       1.23072433
H       -1.14060722      -1.66314024      -0.30759619
H       -1.07403375       0.10010132      -1.55510692
H        0.60486335      -1.44019379       1.42621572
H        0.13660614       0.21423370       1.78321610
H        1.44682447      -0.69594337      -0.81932851
H        1.01290537       0.97667544      -0.37843676
H        3.74619394      -0.07448453      -0.97082816
H        4.48035937       0.66356778       0.47421355
H        3.33712869       1.59552621      -0.52824602
21
Frame=6 idx=007721 GeodesicLength=0.549127175602795 rxn_smarts="[C:1]([C:2]([C:3]([C:4]([C:5]([O:6][C:7]([H:19])([H:20])[H:21])([H:17])[H:18])([H:15])[H:16])([H:13])[H:14])([H:11])[H:12])([H:8])([H:9])[H:10]>>[C:1](=[C:2]([C:3]([C:4]([C:5]([O:6][C:7]([H:19])([H:20])[H:21])([H:17])[H:18])([H:15])[H:16])([H:12])[H:13])[H:11])([H:8])[H:10].[H:9][H:14]"
C       -3.22687214       0.14348911      -0.53045182
C       -2.24315354       0.05436392       0.48426523
C       -1.02131735      -0.71160094       0.21283162
C        0.25433550      -0.50102355       0.98115963
C        1.32753786       0.00308390       0.03051851
O        2.54838747       0.12983730       0.71225403
C        3.56961090       0.59873120      -0.12941839
H       -3.63075032      -0.77132809      -0.95212760
H       -1.93554367       0.38185378      -1.80880322
H       -3.89654473       0.99548472      -0.48843910
H       -2.11018125       0.92542737       1.12395835
H       -2.18939029      -0.95292257       1.23056710
H       -1.12492938      -1.65699614      -0.31429200
H       -1.06497630       0.11737896      -1.54736838
H        0.59897141      -1.43119829       1.43963980
H        0.13629515       0.22488331       1.78941173
H        1.44304248      -0.69927734      -0.81015443
H        1.01318078       0.97800612      -0.37219687
H        3.73747217      -0.07956103      -0.97699203
H        4.48143281       0.66034215       0.46241001
H        3.33339245       1.59102611      -0.53677217
21
Frame=7 idx=007721 GeodesicLength=0.6410403597852474 rxn_smarts="[C:1]([C:2]([C:3]([C:4]([C:5]([O:6][C:7]([H:19])([H:20])[H:21])([H:17])[H:18])([H:15])[H:16])([H:13])[H:14])([H:11])[H:12])([H:8])([H:9])[H:10]>>[C:1](=[C:2]([C:3]([C:4]([C:5]([O:6][C:7]([H:19])([H:20])[H:21])([H:17])[H:18])([H:15])[H:16])([H:12])[H:13])[H:11])([H:8])[H:10].[H:9][H:14]"
C       -3.21861495       0.14242580      -0.54097166
C       -2.25156470       0.04509973       0.49029126
C       -1.02038535      -0.70881417       0.21554154
C        0.25230540      -0.49306018       0.98950432
C        1.32617904       0.00380425       0.03701553
O        2.55000430       0.13024480       0.71355794
C        3.56695590       0.59551183      -0.13551039
H       -3.64532138      -0.77106818      -0.94327390
H       -1.94729328       0.38812945      -1.83058860
H       -3.86812875       1.01086706      -0.51214912
H       -2.13170572       0.90888992       1.14235841
H       -2.16937101      -0.98470744       1.23030347
H       -1.10931635      -1.65091157      -0.32067777
H       -1.05579468       0.13415054      -1.53958078
H        0.59312849      -1.42216268       1.45301434
H        0.13585022       0.23549764       1.79551483
H        1.43929161      -0.70257561      -0.80092801
H        1.01334963       0.97932778      -0.36596699
H        3.72866751      -0.08452156      -0.98298573
H        4.48230525       0.65725716       0.45072839
H        3.32945886       1.58661543      -0.54519711
21
Frame=8 idx=007721 GeodesicLength=0.7331234589026325 rxn_smarts="[C:1]([C:2]([C:3]([C:4]([C:5]([O:6][C:7]([H:19])([H:20])[H:21])([H:17])[H:18])([H:15])[H:16])([H:13])[H:14])([H:11])[H:12])([H:8])([H:9])[H:10]>>[C:1](=[C:2]([C:3]([C:4]([C:5]([O:6][C:7]([H:19])([H:20])[H:21])([H:17])[H:18])([H:15])[H:16])([H:12])[H:13])[H:11])([H:8])[H:10].[H:9][H:14]"
C       -3.20990493       0.14166981      -0.55162683
C       -2.25998595       0.03544495       0.49604506
C       -1.01948146      -0.70629069       0.21830689
C        0.25023908      -0.48513773       0.99779133
C        1.32477528       0.00454475       0.04353029
O        2.55151814       0.13076401       0.71491199
C        3.56416087       0.59241494      -0.14148999
H       -3.66065843      -0.76903303      -0.93438249
H       -1.95945363       0.39362062      -1.85335226
H       -3.83883367       1.02589618      -0.53465319
H       -2.15322951       0.89176686       1.16017351
H       -2.14862415      -1.01616790       1.22993833
H       -1.09375027      -1.64490748      -0.32675399
H       -1.04647478       0.15037264      -1.53175834
H        0.58734308      -1.41307835       1.46635323
H        0.13526590       0.24608264       1.80152141
H        1.43558609      -0.70585045      -0.79163813
H        1.01341126       0.98063013      -0.35976010
H        3.71979242      -0.08936930      -0.98879734
H        4.48297728       0.65433404       0.43917368
H        3.32532737       1.58229336      -0.55353305
21
Frame=9 idx=007721 GeodesicLength=0.8251520589635243 rxn_smarts="[C:1]([C:2]([C:3]([C:4]([C:5]([O:6][C:7]([H:19])([H:20])[H:21])([H:17])[H:18])([H:15])[H:16])([H:13])[H:14])([H:11])[H:12])([H:8])([H:9])[H:10]>>[C:1](=[C:2]([C:3]([C:4]([C:5]([O:6][C:7]([H:19])([H:20])[H:21])([H:17])[H:18])([H:15])[H:16])([H:12])[H:13])[H:11])([H:8])[H:10].[H:9][H:14]"
C       -3.20071602       0.14122260      -0.56238481
C       -2.26842681       0.02535443       0.50152825
C       -1.01861095      -0.70408186       0.22114574
C        0.24813378      -0.47728064       1.00602892
C        1.32331266       0.00528980       0.05006451
O        2.55291737       0.13142104       0.71631513
C        3.56120014       0.58947948      -0.14736864
H       -3.67660963      -0.76501837      -0.92536983
H       -1.97214418       0.39831812      -1.87704499
H       -3.80843881       1.04071675      -0.55611721
H       -2.17476010       0.87396718       1.17746323
H       -2.12720097      -1.04733554       1.22944564
H       -1.07823383      -1.63904780      -0.33250084
H       -1.03704406       0.16593290      -1.52394411
H        0.58163220      -1.40396350       1.47967296
H        0.13453184       0.25661721       1.80743444
H        1.43192443      -0.70913320      -0.78227490
H        1.01332725       0.98188382      -0.35358980
H        3.71083750      -0.09408057      -0.99442784
H        4.48342449       0.65165057       0.42773539
H        3.32094371       1.57808758      -0.56181125
21
Frame=10 idx=007721 GeodesicLength=0.917404333237998 rxn_smarts="[C:1]([C:2]([C:3]([C:4]([C:5]([O:6][C:7]([H:19])([H:20])[H:21])([H:17])[H:18])([H:15])[H:16])([H:13])[H:14])([H:11])[H:12])([H:8])([H:9])[H:10]>>[C:1](=[C:2]([C:3]([C:4]([C:5]([O:6][C:7]([H:19])([H:20])[H:21])([H:17])[H:18])([H:15])[H:16])([H:12])[H:13])[H:11])([H:8])[H:10].[H:9][H:14]"
C       -3.19112197       0.14098618      -0.57320452
C       -2.27684880       0.01487934       0.50669120
C       -1.01774824      -0.70215107       0.22402695
C        0.24600168      -0.46945876       1.01420448
C        1.32182908       0.00605337       0.05662153
O        2.55423016       0.13220456       0.71778701
C        3.55812798       0.58666581      -0.15311274
H       -3.69328467      -0.75908140      -0.91633947
H       -1.98562234       0.40222430      -1.90176707
H       -3.77719278       1.05520077      -0.57633422
H       -2.19626880       0.85559315       1.19412829
H       -2.10503154      -1.07819864       1.22884955
H       -1.06273016      -1.63328698      -0.33796654
H       -1.02743504       0.18090861      -1.51612296
H        0.57599248      -1.39478494       1.49297036
H        0.13365354       0.26713665       1.81323657
H        1.42834710      -0.71240641      -0.77283100
H        1.01316023       0.98311025      -0.34745426
H        3.70185436      -0.09869655      -0.99984084
H        4.48369369       0.64914155       0.41645725
H        3.31639405       1.57396021      -0.56999956
21
Frame=11 idx=007721 GeodesicLength=1.00987218455383 rxn_smarts="[C:1]([C:2]([C:3]([C:4]([C:5]([O:6][C:7]([H:19])([H:20])[H:21])([H:17])[H:18])([H:15])[H:16])([H:13])[H:14])([H:11])[H:12])([H:8])([H:9])[H:10]>>[C:1](=[C:2]([C:3]([C:4]([C:5]([O:6][C:7]([H:19])([H:20])[H:21])([H:17])[H:18])([H:15])[H:16])([H:12])[H:13])[H:11])([H:8])[H:10].[H:9][H:14]"
C       -3.18115454       0.14091295      -0.58404822
C       -2.28523138       0.00403762       0.51151197
C       -1.01688375      -0.70050493       0.22694351
C        0.24384884      -0.46167665       1.02231472
C        1.32033723       0.00683299       0.06320573
O        2.55546748       0.13311446       0.71933836
C        3.55495945       0.58397576      -0.15870704
H       -3.71064670      -0.75114925      -0.90726764
H       -2.00012000       0.40530674      -1.92757095
H       -3.74509092       1.06935398      -0.59531915
H       -2.21773352       0.83666750       1.21014954
H       -2.08210680      -1.10876664       1.22815249
H       -1.04722697      -1.62763111      -0.34316823
H       -1.01763362       0.19529796      -1.50830637
H        0.57043184      -1.38554786       1.50624241
H        0.13263408       0.27763368       1.81892613
H        1.42487155      -0.71567264      -0.76330279
H        1.01292279       0.98430697      -0.34134918
H        3.69286365      -0.10321583      -1.00502216
H        4.48379849       0.64681115       0.40535985
H        3.31169282       1.56991315      -0.57808300
21
Frame=12 idx=007721 GeodesicLength=1.102484034028807 rxn_smarts="[C:1]([C:2]([C:3]([C:4]([C:5]([O:6][C:7]([H:19])([H:20])[H:21])([H:17])[H:18])([H:15])[H:16])([H:13])[H:14])([H:11])[H:12])([H:8])([H:9])[H:10]>>[C:1](=[C:2]([C:3]([C:4]([C:5]([O:6][C:7]([H:19])([H:20])[H:21])([H:17])[H:18])([H:15])[H:16])([H:12])[H:13])[H:11])([H:8])[H:10].[H:9][H:14]"
C       -3.17082544       0.14098265      -0.59488174
C       -2.29355357      -0.00715768       0.51597054
C       -1.01600900      -0.69915774       0.22989105
C        0.24168005      -0.45394869       1.03035735
C        1.31884523       0.00762270       0.06982129
O        2.55663479       0.13415659       0.72097947
C        3.55170117       0.58142505      -0.16413622
H       -3.72867825      -0.74111023      -0.89811229
H       -2.01588221       0.40749215      -1.95450104
H       -3.71205183       1.08321427      -0.61310318
H       -2.23912888       0.81720087       1.22551984
H       -2.05842309      -1.13905574       1.22733864
H       -1.03171610      -1.62209281      -0.34812021
H       -1.00762548       0.20906053      -1.50051743
H        0.56495938      -1.37626739       1.51948358
H        0.13147524       0.28808714       1.82450656
H        1.42151636      -0.71893944      -0.75368422
H        1.01261660       0.98546573      -0.33527199
H        3.68388392      -0.10762308      -1.00995658
H        4.48374328       0.64468601       0.39446425
H        3.30683784       1.56595912      -0.58604765
21
Frame=13 idx=007721 GeodesicLength=1.1951578280394044 rxn_smarts="[C:1]([C:2]([C:3]([C:4]([C:5]([O:6][C:7]([H:19])([H:20])[H:21])([H:17])[H:18])([H:15])[H:16])([H:13])[H:14])([H:11])[H:12])([H:8])([H:9])[H:10]>>[C:1](=[C:2]([C:3]([C:4]([C:5]([O:6][C:7]([H:19])([H:20])[H:21])([H:17])[H:18])([H:15])[H:16])([H:12])[H:13])[H:11])([H:8])[H:10].[H:9][H:14]"
C       -3.16014496       0.14117695      -0.60567713
C       -2.30179265      -0.01868649       0.52004969
C       -1.01511678      -0.69812533       0.23286896
C        0.23950070      -0.44629223       1.03833205
C        1.31736144       0.00841644       0.07647420
O        2.55773852       0.13533450       0.72272106
C        3.54835927       0.57903033      -0.16938507
H       -3.74734479      -0.72883848      -0.88883186
H       -2.03319613       0.40869661      -1.98258184
H       -3.67797225       1.09680939      -0.62974428
H       -2.26042769       0.79720659       1.24023022
H       -2.03397567      -1.16908411       1.22638803
H       -1.01619208      -1.61668258      -0.35283725
H       -0.99739568       0.22215608      -1.49277577
H        0.55958581      -1.36696328       1.53268726
H        0.13018084       0.29847175       1.82998450
H        1.41829867      -0.72221199      -0.74396972
H        1.01224284       0.98657927      -0.32921542
H        3.67493214      -0.11189888      -1.01463144
H        4.48353232       0.64279257       0.38378993
H        3.30182612       1.56211287      -0.59387612
21
Frame=14 idx=007721 GeodesicLength=1.2878899049472956 rxn_smarts="[C:1]([C:2]([C:3]([C:4]([C:5]([O:6][C:7]([H:19])([H:20])[H:21])([H:17])[H:18])([H:15])[H:16])([H:13])[H:14])([H:11])[H:12])([H:8])([H:9])[H:10]>>[C:1](=[C:2]([C:3]([C:4]([C:5]([O:6][C:7]([H:19])([H:20])[H:21])([H:17])[H:18])([H:15])[H:16])([H:12])[H:13])[H:11])([H:8])[H:10].[H:9][H:14]"
C       -3.14918544       0.14143753      -0.61639369
C       -2.30991653      -0.03050619       0.52373395
C       -1.01418834      -0.69738815       0.23585958
C        0.23732564      -0.43870983       1.04623083
C        1.31591296       0.00922121       0.08317321
O        2.55880474       0.13662464       0.72457971
C        3.54497167       0.57677218      -0.17442371
H       -3.76659610      -0.71433239      -0.87939299
H       -2.05243773       0.40879272      -2.01193362
H       -3.64293672       1.11009285      -0.64527239
H       -2.28158663       0.77675151       1.25424719
H       -2.00874235      -1.19882447       1.22529581
H       -1.00063580      -1.61136402      -0.35736587
H       -0.98691422       0.23469904      -1.48504221
H        0.55431738      -1.35764839       1.54583025
H        0.12876885       0.30876957       1.83536724
H        1.41524013      -0.72546352      -0.73416768
H        1.01184277       0.98766865      -0.32314740
H        3.66604130      -0.11604638      -1.01903199
H        4.48320242       0.64108725       0.37337219
H        3.29671203       1.55836620      -0.60151840
21
Frame=15 idx=007721 GeodesicLength=1.3806016358772555 rxn_smarts="[C:1]([C:2]([C:3]([C:4]([C:5]([O:6][C:7]([H:19])([H:20])[H:21])([H:17])[H:18])([H:15])[H:16])([H:13])[H:14])([H:11])[H:12])([H:8])([H:9])[H:10]>>[C:1](=[C:2]([C:3]([C:4]([C:5]([O:6][C:7]([H:19])([H:20])[H:21])([H:17])[H:18])([H:15])[H:16])([H:12])[H:13])[H:11])([H:8])[H:10].[H:9][H:14]"
C       -3.13797044       0.14174189      -0.62700363
C       -2.31789674      -0.04258484       0.52700797
C       -1.01321287      -0.69695534       0.23885659
C        0.23516424      -0.43122633       1.05405170
C        1.31451373       0.01003116       0.08992816
O        2.55984642       0.13802143       0.72657163
C        3.54155216       0.57466729      -0.17922682
H       -3.78639533      -0.69745120      -0.86970729
H       -2.07399237       0.40762721      -2.04264823
H       -3.60682595       1.12307494      -0.65976684
H       -2.30256662       0.75586647       1.26755756
H       -1.98272025      -1.22828439       1.22403004
H       -0.98504114      -1.60613182      -0.36173567
H       -0.97616088       0.24668841      -1.47731806
H        0.54916554      -1.34835711       1.55889419
H        0.12725075       0.31893871       1.84066923
H        1.41236129      -0.72869098      -0.72427747
H        1.01142592       0.98873260      -0.31704476
H        3.65723464      -0.12003790      -1.02314342
H        4.48276647       0.63959034       0.36324203
H        3.29150142       1.55473947      -0.60893692
21
Frame=16 idx=007721 GeodesicLength=1.4732086666047113 rxn_smarts="[C:1]([C:2]([C:3]([C:4]([C:5]([O:6][C:7]([H:19])([H:20])[H:21])([H:17])[H:18])([H:15])[H:16])([H:13])[H:14])([H:11])[H:12])([H:8])([H:9])[H:10]>>[C:1](=[C:2]([C:3]([C:4]([C:5]([O:6][C:7]([H:19])([H:20])[H:21])([H:17])[H:18])([H:15])[H:16])([H:12])[H:13])[H:11])([H:8])[H:10].[H:9][H:14]"
C       -3.12655185       0.14205506      -0.63748187
C       -2.32569957      -0.05487088       0.52986416
C       -1.01217613      -0.69681767       0.24184931
C        0.23303143      -0.42386478       1.06179126
C        1.31318517       0.01084888       0.09675145
O        2.56088635       0.13949870       0.72871349
C        3.53812761       0.57271536      -0.18376361
H       -3.80668019      -0.67811888      -0.85970378
H       -2.09830013       0.40499092      -2.07483877
H       -3.56960245       1.13573383      -0.67332494
H       -2.32331298       0.73462613       1.28013790
H       -1.95589921      -1.25745205       1.22257179
H       -0.96940070      -1.60095563      -0.36599021
H       -0.96511220       0.25820574      -1.46956997
H        0.54414118      -1.33913076       1.57184602
H        0.12564905       0.32892915       1.84591474
H        1.40967903      -0.73186525      -0.71431134
H        1.01102011       0.98979055      -0.31086106
H        3.64853570      -0.12384552      -1.02696021
H        4.48225244       0.63827917       0.35343263
H        3.28622733       1.55124795      -0.61606701
