12
Frame=0 idx=006802 GeodesicLength=0.0 rxn_smarts="[O:1]=[C:2]([C@@:3]1([H:9])[C:4]([H:10])([H:11])[N:5]1[C:6](=[O:7])[H:12])[H:8]>>[O-:1][C:2](=[C:3]([N+:5](=[C:4]([H:10])[H:11])[C:6](=[O:7])[H:12])[H:9])[H:8]"
O        2.91953356       0.12749732      -0.23595570
C        1.72235120       0.02682163      -0.37398485
C        0.75800062       0.04990700       0.69502360
C       -0.68511738       1.08980798      -0.39269653
N       -0.58864974      -0.01566724       0.36241794
C       -1.42438767      -1.13763544       0.31807459
O       -2.45794658      -1.14420741      -0.27916502
H        1.26315413      -0.14022471      -1.37682624
H        1.07181210       0.05201523       1.73411541
H       -1.10296545       1.03739208      -1.39387348
H       -0.47214382       2.04163515       0.06586885
H       -1.00364097      -1.98734158       0.87700146
12
Frame=1 idx=006802 GeodesicLength=0.02880399939335031 rxn_smarts="[O:1]=[C:2]([C@@:3]1([H:9])[C:4]([H:10])([H:11])[N:5]1[C:6](=[O:7])[H:12])[H:8]>>[O-:1][C:2](=[C:3]([N+:5](=[C:4]([H:10])[H:11])[C:6](=[O:7])[H:12])[H:9])[H:8]"
O        2.91534709       0.11747047      -0.23721295
C        1.71839969       0.01498619      -0.37409154
C        0.75323139       0.06491142       0.69417832
C       -0.68372726       1.09557943      -0.38601320
N       -0.59723947      -0.00430731       0.37904709
C       -1.41787908      -1.13760321       0.31434655
O       -2.44557319      -1.15050482      -0.29230636
H        1.25827690      -0.15304968      -1.37610299
H        1.06945801       0.05143995       1.73221288
H       -1.10868536       1.03444322      -1.38341073
H       -0.47187925       2.05325103       0.06075546
H       -0.98972947      -1.98661669       0.86859746
12
Frame=2 idx=006802 GeodesicLength=0.057414969366027885 rxn_smarts="[O:1]=[C:2]([C@@:3]1([H:9])[C:4]([H:10])([H:11])[N:5]1[C:6](=[O:7])[H:12])[H:8]>>[O-:1][C:2](=[C:3]([N+:5](=[C:4]([H:10])[H:11])[C:6](=[O:7])[H:12])[H:9])[H:8]"
O        2.91123448       0.10930612      -0.23828131
C        1.71469925       0.00302358      -0.37411022
C        0.74858994       0.07866721       0.69278815
C       -0.68213847       1.10086423      -0.37943946
N       -0.60545522       0.00610414       0.39467725
C       -1.41165522      -1.13752455       0.31071272
O       -2.43360261      -1.15623321      -0.30491039
H        1.25415783      -0.16508355      -1.37568551
H        1.06667672       0.05066388       1.72975947
H       -1.11428172       1.03166144      -1.37293448
H       -0.47119821       2.06398318       0.05590673
H       -0.97702675      -1.98543248       0.86151707
12
Frame=3 idx=006802 GeodesicLength=0.08594494909433173 rxn_smarts="[O:1]=[C:2]([C@@:3]1([H:9])[C:4]([H:10])([H:11])[N:5]1[C:6](=[O:7])[H:12])[H:8]>>[O-:1][C:2](=[C:3]([N+:5](=[C:4]([H:10])[H:11])[C:6](=[O:7])[H:12])[H:9])[H:8]"
O        2.90742641       0.09941893      -0.23875576
C        1.71113838      -0.00805962      -0.37411729
C        0.74401198       0.09198679       0.69090938
C       -0.68081729       1.10592313      -0.37291949
N       -0.61337249       0.01590267       0.40947291
C       -1.40536250      -1.13744828       0.30723301
O       -2.42160848      -1.16187965      -0.31705697
H        1.25063271      -0.17568049      -1.37557021
H        1.06348307       0.05053294       1.72683044
H       -1.12019255       1.02909006      -1.36239696
H       -0.47087366       2.07420862       0.05131240
H       -0.96446559      -1.98399510       0.85505854
12
Frame=4 idx=006802 GeodesicLength=0.11447378382943205 rxn_smarts="[O:1]=[C:2]([C@@:3]1([H:9])[C:4]([H:10])([H:11])[N:5]1[C:6](=[O:7])[H:12])[H:8]>>[O-:1][C:2](=[C:3]([N+:5](=[C:4]([H:10])[H:11])[C:6](=[O:7])[H:12])[H:9])[H:8]"
O        2.90395818       0.08655957      -0.23847190
C        1.70763821      -0.01800132      -0.37419384
C        0.73946949       0.10517741       0.68857621
C       -0.67993533       1.11088095      -0.36640056
N       -0.62103893       0.02524873       0.42356967
C       -1.39889512      -1.13737297       0.30397212
O       -2.40931982      -1.16768871      -0.32894943
H        1.24758089      -0.18467520      -1.37579780
H        1.05994923       0.05136089       1.72347092
H       -1.12658343       1.02675809      -1.35174712
H       -0.47116098       2.08410601       0.04697577
H       -0.95166239      -1.98235345       0.84899598
12
Frame=5 idx=006802 GeodesicLength=0.14306962796535716 rxn_smarts="[O:1]=[C:2]([C@@:3]1([H:9])[C:4]([H:10])([H:11])[N:5]1[C:6](=[O:7])[H:12])[H:8]>>[O-:1][C:2](=[C:3]([N+:5](=[C:4]([H:10])[H:11])[C:6](=[O:7])[H:12])[H:9])[H:8]"
O        2.90077351       0.07023544      -0.23733037
C        1.70415324      -0.02675913      -0.37438614
C        0.73494662       0.11839564       0.68582221
C       -0.67956010       1.11580540      -0.35986189
N       -0.62848457       0.03424000       0.43707059
C       -1.39221501      -1.13728915       0.30097572
O       -2.39660960      -1.17375142      -0.34067248
H        1.24493289      -0.19204593      -1.37639728
H        1.05613853       0.05327173       1.71972434
H       -1.13352647       1.02466243      -1.34096157
H       -0.47215659       2.09378146       0.04287155
H       -0.93839246      -1.98054647       0.84314531
12
Frame=6 idx=006802 GeodesicLength=0.1718068846184328 rxn_smarts="[O:1]=[C:2]([C@@:3]1([H:9])[C:4]([H:10])([H:11])[N:5]1[C:6](=[O:7])[H:12])[H:8]>>[O-:1][C:2](=[C:3]([N+:5](=[C:4]([H:10])[H:11])[C:6](=[O:7])[H:12])[H:9])[H:8]"
O        2.89772675       0.05040352      -0.23529782
C        1.70064115      -0.03442387      -0.37470422
C        0.73042482       0.13171753       0.68269538
C       -0.67969856       1.12073227      -0.35329066
N       -0.63573839       0.04295795       0.45008688
C       -1.38534778      -1.13715182       0.29832818
O       -2.38341292      -1.18006805      -0.35225830
H        1.24261713      -0.19792747      -1.37735013
H        1.05210421       0.05630944       1.71564742
H       -1.14102859       1.02277466      -1.33002316
H       -0.47383808       2.10330192       0.03893700
H       -0.92444974      -1.97862609       0.83722941
12
Frame=7 idx=006802 GeodesicLength=0.2007452749710882 rxn_smarts="[O:1]=[C:2]([C@@:3]1([H:9])[C:4]([H:10])([H:11])[N:5]1[C:6](=[O:7])[H:12])[H:8]>>[O-:1][C:2](=[C:3]([N+:5](=[C:4]([H:10])[H:11])[C:6](=[O:7])[H:12])[H:9])[H:8]"
O        2.89463602       0.02720220      -0.23238572
C        1.69708437      -0.04111042      -0.37515660
C        0.72589770       0.14516222       0.67922486
C       -0.68032736       1.12567900      -0.34667527
N       -0.64281474       0.05144813       0.46269703
C       -1.37831377      -1.13694187       0.29606225
O       -2.36966101      -1.18663800      -0.36377615
H        1.24058995      -0.20243666      -1.37864347
H        1.04790062       0.06044237       1.71127504
H       -1.14907429       1.02108079      -1.31891140
H       -0.47614759       2.11270104       0.03513313
H       -0.90976990      -1.97658879       0.83115631
12
Frame=8 idx=006802 GeodesicLength=0.22966972638456584 rxn_smarts="[O:1]=[C:2]([C@@:3]1([H:9])[C:4]([H:10])([H:11])[N:5]1[C:6](=[O:7])[H:12])[H:8]>>[O-:1][C:2](=[C:3]([N+:5](=[C:4]([H:10])[H:11])[C:6](=[O:7])[H:12])[H:9])[H:8]"
O        2.89137023       0.00378849      -0.22904408
C        1.69362495      -0.04754490      -0.37566495
C        0.72141331       0.15808260       0.67543585
C       -0.68104581       1.13043133      -0.34008828
N       -0.64967195       0.05948274       0.47484825
C       -1.37137278      -1.13671240       0.29395338
O       -2.35591175      -1.19300217      -0.37502484
H        1.23903520      -0.20616757      -1.38024255
H        1.04358821       0.06484281       1.70663028
H       -1.15723012       1.01946949      -1.30772981
H       -0.47840264       2.12170848       0.03139709
H       -0.89539685      -1.97437890       0.82552966
12
Frame=9 idx=006802 GeodesicLength=0.25864513409923323 rxn_smarts="[O:1]=[C:2]([C@@:3]1([H:9])[C:4]([H:10])([H:11])[N:5]1[C:6](=[O:7])[H:12])[H:8]>>[O-:1][C:2](=[C:3]([N+:5](=[C:4]([H:10])[H:11])[C:6](=[O:7])[H:12])[H:9])[H:8]"
O        2.88786811      -0.02047529      -0.22522480
C        1.69021620      -0.05361858      -0.37624665
C        0.71695385       0.17066040       0.67136276
C       -0.68193588       1.13506152      -0.33350333
N       -0.65633567       0.06716395       0.48662404
C       -1.36447699      -1.13644327       0.29206438
O       -2.34198908      -1.19928090      -0.38612300
H        1.23787207      -0.20909062      -1.38212990
H        1.03920094       0.06966075       1.70175307
H       -1.16557814       1.01795713      -1.29645104
H       -0.48073416       2.13042908       0.02771548
H       -0.88106125      -1.97202417       0.82015898
12
Frame=10 idx=006802 GeodesicLength=0.2877831492485263 rxn_smarts="[O:1]=[C:2]([C@@:3]1([H:9])[C:4]([H:10])([H:11])[N:5]1[C:6](=[O:7])[H:12])[H:8]>>[O-:1][C:2](=[C:3]([N+:5](=[C:4]([H:10])[H:11])[C:6](=[O:7])[H:12])[H:9])[H:8]"
O        2.88402282      -0.04710078      -0.22068883
C        1.68683616      -0.05895588      -0.37695077
C        0.71250412       0.18322143       0.66700133
C       -0.68317178       1.13966671      -0.32690404
N       -0.66281226       0.07460174       0.49806714
C       -1.35744794      -1.13615782       0.29040827
O       -2.32768226      -1.20564689      -0.39708019
H        1.23707270      -0.21087262      -1.38433502
H        1.03475236       0.07523110       1.69664441
H       -1.17430653       1.01655564      -1.28504062
H       -0.48348108       2.13899871       0.02409626
H       -0.86628631      -1.96954134       0.81478206
12
Frame=11 idx=006802 GeodesicLength=0.3168398448970348 rxn_smarts="[O:1]=[C:2]([C@@:3]1([H:9])[C:4]([H:10])([H:11])[N:5]1[C:6](=[O:7])[H:12])[H:8]>>[O-:1][C:2](=[C:3]([N+:5](=[C:4]([H:10])[H:11])[C:6](=[O:7])[H:12])[H:9])[H:8]"
O        2.87988777      -0.07251099      -0.21601834
C        1.68357268      -0.06444264      -0.37765285
C        0.70809189       0.19507350       0.66241286
C       -0.68431584       1.14402296      -0.32035861
N       -0.66909163       0.08159343       0.50915780
C       -1.35065237      -1.13585030       0.28885262
O       -2.31358291      -1.21163547      -0.40774596
H        1.23675927      -0.21228051      -1.38675915
H        1.03027687       0.08066971       1.69135489
H       -1.18293832       1.01516044      -1.27360202
H       -0.48584915       2.14713493       0.02044059
H       -0.85215826      -1.96693508       0.80991817
12
Frame=12 idx=006802 GeodesicLength=0.34592409981291117 rxn_smarts="[O:1]=[C:2]([C@@:3]1([H:9])[C:4]([H:10])([H:11])[N:5]1[C:6](=[O:7])[H:12])[H:8]>>[O-:1][C:2](=[C:3]([N+:5](=[C:4]([H:10])[H:11])[C:6](=[O:7])[H:12])[H:9])[H:8]"
O        2.87541108      -0.09839009      -0.21097135
C        1.68040012      -0.06965158      -0.37841594
C        0.70370359       0.20657012       0.65759043
C       -0.68557037       1.14824163      -0.31383965
N       -0.67518382       0.08825557       0.51993587
C       -1.34389461      -1.13554658       0.28740906
O       -2.29943350      -1.21747222      -0.41819253
H        1.23689769      -0.21293792      -1.38944640
H        1.02578903       0.08634859       1.68588357
H       -1.19169702       1.01380546      -1.26209249
H       -0.48822037       2.15498863       0.01677830
H       -0.83820181      -1.96421162       0.80536112
12
Frame=13 idx=006802 GeodesicLength=0.37512327053189076 rxn_smarts="[O:1]=[C:2]([C@@:3]1([H:9])[C:4]([H:10])([H:11])[N:5]1[C:6](=[O:7])[H:12])[H:8]>>[O-:1][C:2](=[C:3]([N+:5](=[C:4]([H:10])[H:11])[C:6](=[O:7])[H:12])[H:9])[H:8]"
O        2.87044799      -0.12574309      -0.20541092
C        1.67730190      -0.07434658      -0.37927116
C        0.69932908       0.21793203       0.65253539
C       -0.68704792       1.15239320      -0.30732793
N       -0.68109216       0.09466783       0.53043960
C       -1.33705121      -1.13525312       0.28609749
O       -2.28504959      -1.22328587      -0.42846978
H        1.23746017      -0.21264414      -1.39240347
H        1.02130347       0.09249328       1.68023241
H       -1.20070103       1.01250201      -1.25047916
H       -0.49081416       2.16265655       0.01311577
H       -0.82408654      -1.96137211       0.80094178
12
Frame=14 idx=006802 GeodesicLength=0.4042522957893777 rxn_smarts="[O:1]=[C:2]([C@@:3]1([H:9])[C:4]([H:10])([H:11])[N:5]1[C:6](=[O:7])[H:12])[H:8]>>[O-:1][C:2](=[C:3]([N+:5](=[C:4]([H:10])[H:11])[C:6](=[O:7])[H:12])[H:9])[H:8]"
O        2.86518379      -0.15217302      -0.19971739
C        1.67432558      -0.07911581      -0.38011387
C        0.69497926       0.22871595       0.64730466
C       -0.68846278       1.15632146      -0.30089037
N       -0.68681994       0.10070798       0.54065565
C       -1.33039244      -1.13495826       0.28484715
O       -2.27095991      -1.22872773      -0.43834958
H        1.23854856      -0.21188834      -1.39555250
H        1.01681808       0.09849533       1.67444796
H       -1.20960824       1.01114691      -1.23886844
H       -0.49312556       2.16995009       0.00935803
H       -0.81048639      -1.95847457       0.79687869
12
Frame=15 idx=006802 GeodesicLength=0.43337938817973537 rxn_smarts="[O:1]=[C:2]([C@@:3]1([H:9])[C:4]([H:10])([H:11])[N:5]1[C:6](=[O:7])[H:12])[H:8]>>[O-:1][C:2](=[C:3]([N+:5](=[C:4]([H:10])[H:11])[C:6](=[O:7])[H:12])[H:9])[H:8]"
O        2.85954170      -0.17861239      -0.19377522
C        1.67145814      -0.08373932      -0.38098261
C        0.69064724       0.23911600       0.64189637
C       -0.68992418       1.16008970      -0.29450385
N       -0.69237500       0.10644316       0.55061727
C       -1.32381293      -1.13467583       0.28367330
O       -2.25698817      -1.23394606      -0.44791889
H        1.24014886      -0.21044598      -1.39891905
H        1.01234991       0.10456876       1.66853211
H       -1.21854780       1.00976172      -1.22722473
H       -0.49534596       2.17695386       0.00551796
H       -0.79715180      -1.95551361       0.79308734
12
Frame=16 idx=006802 GeodesicLength=0.46261196530204163 rxn_smarts="[O:1]=[C:2]([C@@:3]1([H:9])[C:4]([H:10])([H:11])[N:5]1[C:6](=[O:7])[H:12])[H:8]>>[O-:1][C:2](=[C:3]([N+:5](=[C:4]([H:10])[H:11])[C:6](=[O:7])[H:12])[H:9])[H:8]"
O        2.85329682      -0.20634793      -0.18740781
C        1.66869127      -0.08790243      -0.38191849
C        0.68632366       0.24938823       0.63629868
C       -0.69156856       1.16377674      -0.28814790
N       -0.69775165       0.11195170       0.56035034
C       -1.31714452      -1.13442264       0.28259161
O       -2.24289723      -1.23910530      -0.45723594
H        1.24225167      -0.20800669      -1.40252291
H        1.00791178       0.11100435       1.66247303
H       -1.22766671       1.00836487      -1.21550756
H       -0.49775036       2.18377323       0.00161234
H       -0.78369617      -1.95247414       0.78941460
