11
Frame=0 idx=003431 GeodesicLength=0.0 rxn_smarts="[C:1]([C:2](=[O:3])[N:4]([C:5](=[O:6])[H:11])[H:10])([H:7])([H:8])[H:9]>>[C:1]([C:2](=[O:3])/[N:4]=[C:5](/[O:6][H:10])[H:11])([H:7])([H:8])[H:9]"
C       -1.77882230       0.10079885      -0.03049498
C       -0.38464559       0.63707115       0.12138586
O       -0.12390303       1.78843768       0.37027578
N        0.60890476      -0.32910464      -0.05274329
C        1.90599455      -0.12953103       0.02814363
O        2.48209053      -1.23481288      -0.18629739
H       -1.89932129      -0.33965449      -1.02174556
H       -2.49859774       0.90194334       0.11330133
H       -1.95122193      -0.69121977       0.70040009
H        1.21753750      -1.50664166      -0.28158448
H        2.42198453       0.80271342       0.23935902
11
Frame=1 idx=003431 GeodesicLength=0.031703848117595544 rxn_smarts="[C:1]([C:2](=[O:3])[N:4]([C:5](=[O:6])[H:11])[H:10])([H:7])([H:8])[H:9]>>[C:1]([C:2](=[O:3])/[N:4]=[C:5](/[O:6][H:10])[H:11])([H:7])([H:8])[H:9]"
C       -1.77771353       0.10091527      -0.02737167
C       -0.38218734       0.63713477       0.11426688
O       -0.11975994       1.78907525       0.35866436
N        0.60939753      -0.32904335      -0.07231376
C        1.90716549      -0.12092171      -0.00345927
O        2.48513007      -1.23360369      -0.17342144
H       -1.90671868      -0.33849944      -1.01804389
H       -2.49605727       0.90248318       0.12201151
H       -1.94513715      -0.69124454       0.70459765
H        1.21596148      -1.51711858      -0.28086243
H        2.40991935       0.80082282       0.27593206
11
Frame=2 idx=003431 GeodesicLength=0.06296511959776963 rxn_smarts="[C:1]([C:2](=[O:3])[N:4]([C:5](=[O:6])[H:11])[H:10])([H:7])([H:8])[H:9]>>[C:1]([C:2](=[O:3])/[N:4]=[C:5](/[O:6][H:10])[H:11])([H:7])([H:8])[H:9]"
C       -1.77580610       0.10065238      -0.02295235
C       -0.37928166       0.63856939       0.10116161
O       -0.11548211       1.79130658       0.33928641
N        0.61042240      -0.32620276      -0.10214921
C        1.90809245      -0.11517758      -0.01912090
O        2.48696315      -1.23187030      -0.16075851
H       -1.91760662      -0.33839051      -1.01202223
H       -2.49279023       0.90169939       0.13511533
H       -1.93355248      -0.69134671       0.71129068
H        1.21379427      -1.52528627      -0.28706272
H        2.39524692       0.79604639       0.31721190
11
Frame=3 idx=003431 GeodesicLength=0.09459440267462936 rxn_smarts="[C:1]([C:2](=[O:3])[N:4]([C:5](=[O:6])[H:11])[H:10])([H:7])([H:8])[H:9]>>[C:1]([C:2](=[O:3])/[N:4]=[C:5](/[O:6][H:10])[H:11])([H:7])([H:8])[H:9]"
C       -1.77378747       0.10053783      -0.01943114
C       -0.37644224       0.63947912       0.09148924
O       -0.11144011       1.79299864       0.32397985
N        0.61146342      -0.32458815      -0.12465855
C        1.90917754      -0.10983240      -0.03158966
O        2.48882496      -1.22926978      -0.15252690
H       -1.92529085      -0.33870445      -1.00698861
H       -2.48947019       0.90164069       0.14442213
H       -1.92472538      -0.69084313       0.71693434
H        1.21137922      -1.53363607      -0.29188104
H        2.38031109       0.79221771       0.35025032
11
Frame=4 idx=003431 GeodesicLength=0.12614948540921536 rxn_smarts="[C:1]([C:2](=[O:3])[N:4]([C:5](=[O:6])[H:11])[H:10])([H:7])([H:8])[H:9]>>[C:1]([C:2](=[O:3])/[N:4]=[C:5](/[O:6][H:10])[H:11])([H:7])([H:8])[H:9]"
C       -1.77174588       0.10060050      -0.01689295
C       -0.37369196       0.63976614       0.08496253
O       -0.10758375       1.79376069       0.31324445
N        0.61237395      -0.32397746      -0.14175131
C        1.91024152      -0.10461048      -0.04291246
O        2.49087341      -1.22580805      -0.14791801
H       -1.93044246      -0.33829266      -1.00347429
H       -2.48611987       0.90204081       0.15111523
H       -1.91831806      -0.69041786       0.72073955
H        1.20869618      -1.54262522      -0.29254604
H        2.36571691       0.78956360       0.37543331
11
Frame=5 idx=003431 GeodesicLength=0.15773583651459813 rxn_smarts="[C:1]([C:2](=[O:3])[N:4]([C:5](=[O:6])[H:11])[H:10])([H:7])([H:8])[H:9]>>[C:1]([C:2](=[O:3])/[N:4]=[C:5](/[O:6][H:10])[H:11])([H:7])([H:8])[H:9]"
C       -1.76973125       0.10076419      -0.01488370
C       -0.37101007       0.63973149       0.08009416
O       -0.10385438       1.79413172       0.30457318
N        0.61319764      -0.32401698      -0.15552599
C        1.91127467      -0.09941749      -0.05318192
O        2.49320433      -1.22166101      -0.14670799
H       -1.93416126      -0.33783682      -1.00066357
H       -2.48280586       0.90278765       0.15603377
H       -1.91336896      -0.68977593       0.72384952
H        1.20588937      -1.55197162      -0.29073173
H        2.35136576       0.78726480       0.39714428
11
Frame=6 idx=003431 GeodesicLength=0.18933732326098798 rxn_smarts="[C:1]([C:2](=[O:3])[N:4]([C:5](=[O:6])[H:11])[H:10])([H:7])([H:8])[H:9]>>[C:1]([C:2](=[O:3])/[N:4]=[C:5](/[O:6][H:10])[H:11])([H:7])([H:8])[H:9]"
C       -1.76770272       0.10095584      -0.01310692
C       -0.36835397       0.63958992       0.07592522
O       -0.10021552       1.79436587       0.29679401
N        0.61401382      -0.32428342      -0.16775784
C        1.91229361      -0.09425918      -0.06239763
O        2.49560640      -1.21720540      -0.14704012
H       -1.93720142      -0.33744120      -0.99812887
H       -2.47950758       0.90365513       0.16011338
H       -1.90901249      -0.68901475       0.72669998
H        1.20296832      -1.56134133      -0.28811271
H        2.33711156       0.78497851       0.41701150
11
Frame=7 idx=003431 GeodesicLength=0.22091155713022217 rxn_smarts="[C:1]([C:2](=[O:3])[N:4]([C:5](=[O:6])[H:11])[H:10])([H:7])([H:8])[H:9]>>[C:1]([C:2](=[O:3])/[N:4]=[C:5](/[O:6][H:10])[H:11])([H:7])([H:8])[H:9]"
C       -1.76560352       0.10112572      -0.01134265
C       -0.36569003       0.63950980       0.07172055
O       -0.09665023       1.79467270       0.28891910
N        0.61488998      -0.32449398      -0.17959069
C        1.91331901      -0.08913502      -0.07042654
O        2.49792311      -1.21264970      -0.14793222
H       -1.94004226      -0.33730569      -0.99549165
H       -2.47618512       0.90450650       0.16392355
H       -1.90460562      -0.68810544       0.72969860
H        1.19991331      -1.57049375      -0.28591350
H        2.32273136       0.78236887       0.43643545
11
Frame=8 idx=003431 GeodesicLength=0.25254790762088575 rxn_smarts="[C:1]([C:2](=[O:3])[N:4]([C:5](=[O:6])[H:11])[H:10])([H:7])([H:8])[H:9]>>[C:1]([C:2](=[O:3])/[N:4]=[C:5](/[O:6][H:10])[H:11])([H:7])([H:8])[H:9]"
C       -1.76340136       0.10124670      -0.00948571
C       -0.36299772       0.63956653       0.06723725
O       -0.09314131       1.79515785       0.28063044
N        0.61586753      -0.32452005      -0.19140359
C        1.91436567      -0.08406769      -0.07723221
O        2.50003180      -1.20818053      -0.14845729
H       -1.94285072      -0.33750783      -0.99259862
H       -2.47281482       0.90527680       0.16770845
H       -1.89989252      -0.68706284       0.73301650
H        1.19669964      -1.57936751      -0.28510679
H        2.30813381       0.77945858       0.45569156
11
Frame=9 idx=003431 GeodesicLength=0.284175065478371 rxn_smarts="[C:1]([C:2](=[O:3])[N:4]([C:5](=[O:6])[H:11])[H:10])([H:7])([H:8])[H:9]>>[C:1]([C:2](=[O:3])/[N:4]=[C:5](/[O:6][H:10])[H:11])([H:7])([H:8])[H:9]"
C       -1.76102643       0.10129254      -0.00738797
C       -0.36025339       0.63990166       0.06188849
O       -0.08968430       1.79598729       0.27116268
N        0.61700332      -0.32417836      -0.20389216
C        1.91544961      -0.07904392      -0.08259615
O        2.50185037      -1.20385935      -0.14835483
H       -1.94590562      -0.33831893      -0.98912033
H       -2.46934009       0.90590732       0.17173917
H       -1.89439066      -0.68576043       0.73702817
H        1.19328951      -1.58781132      -0.28643813
H        2.29300769       0.77588348       0.47597107
11
Frame=10 idx=003431 GeodesicLength=0.31586121276294676 rxn_smarts="[C:1]([C:2](=[O:3])[N:4]([C:5](=[O:6])[H:11])[H:10])([H:7])([H:8])[H:9]>>[C:1]([C:2](=[O:3])/[N:4]=[C:5](/[O:6][H:10])[H:11])([H:7])([H:8])[H:9]"
C       -1.75846721       0.10126780      -0.00507857
C       -0.35745622       0.64050769       0.05575681
O       -0.08627497       1.79711810       0.26077890
N        0.61831506      -0.32345423      -0.21694673
C        1.91656348      -0.07407018      -0.08666859
O        2.50334492      -1.19972765      -0.14733635
H       -1.94914010      -0.33964677      -0.98512215
H       -2.46575298       0.90638204       0.17602059
H       -1.88812657      -0.68425142       0.74161708
H        1.18965403      -1.59590991      -0.28988390
H        2.27734055       0.77178453       0.49686290
11
Frame=11 idx=003431 GeodesicLength=0.3476924664094311 rxn_smarts="[C:1]([C:2](=[O:3])[N:4]([C:5](=[O:6])[H:11])[H:10])([H:7])([H:8])[H:9]>>[C:1]([C:2](=[O:3])/[N:4]=[C:5](/[O:6][H:10])[H:11])([H:7])([H:8])[H:9]"
C       -1.75564067       0.10114985      -0.00242177
C       -0.35458596       0.64153890       0.04826292
O       -0.08289745       1.79873369       0.24879970
N        0.61987062      -0.32217831      -0.23110619
C        1.91770248      -0.06914029      -0.08914214
O        2.50443444      -1.19582922      -0.14524427
H       -1.95276425      -0.34184181      -0.98026264
H       -2.46198584       0.90667026       0.18070431
H       -1.88063989      -0.68235014       0.74720173
H        1.18576035      -1.60355228      -0.29624840
H        2.26074616       0.76679936       0.51945676
11
Frame=12 idx=003431 GeodesicLength=0.379391385937231 rxn_smarts="[C:1]([C:2](=[O:3])[N:4]([C:5](=[O:6])[H:11])[H:10])([H:7])([H:8])[H:9]>>[C:1]([C:2](=[O:3])/[N:4]=[C:5](/[O:6][H:10])[H:11])([H:7])([H:8])[H:9]"
C       -1.75285511       0.10108487      -0.00011540
C       -0.35176900       0.64232407       0.04188867
O       -0.07960341       1.79996690       0.23861160
N        0.62137619      -0.32121871      -0.24374119
C        1.91882285      -0.06408833      -0.09197245
O        2.50557546      -1.19174814      -0.14389112
H       -1.95565559      -0.34345465      -0.97609402
H       -2.45827177       0.90704277       0.18482787
H       -1.87396066      -0.68073700       0.75190274
H        1.18176429      -1.61149153      -0.30071891
H        2.24457676       0.76231974       0.53930221
11
Frame=13 idx=003431 GeodesicLength=0.41110760511097044 rxn_smarts="[C:1]([C:2](=[O:3])[N:4]([C:5](=[O:6])[H:11])[H:10])([H:7])([H:8])[H:9]>>[C:1]([C:2](=[O:3])/[N:4]=[C:5](/[O:6][H:10])[H:11])([H:7])([H:8])[H:9]"
C       -1.75003458       0.10102280       0.00207605
C       -0.34896659       0.64307828       0.03582409
O       -0.07635827       1.80110201       0.22910444
N        0.62292021      -0.32030708      -0.25570536
C        1.91994749      -0.05896624      -0.09458520
O        2.50664206      -1.18761794      -0.14263960
H       -1.95820992      -0.34499667      -0.97209804
H       -2.45455795       0.90741888       0.18867189
H       -1.86746942      -0.67916369       0.75637881
H        1.17761432      -1.61950388      -0.30495141
H        2.22847265       0.75793354       0.55792434
11
Frame=14 idx=003431 GeodesicLength=0.4428794101858674 rxn_smarts="[C:1]([C:2](=[O:3])[N:4]([C:5](=[O:6])[H:11])[H:10])([H:7])([H:8])[H:9]>>[C:1]([C:2](=[O:3])/[N:4]=[C:5](/[O:6][H:10])[H:11])([H:7])([H:8])[H:9]"
C       -1.74711376       0.10093915       0.00428752
C       -0.34615938       0.64393621       0.02956141
O       -0.07315225       1.80230581       0.21964252
N        0.62455960      -0.31928099      -0.26750645
C        1.92107382      -0.05380942      -0.09664024
O        2.50753370      -1.18353341      -0.14109361
H       -1.96064425      -0.34676171      -0.96796185
H       -2.45079271       0.90775389       0.19242088
H       -1.86075611      -0.67748231       0.76100285
H        1.17329877      -1.62746130      -0.30990357
H        2.21215256       0.75339407       0.57619055
11
Frame=15 idx=003431 GeodesicLength=0.474763496343655 rxn_smarts="[C:1]([C:2](=[O:3])[N:4]([C:5](=[O:6])[H:11])[H:10])([H:7])([H:8])[H:9]>>[C:1]([C:2](=[O:3])/[N:4]=[C:5](/[O:6][H:10])[H:11])([H:7])([H:8])[H:9]"
C       -1.74401058       0.10081268       0.00664381
C       -0.34333088       0.64505508       0.02256172
O       -0.06997481       1.80376761       0.20964672
N        0.62636084      -0.31797253      -0.27964649
C        1.92218459      -0.04863645      -0.09780186
O        2.50815329      -1.17957448      -0.13898789
H       -1.96314273      -0.34909211      -0.96337423
H       -2.44691618       0.90802135       0.19620845
H       -1.85338120      -0.67552184       0.76617566
H        1.16880437      -1.63524720      -0.31641858
H        2.19525328       0.74838789       0.59499269
11
Frame=16 idx=003431 GeodesicLength=0.5066115368233809 rxn_smarts="[C:1]([C:2](=[O:3])[N:4]([C:5](=[O:6])[H:11])[H:10])([H:7])([H:8])[H:9]>>[C:1]([C:2](=[O:3])/[N:4]=[C:5](/[O:6][H:10])[H:11])([H:7])([H:8])[H:9]"
C       -1.74067075       0.10064008       0.00921077
C       -0.34047398       0.64645699       0.01460005
O       -0.06682053       1.80542777       0.19889299
N        0.62836662      -0.31627516      -0.29232620
C        1.92326462      -0.04351848      -0.09788524
O        2.50837600      -1.17581353      -0.13581340
H       -1.96576530      -0.35203629      -0.95812772
H       -2.44288748       0.90814154       0.20015907
H       -1.84511459      -0.67318432       0.77196644
H        1.16412470      -1.64269897      -0.32510066
H        2.17760069       0.74286038       0.61442390
