14
Frame=0 idx=003750 GeodesicLength=0.0 rxn_smarts="[C:1]([C@@:2]1([H:10])[O:3][C@@:4]2([H:11])[C:5]([H:12])([H:13])[C@@:6]12[H:14])([H:7])([H:8])[H:9]>>[C:1]([C@@:2]1([H:10])[O+:3]=[C-:4][C:5]([H:12])([H:13])[C:6]1([H:11])[H:14])([H:7])([H:8])[H:9]"
C       -1.63859956      -0.62582178       0.07093229
C       -0.65243979       0.49055001      -0.17970125
O       -0.16144614       1.14753770       0.99678152
C        1.23567285       1.09406029       0.75899507
C        1.50739383      -0.36830752       0.45234094
C        0.73211896       0.13746959      -0.71161279
H       -2.50118811      -0.23957418       0.61542794
H       -1.19722032      -1.43297374       0.65518289
H       -1.99110538      -1.03291334      -0.87966377
H       -1.11953355       1.26119509      -0.80277629
H        1.23304117       1.33983406      -0.58906892
H        2.54852881      -0.59173440       0.24574327
H        1.02510288      -1.08161740       1.10924809
H        0.97967431      -0.09770441      -1.74182904
14
Frame=1 idx=003750 GeodesicLength=0.05014725625139816 rxn_smarts="[C:1]([C@@:2]1([H:10])[O:3][C@@:4]2([H:11])[C:5]([H:12])([H:13])[C@@:6]12[H:14])([H:7])([H:8])[H:9]>>[C:1]([C@@:2]1([H:10])[O+:3]=[C-:4][C:5]([H:12])([H:13])[C:6]1([H:11])[H:14])([H:7])([H:8])[H:9]"
C       -1.64008752      -0.62439515       0.06904515
C       -0.65368157       0.49133157      -0.18156914
O       -0.16402464       1.14497662       1.00005950
C        1.22933834       1.09035846       0.76515371
C        1.50911144      -0.36740316       0.45257446
C        0.73174201       0.13977215      -0.71195739
H       -2.50180877      -0.23876717       0.61537340
H       -1.19849414      -1.43262479       0.65175228
H       -1.99332488      -1.03077231      -0.88152485
H       -1.12095665       1.26378347      -0.80195128
H        1.24600388       1.34861939      -0.59352652
H        2.55230771      -0.58262541       0.24712671
H        1.03491868      -1.08696178       1.10887364
H        0.96895610      -0.11529189      -1.73942967
14
Frame=2 idx=003750 GeodesicLength=0.10031764545283159 rxn_smarts="[C:1]([C@@:2]1([H:10])[O:3][C@@:4]2([H:11])[C:5]([H:12])([H:13])[C@@:6]12[H:14])([H:7])([H:8])[H:9]>>[C:1]([C@@:2]1([H:10])[O+:3]=[C-:4][C:5]([H:12])([H:13])[C:6]1([H:11])[H:14])([H:7])([H:8])[H:9]"
C       -1.64159422      -0.62297810       0.06713667
C       -0.65494159       0.49211170      -0.18345649
O       -0.16663511       1.14237695       1.00333219
C        1.22297889       1.08662141       0.77122403
C        1.51080927      -0.36647664       0.45276603
C        0.73135796       0.14211651      -0.71238372
H       -2.50242976      -0.23799217       0.61533657
H       -1.19975851      -1.43230729       0.64824927
H       -1.99559399      -1.02861040      -0.88341238
H       -1.12240095       1.26637865      -0.80112370
H        1.25924449       1.35743055      -0.59797470
H        2.55601118      -0.57346699       0.24849936
H        1.04485836      -1.09224253       1.10845248
H        0.95809398      -0.13296164      -1.73664560
14
Frame=3 idx=003750 GeodesicLength=0.15045250307625904 rxn_smarts="[C:1]([C@@:2]1([H:10])[O:3][C@@:4]2([H:11])[C:5]([H:12])([H:13])[C@@:6]12[H:14])([H:7])([H:8])[H:9]>>[C:1]([C@@:2]1([H:10])[O+:3]=[C-:4][C:5]([H:12])([H:13])[C:6]1([H:11])[H:14])([H:7])([H:8])[H:9]"
C       -1.64312060      -0.62156442       0.06520759
C       -0.65622238       0.49288038      -0.18536287
O       -0.16927933       1.13972380       1.00658209
C        1.21659277       1.08283148       0.77719458
C        1.51248724      -0.36552637       0.45290859
C        0.73096411       0.14449505      -0.71288582
H       -2.50305386      -0.23724365       0.61530520
H       -1.20101462      -1.43200030       0.64467519
H       -1.99790830      -1.02642478      -0.88531190
H       -1.12387082       1.26895862      -0.80028833
H        1.27276631       1.36624547      -0.60241055
H        2.55963880      -0.56425491       0.24985578
H        1.05492481      -1.09744511       1.10796993
H        0.94709587      -0.15067527      -1.73343949
14
Frame=4 idx=003750 GeodesicLength=0.20063001149066517 rxn_smarts="[C:1]([C@@:2]1([H:10])[O:3][C@@:4]2([H:11])[C:5]([H:12])([H:13])[C@@:6]12[H:14])([H:7])([H:8])[H:9]>>[C:1]([C@@:2]1([H:10])[O+:3]=[C-:4][C:5]([H:12])([H:13])[C:6]1([H:11])[H:14])([H:7])([H:8])[H:9]"
C       -1.64467293      -0.62016387       0.06325889
C       -0.65752323       0.49364378      -0.18729100
O       -0.17195498       1.13703185       1.00982497
C        1.21018197       1.07900710       0.78307450
C        1.51414539      -0.36455522       0.45300982
C        0.73055978       0.14690503      -0.71347443
H       -2.50367792      -0.23653013       0.61530483
H       -1.20226794      -1.43173653       0.64101997
H       -2.00029201      -1.02421226      -0.88723853
H       -1.12536146       1.27154235      -0.79945511
H        1.28658153       1.37508126      -0.60685180
H        2.56319222      -0.55498728       0.25120444
H        1.06511934      -1.10258181       1.10744442
H        0.93597024      -0.16844428      -1.72983099
14
Frame=5 idx=003750 GeodesicLength=0.2507919838675813 rxn_smarts="[C:1]([C@@:2]1([H:10])[O:3][C@@:4]2([H:11])[C:5]([H:12])([H:13])[C@@:6]12[H:14])([H:7])([H:8])[H:9]>>[C:1]([C@@:2]1([H:10])[O+:3]=[C-:4][C:5]([H:12])([H:13])[C:6]1([H:11])[H:14])([H:7])([H:8])[H:9]"
C       -1.64624920      -0.61876823       0.06128772
C       -0.65884716       0.49439540      -0.18923875
O       -0.17466808       1.13428375       1.01304901
C        1.20373946       1.07513482       0.78885378
C        1.51578639      -0.36355961       0.45306568
C        0.73014226       0.14934104      -0.71413975
H       -2.50430151      -0.23584762       0.61532422
H       -1.20351091      -1.43149915       0.63727147
H       -2.00274440      -1.02195609      -0.88918378
H       -1.12688001       1.27411683      -0.79861249
H        1.30069032       1.38391647      -0.61129349
H        2.56667475      -0.54565396       0.25254598
H        1.07545520      -1.10763839       1.10686687
H        0.92471290      -0.18626525      -1.72579647
14
Frame=6 idx=003750 GeodesicLength=0.30099135516448766 rxn_smarts="[C:1]([C@@:2]1([H:10])[O:3][C@@:4]2([H:11])[C:5]([H:12])([H:13])[C@@:6]12[H:14])([H:7])([H:8])[H:9]>>[C:1]([C@@:2]1([H:10])[O+:3]=[C-:4][C:5]([H:12])([H:13])[C:6]1([H:11])[H:14])([H:7])([H:8])[H:9]"
C       -1.64785673      -0.61738714       0.05929876
C       -0.66019411       0.49513603      -0.19120928
O       -0.17741422       1.13149141       1.01626105
C        1.19727049       1.07122304       0.79453760
C        1.51740729      -0.36254542       0.45307921
C        0.72970999       0.15179677      -0.71489272
H       -2.50492982      -0.23519939       0.61537395
H       -1.20475656      -1.43130312       0.63344488
H       -2.00527486      -1.01967421      -0.89115130
H       -1.12842271       1.27668855      -0.79777166
H        1.31510798       1.39275853      -0.61575175
H        2.57008216      -0.53626506       0.25388032
H        1.08592652      -1.11262315       1.10624937
H        0.91334458      -0.20409685      -1.72134844
14
Frame=7 idx=003750 GeodesicLength=0.3511872925117703 rxn_smarts="[C:1]([C@@:2]1([H:10])[O:3][C@@:4]2([H:11])[C:5]([H:12])([H:13])[C@@:6]12[H:14])([H:7])([H:8])[H:9]>>[C:1]([C@@:2]1([H:10])[O+:3]=[C-:4][C:5]([H:12])([H:13])[C:6]1([H:11])[H:14])([H:7])([H:8])[H:9]"
C       -1.64949500      -0.61601529       0.05729243
C       -0.66156749       0.49585644      -0.19320323
O       -0.18019679       1.12864301       1.01944437
C        1.19077120       1.06725566       0.80011497
C        1.51900784      -0.36151298       0.45304562
C        0.72925890       0.15426077      -0.71572860
H       -2.50556278      -0.23458015       0.61544534
H       -1.20600284      -1.43113145       0.62954113
H       -2.00788111      -1.01736133      -0.89312870
H       -1.12999625       1.27923821      -0.79692889
H        1.32983600       1.40158639      -0.62022856
H        2.57341291      -0.52682217       0.25520440
H        1.09653821      -1.11752300       1.10558224
H        0.90187721      -0.22189411      -1.71645252
14
Frame=8 idx=003750 GeodesicLength=0.40141449580427757 rxn_smarts="[C:1]([C@@:2]1([H:10])[O:3][C@@:4]2([H:11])[C:5]([H:12])([H:13])[C@@:6]12[H:14])([H:7])([H:8])[H:9]>>[C:1]([C@@:2]1([H:10])[O+:3]=[C-:4][C:5]([H:12])([H:13])[C:6]1([H:11])[H:14])([H:7])([H:8])[H:9]"
C       -1.65117026      -0.61465740       0.05527068
C       -0.66296825       0.49656018      -0.19521884
O       -0.18301470       1.12574226       1.02261126
C        1.18424166       1.06324230       0.80559049
C        1.52058885      -0.36046410       0.45296948
C        0.72878568       0.15672929      -0.71664914
H       -2.50620457      -0.23399383       0.61554702
H       -1.20725741      -1.43099955       0.62555659
H       -2.01057358      -1.01501820      -0.89512251
H       -1.13159713       1.28177749      -0.79608594
H        1.34488600       1.41040229      -0.62473710
H        2.57666899      -0.51731812       0.25652287
H        1.10729487      -1.12234409       1.10487697
H        0.89031985      -0.23965850      -1.71113184
14
Frame=9 idx=003750 GeodesicLength=0.4516683394345696 rxn_smarts="[C:1]([C@@:2]1([H:10])[O:3][C@@:4]2([H:11])[C:5]([H:12])([H:13])[C@@:6]12[H:14])([H:7])([H:8])[H:9]>>[C:1]([C@@:2]1([H:10])[O+:3]=[C-:4][C:5]([H:12])([H:13])[C:6]1([H:11])[H:14])([H:7])([H:8])[H:9]"
C       -1.65288628      -0.61331170       0.05323132
C       -0.66439809       0.49724318      -0.19725714
O       -0.18587056       1.12278410       1.02575702
C        1.17768014       1.05918074       0.81095952
C        1.52215344      -0.35939667       0.45285331
C        0.72828926       0.15919139      -0.71765193
H       -2.50685184      -0.23344416       0.61569040
H       -1.20851927      -1.43091322       0.62147254
H       -2.01336916      -1.01262775      -0.89713414
H       -1.13322687       1.28429983      -0.79524394
H        1.36026821       1.41919380      -0.62928321
H        2.57985438      -0.50774175       0.25784098
H        1.11820506      -1.12707824       1.10413677
H        0.87867158      -0.25737956      -1.70537150
14
Frame=10 idx=003750 GeodesicLength=0.5019781805404328 rxn_smarts="[C:1]([C@@:2]1([H:10])[O:3][C@@:4]2([H:11])[C:5]([H:12])([H:13])[C@@:6]12[H:14])([H:7])([H:8])[H:9]>>[C:1]([C@@:2]1([H:10])[O+:3]=[C-:4][C:5]([H:12])([H:13])[C:6]1([H:11])[H:14])([H:7])([H:8])[H:9]"
C       -1.65464784      -0.61198010       0.05117513
C       -0.66586013       0.49790358      -0.19931707
O       -0.18876512       1.11976710       1.02888305
C        1.17108311       1.05507217       0.81622130
C        1.52370149      -0.35830967       0.45269801
C        0.72776187       0.16163795      -0.71873765
H       -2.50750288      -0.23293564       0.61588553
H       -1.20979481      -1.43088012       0.61728098
H       -2.01628241      -1.01018098      -0.89916398
H       -1.13488674       1.28680598      -0.79440028
H        1.37599387       1.42795393      -0.63388854
H        2.58296959      -0.49808563       0.25916348
H        1.12927242      -1.13172522       1.10335746
H        0.86695757      -0.27504334      -1.69915740
14
Frame=11 idx=003750 GeodesicLength=0.5522625025784687 rxn_smarts="[C:1]([C@@:2]1([H:10])[O:3][C@@:4]2([H:11])[C:5]([H:12])([H:13])[C@@:6]12[H:14])([H:7])([H:8])[H:9]>>[C:1]([C@@:2]1([H:10])[O+:3]=[C-:4][C:5]([H:12])([H:13])[C:6]1([H:11])[H:14])([H:7])([H:8])[H:9]"
C       -1.65645600      -0.61066222       0.04910122
C       -0.66735732       0.49853881      -0.20139536
O       -0.19170383       1.11668690       1.03198763
C        1.16444789       1.05092167       0.82136962
C        1.52523555      -0.35719925       0.45251248
C        0.72720589       0.16407005      -0.71989156
H       -2.50815876      -0.23247302       0.61613338
H       -1.21108125      -1.43089896       0.61297041
H       -2.01931503      -1.00766712      -0.90121183
H       -1.13658013       1.28928997      -0.79355097
H        1.39208263       1.43664708      -0.63853685
H        2.58601666      -0.48833974       0.26049347
H        1.14050534      -1.13627235       1.10255803
H        0.85515836      -0.29264182      -1.69253967
14
Frame=12 idx=003750 GeodesicLength=0.6025996561668007 rxn_smarts="[C:1]([C@@:2]1([H:10])[O:3][C@@:4]2([H:11])[C:5]([H:12])([H:13])[C@@:6]12[H:14])([H:7])([H:8])[H:9]>>[C:1]([C@@:2]1([H:10])[O+:3]=[C-:4][C:5]([H:12])([H:13])[C:6]1([H:11])[H:14])([H:7])([H:8])[H:9]"
C       -1.65831657      -0.60936206       0.04701726
C       -0.66889232       0.49914552      -0.20349324
O       -0.19468144       1.11354344       1.03507076
C        1.15777779       1.04671700       0.82640766
C        1.52675105      -0.35607675       0.45229008
C        0.72661043       0.16646798      -0.72112527
H       -2.50883209      -0.23204568       0.61642130
H       -1.21239179      -1.43096480       0.60857546
H       -2.02245986      -1.00511659      -0.90326876
H       -1.13830661       1.29174981      -0.79270267
H        1.40853456       1.44528911      -0.64325627
H        2.58898654      -0.47852383       0.26182277
H        1.15189997      -1.14072439       1.10173339
H        0.84332034      -0.31009878      -1.68549247
14
Frame=13 idx=003750 GeodesicLength=0.652964433939966 rxn_smarts="[C:1]([C@@:2]1([H:10])[O:3][C@@:4]2([H:11])[C:5]([H:12])([H:13])[C@@:6]12[H:14])([H:7])([H:8])[H:9]>>[C:1]([C@@:2]1([H:10])[O+:3]=[C-:4][C:5]([H:12])([H:13])[C:6]1([H:11])[H:14])([H:7])([H:8])[H:9]"
C       -1.66023083      -0.60808135       0.04492806
C       -0.67046837       0.49972168      -0.20560809
O       -0.19769931       1.11033798       1.03813031
C        1.15107200       1.04245457       0.83133467
C        1.52824472      -0.35494604       0.45203215
C        0.72597221       0.16882753      -0.72243334
H       -2.50953067      -0.23165235       0.61674121
H       -1.21373251      -1.43106920       0.60411465
H       -2.02570499      -1.00254388      -0.90532698
H       -1.14006982       1.29418011      -0.79185406
H        1.42535687       1.45386316      -0.64805337
H        2.59187368      -0.46865009       0.26314928
H        1.16345376      -1.14507790       1.10088874
H        0.83146326      -0.32736421      -1.67804322
14
Frame=14 idx=003750 GeodesicLength=0.7033519452574591 rxn_smarts="[C:1]([C@@:2]1([H:10])[O:3][C@@:4]2([H:11])[C:5]([H:12])([H:13])[C@@:6]12[H:14])([H:7])([H:8])[H:9]>>[C:1]([C@@:2]1([H:10])[O+:3]=[C-:4][C:5]([H:12])([H:13])[C:6]1([H:11])[H:14])([H:7])([H:8])[H:9]"
C       -1.66220042      -0.60682297       0.04283905
C       -0.67208886       0.50026507      -0.20773770
O       -0.20075734       1.10707283       1.04116512
C        1.14433090       1.03813056       0.83615144
C        1.52971280      -0.35381227       0.45174060
C        0.72528588       0.17114123      -0.72381241
H       -2.51026164      -0.23129124       0.61708701
H       -1.21510953      -1.43120682       0.59960928
H       -2.02904003      -0.99996609      -0.90737984
H       -1.14187308       1.29657624      -0.79100651
H        1.44255971       1.46235921      -0.65293554
H        2.59467135      -0.45873237       0.26447088
H        1.17516106      -1.14932883       1.10003053
H        0.81960922      -0.34438454      -1.67022191
14
Frame=15 idx=003750 GeodesicLength=0.7537555081573244 rxn_smarts="[C:1]([C@@:2]1([H:10])[O:3][C@@:4]2([H:11])[C:5]([H:12])([H:13])[C@@:6]12[H:14])([H:7])([H:8])[H:9]>>[C:1]([C@@:2]1([H:10])[O+:3]=[C-:4][C:5]([H:12])([H:13])[C:6]1([H:11])[H:14])([H:7])([H:8])[H:9]"
C       -1.66422700      -0.60558961       0.04075532
C       -0.67375737       0.50077400      -0.20987925
O       -0.20385588       1.10375022       1.04417471
C        1.13755430       1.03374199       0.84085956
C        1.53115161      -0.35267944       0.45141744
C        0.72454616       0.17340337      -0.72525806
H       -2.51103182      -0.23096163       0.61745337
H       -1.21652878      -1.43137271       0.59507832
H       -2.03245528      -0.99739856      -0.90942098
H       -1.14371986       1.29893420      -0.79015989
H        1.46015409       1.47076632      -0.65791091
H        2.59737358      -0.44878257       0.26578618
H        1.18701615      -1.15347316       1.09916405
H        0.80778008      -0.36111242      -1.66205985
14
Frame=16 idx=003750 GeodesicLength=0.8041692662956021 rxn_smarts="[C:1]([C@@:2]1([H:10])[O:3][C@@:4]2([H:11])[C:5]([H:12])([H:13])[C@@:6]12[H:14])([H:7])([H:8])[H:9]>>[C:1]([C@@:2]1([H:10])[O+:3]=[C-:4][C:5]([H:12])([H:13])[C:6]1([H:11])[H:14])([H:7])([H:8])[H:9]"
C       -1.66631185      -0.60438390       0.03868150
C       -0.67547740       0.50124727      -0.21202974
O       -0.20699549       1.10037265       1.04715933
C        1.13074184       1.02928626       0.84546155
C        1.53255769      -0.35155110       0.45106495
C        0.72374802       0.17560920      -0.72676556
H       -2.51184732      -0.23066323       0.61783574
H       -1.21799520      -1.43156281       0.59053911
H       -2.03594141      -0.99485542      -0.91144504
H       -1.14561367       1.30125083      -0.78931374
H        1.47815135       1.47907432      -0.66298754
H        2.59997501      -0.43881142       0.26709448
H        1.19901318      -1.15750690       1.09829437
H        0.79599525      -0.37750573      -1.65358940
