15
Frame=0 idx=010628 GeodesicLength=0.0 rxn_smarts="[O:1]=[C:2]1[C:3]([H:8])([H:9])[C:4]([H:10])([H:11])[C@@:5]2([H:12])[C:6]([H:13])([H:14])[C@@:7]12[H:15]>>[O:1]=[C:2]([C:3]([C:4](=[C:5]([H:10])[H:12])[H:11])([H:8])[H:9])[C:7](=[C:6]([H:13])[H:14])[H:15]"
O       -0.02718183       2.51786464      -0.22518495
C       -0.14807722       1.33910169      -0.07222321
C       -1.44456567       0.54590425      -0.33446936
C       -1.07798595      -0.85994374       0.01038876
C        0.16391044      -0.90723705       0.74066368
C        1.73536488      -0.23462545      -0.64322602
C        0.94078117       0.36888020       0.40721769
H       -1.79489423       0.65357615      -1.36409649
H       -2.21805346       0.99350346       0.29806642
H       -0.77995261      -0.76796372       1.46445203
H       -1.60305531      -1.73320544      -0.35423800
H        0.66711829      -1.83383575       0.98361134
H        1.24206494      -0.76559209      -1.44621549
H        2.80997930      -0.12919656      -0.66709104
H        1.53454720       0.81276945       1.20234461
15
Frame=1 idx=010628 GeodesicLength=0.09987683941226504 rxn_smarts="[O:1]=[C:2]1[C:3]([H:8])([H:9])[C:4]([H:10])([H:11])[C@@:5]2([H:12])[C:6]([H:13])([H:14])[C@@:7]12[H:15]>>[O:1]=[C:2]([C:3]([C:4](=[C:5]([H:10])[H:12])[H:11])([H:8])[H:9])[C:7](=[C:6]([H:13])[H:14])[H:15]"
O       -0.04763266       2.52916484      -0.17526262
C       -0.14945942       1.34374293      -0.06071180
C       -1.43418455       0.54134757      -0.34357451
C       -1.08179215      -0.86218100       0.02964944
C        0.16633150      -0.91603634       0.74468593
C        1.72167450      -0.23813928      -0.64935399
C        0.95233688       0.38597025       0.40423127
H       -1.75183231       0.63384902      -1.38525624
H       -2.22736632       0.99092745       0.26193881
H       -0.78301647      -0.76230087       1.48033210
H       -1.59804101      -1.73439692      -0.35031793
H        0.65946263      -1.84573111       0.99626198
H        1.21726586      -0.73956250      -1.46434713
H        2.79858208      -0.15831005      -0.67755020
H        1.55767144       0.83165600       1.18927490
15
Frame=2 idx=010628 GeodesicLength=0.1997310083892016 rxn_smarts="[O:1]=[C:2]1[C:3]([H:8])([H:9])[C:4]([H:10])([H:11])[C@@:5]2([H:12])[C:6]([H:13])([H:14])[C@@:7]12[H:15]>>[O:1]=[C:2]([C:3]([C:4](=[C:5]([H:10])[H:12])[H:11])([H:8])[H:9])[C:7](=[C:6]([H:13])[H:14])[H:15]"
O       -0.06892240       2.53890004      -0.12534083
C       -0.15078346       1.34828300      -0.04980495
C       -1.42365268       0.53687081      -0.35232285
C       -1.08555449      -0.86404783       0.04827720
C        0.16854066      -0.92520182       0.74819545
C        1.70815593      -0.24176350      -0.65506361
C        0.96408718       0.40348743       0.40040946
H       -1.70897624       0.61454265      -1.40455147
H       -2.23546508       0.98808828       0.22600446
H       -0.78637651      -0.75679210       1.49572351
H       -1.59340345      -1.73492831      -0.34654882
H        0.65108972      -1.85791511       1.00893647
H        1.19383537      -0.71389800      -1.48133169
H        2.78671292      -0.18699506      -0.68762937
H        1.58071254       0.85136951       1.17504703
15
Frame=3 idx=010628 GeodesicLength=0.29956172911186113 rxn_smarts="[O:1]=[C:2]1[C:3]([H:8])([H:9])[C:4]([H:10])([H:11])[C@@:5]2([H:12])[C:6]([H:13])([H:14])[C@@:7]12[H:15]>>[O:1]=[C:2]([C:3]([C:4](=[C:5]([H:10])[H:12])[H:11])([H:8])[H:9])[C:7](=[C:6]([H:13])[H:14])[H:15]"
O       -0.09094796       2.54699731      -0.07538968
C       -0.15202685       1.35273050      -0.03952305
C       -1.41299670       0.53248431      -0.36071237
C       -1.08924781      -0.86557689       0.06623655
C        0.17053148      -0.93475458       0.75119487
C        1.69484407      -0.24550263      -0.66033484
C        0.97604014       0.42145647       0.39571129
H       -1.66649320       0.59568831      -1.42205792
H       -2.24235557       0.98499594       0.19038647
H       -0.79006210      -0.75144052       1.51060885
H       -1.58920345      -1.73482490      -0.34289135
H        0.64197811      -1.87038009       1.02165617
H        1.17183954      -0.68864816      -1.49723510
H        2.77443777      -0.21518573      -0.69726171
H        1.60366250       0.87196066       1.15961183
15
Frame=4 idx=010628 GeodesicLength=0.39937045851247793 rxn_smarts="[O:1]=[C:2]1[C:3]([H:8])([H:9])[C:4]([H:10])([H:11])[C@@:5]2([H:12])[C:6]([H:13])([H:14])[C@@:7]12[H:15]>>[O:1]=[C:2]([C:3]([C:4](=[C:5]([H:10])[H:12])[H:11])([H:8])[H:9])[C:7](=[C:6]([H:13])[H:14])[H:15]"
O       -0.11361863       2.55337232      -0.02535335
C       -0.15317613       1.35710048      -0.02986116
C       -1.40223658       0.52819590      -0.36875008
C       -1.09285320      -0.86679949       0.08351136
C        0.17229851      -0.94471337       0.75369532
C        1.68175758      -0.24935064      -0.66515827
C        0.98820253       0.43990653       0.39009337
H       -1.62450578       0.57731491      -1.43785928
H       -2.24806168       0.98166192       0.15517398
H       -0.79409826      -0.74623973       1.52498341
H       -1.58548590      -1.73411898      -0.33931602
H        0.63211181      -1.88311411       1.03444110
H        1.15131977      -0.66385358      -1.51212382
H        2.76181725      -0.24284612      -0.70638171
H        1.62652869       0.89348395       1.14290516
15
Frame=5 idx=010628 GeodesicLength=0.4991695388617099 rxn_smarts="[O:1]=[C:2]1[C:3]([H:8])([H:9])[C:4]([H:10])([H:11])[C@@:5]2([H:12])[C:6]([H:13])([H:14])[C@@:7]12[H:15]>>[O:1]=[C:2]([C:3]([C:4](=[C:5]([H:10])[H:12])[H:11])([H:8])[H:9])[C:7](=[C:6]([H:13])[H:14])[H:15]"
O       -0.13686479       2.55794130       0.02488494
C       -0.15422055       1.36141598      -0.02079733
C       -1.39138217       0.52401077      -0.37645335
C       -1.09635699      -0.86774402       0.10010108
C        0.17383390      -0.95509430       0.75571486
C        1.66890261      -0.25330263      -0.66953161
C        1.00058789       0.45887115       0.38350770
H       -1.58310392       0.55944081      -1.45205297
H       -2.25262275       0.97809441       0.12040985
H       -0.79850751      -0.74116587       1.53885207
H       -1.58228326      -1.73283843      -0.33580368
H        0.62147435      -1.89609829       1.04732134
H        1.13229650      -0.63957856      -1.52605618
H        2.74890650      -0.26994064      -0.71494498
H        1.64934019       0.91598832       1.12484826
15
Frame=6 idx=010628 GeodesicLength=0.5989533142958284 rxn_smarts="[O:1]=[C:2]1[C:3]([H:8])([H:9])[C:4]([H:10])([H:11])[C@@:5]2([H:12])[C:6]([H:13])([H:14])[C@@:7]12[H:15]>>[O:1]=[C:2]([C:3]([C:4](=[C:5]([H:10])[H:12])[H:11])([H:8])[H:9])[C:7](=[C:6]([H:13])[H:14])[H:15]"
O       -0.16057853       2.56059792       0.07534079
C       -0.15515339       1.36568886      -0.01229164
C       -1.38044591       0.51993478      -0.38382290
C       -1.09975269      -0.86844074       0.11601308
C        0.17512712      -0.96592669       0.75727105
C        1.65628576      -0.25734440      -0.67343759
C        1.01319632       0.47837779       0.37591398
H       -1.54236930       0.54209271      -1.46472422
H       -2.25606363       0.97432615       0.08615977
H       -0.80330978      -0.73622172       1.55222858
H       -1.57961484      -1.73102229      -0.33235494
H        0.61004703      -1.90932538       1.06031887
H        1.11478663      -0.61584044      -1.53908072
H        2.73574786      -0.29642182      -0.72290557
H        1.67209737       0.93952526       1.10537145
15
Frame=7 idx=010628 GeodesicLength=0.6987205624084644 rxn_smarts="[O:1]=[C:2]1[C:3]([H:8])([H:9])[C:4]([H:10])([H:11])[C@@:5]2([H:12])[C:6]([H:13])([H:14])[C@@:7]12[H:15]>>[O:1]=[C:2]([C:3]([C:4](=[C:5]([H:10])[H:12])[H:11])([H:8])[H:9])[C:7](=[C:6]([H:13])[H:14])[H:15]"
O       -0.18465271       2.56123737       0.12602259
C       -0.15597683       1.36993445      -0.00428084
C       -1.36943533       0.51597187      -0.39086123
C       -1.10304125      -0.86891952       0.13126354
C        0.17616407      -0.97724283       0.75838558
C        1.64390566      -0.26145363      -0.67685574
C        1.02602847       0.49845697       0.36727162
H       -1.50235555       0.52529206      -1.47595676
H       -2.25841043       0.97038562       0.05247008
H       -0.80852444      -0.73141153       1.56513116
H       -1.57749896      -1.72870061      -0.32897459
H        0.59781333      -1.92279365       1.07344602
H        1.09879685      -0.59266246      -1.55123244
H        2.72238019      -0.32224185      -0.73022604
H        1.69480694       0.96414776       1.08439705
15
Frame=8 idx=010628 GeodesicLength=0.798495325225126 rxn_smarts="[O:1]=[C:2]1[C:3]([H:8])([H:9])[C:4]([H:10])([H:11])[C@@:5]2([H:12])[C:6]([H:13])([H:14])[C@@:7]12[H:15]>>[O:1]=[C:2]([C:3]([C:4](=[C:5]([H:10])[H:12])[H:11])([H:8])[H:9])[C:7](=[C:6]([H:13])[H:14])[H:15]"
O       -0.20897287       2.55975869       0.17699600
C       -0.15669848       1.37416791       0.00330528
C       -1.35835779       0.51212214      -0.39757267
C       -1.10622681      -0.86920866       0.14588069
C        0.17693050      -0.98907464       0.75907287
C        1.63175235      -0.26560074      -0.67977537
C        1.03908549       0.51915360       0.35752417
H       -1.46309117       0.50905194      -1.48584027
H       -2.25971412       0.96629990       0.01936290
H       -0.81416197      -0.72673104       1.57758444
H       -1.57595009      -1.72591685      -0.32568515
H        0.58475847      -1.93648794       1.08671833
H        1.08429432      -0.57008567      -1.56255714
H        2.70886106      -0.34737796      -0.73683134
H        1.71749111       0.98992931       1.06181726
15
Frame=9 idx=010628 GeodesicLength=0.8985172239320619 rxn_smarts="[O:1]=[C:2]1[C:3]([H:8])([H:9])[C:4]([H:10])([H:11])[C@@:5]2([H:12])[C:6]([H:13])([H:14])[C@@:7]12[H:15]>>[O:1]=[C:2]([C:3]([C:4](=[C:5]([H:10])[H:12])[H:11])([H:8])[H:9])[C:7](=[C:6]([H:13])[H:14])[H:15]"
O       -0.23348608       2.55616314       0.22837592
C       -0.15732934       1.37841699       0.01051065
C       -1.34721071       0.50838117      -0.40394798
C       -1.10927630      -0.86933573       0.15984335
C        0.17742354      -1.00149158       0.75928070
C        1.61984431      -0.26973928      -0.68213005
C        1.05238382       0.54061085       0.34650993
H       -1.42465766       0.49340277      -1.49440443
H       -2.26002494       0.96207600      -0.01309240
H       -0.82021397      -0.72222725       1.58956529
H       -1.57500427      -1.72272172      -0.32250169
H        0.57087438      -1.95040445       1.10009490
H        1.07129403      -0.54813715      -1.57300404
H        2.69521913      -0.37202543      -0.74250830
H        1.74016406       1.01703168       1.03740817
15
Frame=10 idx=010628 GeodesicLength=0.9985491461416486 rxn_smarts="[O:1]=[C:2]1[C:3]([H:8])([H:9])[C:4]([H:10])([H:11])[C@@:5]2([H:12])[C:6]([H:13])([H:14])[C@@:7]12[H:15]>>[O:1]=[C:2]([C:3]([C:4](=[C:5]([H:10])[H:12])[H:11])([H:8])[H:9])[C:7](=[C:6]([H:13])[H:14])[H:15]"
O       -0.25790362       2.55025973       0.27996281
C       -0.15788101       1.38265632       0.01747336
C       -1.33601454       0.50475338      -0.40997099
C       -1.11224146      -0.86933911       0.17321784
C        0.17760655      -1.01451977       0.75907952
C        1.60814874      -0.27383384      -0.68391163
C        1.06587938       0.56277463       0.33426942
H       -1.38703144       0.47833141      -1.50176328
H       -2.25934510       0.95778813      -0.04483481
H       -0.82672692      -0.71791307       1.60113706
H       -1.57464431      -1.71911255      -0.31947343
H        0.55613513      -1.96456211       1.11360140
H        1.05977302      -0.52685961      -1.58263959
H        2.68148602      -0.39586880      -0.74732781
H        1.76275956       1.04544528       1.01118012
15
Frame=11 idx=010628 GeodesicLength=1.0985836718637902 rxn_smarts="[O:1]=[C:2]1[C:3]([H:8])([H:9])[C:4]([H:10])([H:11])[C@@:5]2([H:12])[C:6]([H:13])([H:14])[C@@:7]12[H:15]>>[O:1]=[C:2]([C:3]([C:4](=[C:5]([H:10])[H:12])[H:11])([H:8])[H:9])[C:7](=[C:6]([H:13])[H:14])[H:15]"
O       -0.28202832       2.54200087       0.33170747
C       -0.15836965       1.38687371       0.02428730
C       -1.32478275       0.50123527      -0.41562337
C       -1.11513903      -0.86925485       0.18602599
C        0.17745273      -1.02821546       0.75846092
C        1.59665506      -0.27783480      -0.68508044
C        1.07954766       0.58568929       0.32075373
H       -1.35021678       0.46384133      -1.50799001
H       -2.25771595       0.95347172      -0.07578383
H       -0.83372230      -0.71383098       1.61231656
H       -1.57487955      -1.71511779      -0.31664318
H        0.54052671      -1.97896612       1.12722311
H        1.04970677      -0.50630294      -1.59147027
H        2.66771020      -0.41885360      -0.75118764
H        1.78525520       1.07526434       0.98300366
15
Frame=12 idx=010628 GeodesicLength=1.1986253240613836 rxn_smarts="[O:1]=[C:2]1[C:3]([H:8])([H:9])[C:4]([H:10])([H:11])[C@@:5]2([H:12])[C:6]([H:13])([H:14])[C@@:7]12[H:15]>>[O:1]=[C:2]([C:3]([C:4](=[C:5]([H:10])[H:12])[H:11])([H:8])[H:9])[C:7](=[C:6]([H:13])[H:14])[H:15]"
O       -0.30564674       2.53136304       0.38349461
C       -0.15880851       1.39104853       0.03105348
C       -1.31352590       0.49782247      -0.42088167
C       -1.11798225      -0.86912449       0.19828631
C        0.17693710      -1.04264695       0.75741844
C        1.58536324      -0.28167721      -0.68557566
C        1.09336125       0.60940994       0.30589532
H       -1.31422361       0.44994048      -1.51313638
H       -2.25516357       0.94917365      -0.10584326
H       -0.84121739      -0.71004393       1.62312077
H       -1.57573049      -1.71076280      -0.31405121
H        0.52403312      -1.99365046       1.14091613
H        1.04108633      -0.48651065      -1.59947070
H        2.65392811      -0.44092353      -0.75398500
H        1.80758931       1.10658191       0.95275883
15
Frame=13 idx=010628 GeodesicLength=1.2986701648964623 rxn_smarts="[O:1]=[C:2]1[C:3]([H:8])([H:9])[C:4]([H:10])([H:11])[C@@:5]2([H:12])[C:6]([H:13])([H:14])[C@@:7]12[H:15]>>[O:1]=[C:2]([C:3]([C:4](=[C:5]([H:10])[H:12])[H:11])([H:8])[H:9])[C:7](=[C:6]([H:13])[H:14])[H:15]"
O       -0.32852804       2.51834367       0.43521145
C       -0.15921239       1.39515012       0.03789121
C       -1.30225434       0.49450874      -0.42571378
C       -1.12079165      -0.86899344       0.21001814
C        0.17602448      -1.05789199       0.75593169
C        1.57427094      -0.28529607      -0.68533132
C        1.10728593       0.63399009       0.28963103
H       -1.27904299       0.43664091      -1.51724947
H       -2.25173171       0.94494077      -0.13492653
H       -0.84923253      -0.70662749       1.63356723
H       -1.57721955      -1.70606567      -0.31174098
H        0.50663431      -2.00865301       1.15462606
H        1.03389281      -0.46755692      -1.60660761
H        2.64019413      -0.46200115      -0.75559402
H        1.82971060       1.13951144       0.92028692
15
Frame=14 idx=010628 GeodesicLength=1.3987140490322638 rxn_smarts="[O:1]=[C:2]1[C:3]([H:8])([H:9])[C:4]([H:10])([H:11])[C@@:5]2([H:12])[C:6]([H:13])([H:14])[C@@:7]12[H:15]>>[O:1]=[C:2]([C:3]([C:4](=[C:5]([H:10])[H:12])[H:11])([H:8])[H:9])[C:7](=[C:6]([H:13])[H:14])[H:15]"
O       -0.35045617       2.50296304       0.48681440
C       -0.15957716       1.39913755       0.04487341
C       -1.29097564       0.49128844      -0.43010457
C       -1.12358435      -0.86890317       0.22123509
C        0.17468363      -1.07403079       0.75397161
C        1.56339349      -0.28861881      -0.68426907
C        1.12128297       0.65949154       0.27187090
H       -1.24467738       0.42394485      -1.52036953
H       -2.24743564       0.94082657      -0.16294484
H       -0.85778082      -0.70364855       1.64366423
H       -1.57938625      -1.70104899      -0.30974742
H        0.48831130      -2.02401271       1.16829646
H        1.02810782      -0.44953825      -1.61284219
H        2.62656126      -0.48201960      -0.75587054
H        1.85153293       1.17416888       0.88542208
15
Frame=15 idx=010628 GeodesicLength=1.4987595610729214 rxn_smarts="[O:1]=[C:2]1[C:3]([H:8])([H:9])[C:4]([H:10])([H:11])[C@@:5]2([H:12])[C:6]([H:13])([H:14])[C@@:7]12[H:15]>>[O:1]=[C:2]([C:3]([C:4](=[C:5]([H:10])[H:12])[H:11])([H:8])[H:9])[C:7](=[C:6]([H:13])[H:14])[H:15]"
O       -0.37121104       2.48524116       0.53826609
C       -0.15989379       1.40296663       0.05209024
C       -1.27969168       0.48815803      -0.43402968
C       -1.12638002      -0.86889533       0.23195033
C        0.17287521      -1.09115396       0.75149687
C        1.55274621      -0.29157209      -0.68230024
C        1.13530788       0.68598320       0.25250661
H       -1.21111207       0.41185596      -1.52253446
H       -2.24230507       0.93689282      -0.18981567
H       -0.86687316      -0.70118347       1.65342141
H       -1.58227575      -1.69571983      -0.30810397
H        0.46904128      -2.03978057       1.18185457
H        1.02371805      -0.43257675      -1.61811408
H        2.61309351      -0.50089917      -0.75464750
H        1.87296044       1.21068338       0.84795949
15
Frame=16 idx=010628 GeodesicLength=1.5987998527529972 rxn_smarts="[O:1]=[C:2]1[C:3]([H:8])([H:9])[C:4]([H:10])([H:11])[C@@:5]2([H:12])[C:6]([H:13])([H:14])[C@@:7]12[H:15]>>[O:1]=[C:2]([C:3]([C:4](=[C:5]([H:10])[H:12])[H:11])([H:8])[H:9])[C:7](=[C:6]([H:13])[H:14])[H:15]"
O       -0.39054849       2.46520487       0.58952245
C       -0.16014469       1.40658517       0.05963630
C       -1.26840225       0.48511582      -0.43746449
C       -1.12920240      -0.86901298       0.24217131
C        0.17055020      -1.10936514       0.74845379
C        1.54235678      -0.29407409      -0.67931435
C        1.14930303       0.71353316       0.23142067
H       -1.17833170       0.40037733      -1.52377188
H       -2.23635933       0.93320452      -0.21544375
H       -0.87652433      -0.69932237       1.66284370
H       -1.58594570      -1.69007770      -0.30684300
H        0.44879356      -2.05602270       1.19521112
H        1.02071662      -0.41681315      -1.62234699
H        2.59985898      -0.51853981      -0.75173189
H        1.89387973       1.24920709       0.80765703
