11
Frame=0 idx=003744 GeodesicLength=0.0 rxn_smarts="[C:1]([C@@:2]([N:3]([H:10])[H:11])([C:4]#[N:5])[H:9])([H:6])([H:7])[H:8]>>[C:1]([C@@:2]1([H:9])[C:4]([N:3]([H:10])[H:11])=[N:5]1)([H:6])([H:7])[H:8]"
C        1.53529543      -0.03027559       0.08136096
C        0.23051798       0.10832280      -0.58532196
N       -1.50673017      -0.62435312       0.27530687
C       -0.93039800       0.73836559       0.00073177
N       -1.28539147       1.88326544       0.18021992
H        2.15703692       0.79651359      -0.28617364
H        1.45680572       0.07005072       1.16266522
H        2.04179915      -0.95413088      -0.19924077
H        0.17014571      -0.17116445      -1.63685924
H       -2.33714701      -0.89880201      -0.23653915
H       -1.53193424      -0.91779204       1.24384998
11
Frame=1 idx=003744 GeodesicLength=0.06118600937832393 rxn_smarts="[C:1]([C@@:2]([N:3]([H:10])[H:11])([C:4]#[N:5])[H:9])([H:6])([H:7])[H:8]>>[C:1]([C@@:2]1([H:9])[C:4]([N:3]([H:10])[H:11])=[N:5]1)([H:6])([H:7])[H:8]"
C        1.52983271      -0.02704601       0.08413872
C        0.21941986       0.10950608      -0.57700713
N       -1.50173896      -0.64227118       0.27288198
C       -0.93140513       0.73952340       0.02441079
N       -1.25743364       1.89895927       0.13517417
H        2.15311491       0.79725014      -0.28520542
H        1.45756255       0.07143464       1.16619940
H        2.03153943      -0.95380369      -0.19598130
H        0.16055684      -0.15358674      -1.63269460
H       -2.34507438      -0.89248354      -0.22947531
H       -1.51637419      -0.94748238       1.23755869
11
Frame=2 idx=003744 GeodesicLength=0.12310808791569766 rxn_smarts="[C:1]([C@@:2]([N:3]([H:10])[H:11])([C:4]#[N:5])[H:9])([H:6])([H:7])[H:8]>>[C:1]([C@@:2]1([H:9])[C:4]([N:3]([H:10])[H:11])=[N:5]1)([H:6])([H:7])[H:8]"
C        1.52390957      -0.02366682       0.08709143
C        0.20789710       0.11146193      -0.56884516
N       -1.49676388      -0.65919656       0.26978833
C       -0.93287783       0.74225394       0.04757475
N       -1.22821221       1.91199144       0.09107077
H        2.14924237       0.79757554      -0.28459681
H        1.45792787       0.07399519       1.16991753
H        2.02009016      -0.95404665      -0.19178030
H        0.15053629      -0.13648190      -1.62829599
H       -2.35258497      -0.88627637      -0.22194528
H       -1.49916447      -0.97760975       1.23002074
11
Frame=3 idx=003744 GeodesicLength=0.18441249652590425 rxn_smarts="[C:1]([C@@:2]([N:3]([H:10])[H:11])([C:4]#[N:5])[H:9])([H:6])([H:7])[H:8]>>[C:1]([C@@:2]1([H:9])[C:4]([N:3]([H:10])[H:11])=[N:5]1)([H:6])([H:7])[H:8]"
C        1.51721376      -0.02019254       0.08999431
C        0.19635574       0.11410473      -0.56106278
N       -1.49136009      -0.67488680       0.26600331
C       -0.93479567       0.74583807       0.06948285
N       -1.19841113       1.92176320       0.04916800
H        2.14528877       0.79696312      -0.28440037
H        1.45672923       0.07760743       1.17322917
H        2.00724427      -0.95445782      -0.18661784
H        0.14121144      -0.11985606      -1.62359638
H       -2.35912274      -0.87980184      -0.21314184
H       -1.48035358      -1.00708150       1.22094156
11
Frame=4 idx=003744 GeodesicLength=0.24615798611568113 rxn_smarts="[C:1]([C@@:2]([N:3]([H:10])[H:11])([C:4]#[N:5])[H:9])([H:6])([H:7])[H:8]>>[C:1]([C@@:2]1([H:9])[C:4]([N:3]([H:10])[H:11])=[N:5]1)([H:6])([H:7])[H:8]"
C        1.51019685      -0.01660358       0.09295970
C        0.18463708       0.11713074      -0.55396523
N       -1.48596037      -0.68973102       0.26152557
C       -0.93732951       0.75050974       0.08920268
N       -1.16773613       1.92944178       0.01066756
H        2.14158047       0.79596513      -0.28448783
H        1.45479812       0.08244845       1.17642649
H        1.99359036      -0.95530769      -0.18026456
H        0.13194767      -0.10421477      -1.61914314
H       -2.36538362      -0.87400209      -0.20365540
H       -1.46034092      -1.03563669       1.21073416
11
Frame=5 idx=003744 GeodesicLength=0.3082132623202788 rxn_smarts="[C:1]([C@@:2]([N:3]([H:10])[H:11])([C:4]#[N:5])[H:9])([H:6])([H:7])[H:8]>>[C:1]([C@@:2]1([H:9])[C:4]([N:3]([H:10])[H:11])=[N:5]1)([H:6])([H:7])[H:8]"
C        1.50282302      -0.01296718       0.09594095
C        0.17284382       0.12042546      -0.54767781
N       -1.48042203      -0.70389641       0.25640877
C       -0.94050339       0.75607665       0.10666439
N       -1.13643846       1.93544315      -0.02415896
H        2.13801144       0.79448127      -0.28496085
H        1.45193083       0.08848103       1.17957590
H        1.97920903      -0.95663777      -0.17274467
H        0.12300945      -0.08945259      -1.61524374
H       -2.37116047      -0.86889243      -0.19345690
H       -1.43930323      -1.06306118       1.19965292
11
Frame=6 idx=003744 GeodesicLength=0.37106124423427445 rxn_smarts="[C:1]([C@@:2]([N:3]([H:10])[H:11])([C:4]#[N:5])[H:9])([H:6])([H:7])[H:8]>>[C:1]([C@@:2]1([H:9])[C:4]([N:3]([H:10])[H:11])=[N:5]1)([H:6])([H:7])[H:8]"
C        1.49505326      -0.00929364       0.09887442
C        0.16104262       0.12392343      -0.54213557
N       -1.47472601      -0.71743807       0.25070363
C       -0.94414236       0.76254037       0.12194765
N       -1.10461825       1.93968373      -0.05515485
H        2.13449503       0.79233852      -0.28594294
H        1.44813036       0.09586508       1.18253221
H        1.96400111      -0.95840736      -0.16407426
H        0.11450084      -0.07547759      -1.61179866
H       -2.37629468      -0.86452013      -0.18276658
H       -1.41744192      -1.08921434       1.18781497
11
Frame=7 idx=003744 GeodesicLength=0.43341209221329935 rxn_smarts="[C:1]([C@@:2]([N:3]([H:10])[H:11])([C:4]#[N:5])[H:9])([H:6])([H:7])[H:8]>>[C:1]([C@@:2]1([H:9])[C:4]([N:3]([H:10])[H:11])=[N:5]1)([H:6])([H:7])[H:8]"
C        1.48698856      -0.00568893       0.10172187
C        0.14931774       0.12749650      -0.53721294
N       -1.46874802      -0.73039022       0.24457337
C       -0.94819045       0.76928815       0.13545114
N       -1.07289153       1.94279535      -0.08333909
H        2.13099698       0.78973216      -0.28696279
H        1.44334623       0.10361865       1.18521515
H        1.94836607      -0.96024507      -0.15482468
H        0.10651664      -0.06214604      -1.60867728
H       -2.38066391      -0.86066188      -0.17117736
H       -1.39503832      -1.11379866       1.17523261
11
Frame=8 idx=003744 GeodesicLength=0.4964607608905105 rxn_smarts="[C:1]([C@@:2]([N:3]([H:10])[H:11])([C:4]#[N:5])[H:9])([H:6])([H:7])[H:8]>>[C:1]([C@@:2]1([H:9])[C:4]([N:3]([H:10])[H:11])=[N:5]1)([H:6])([H:7])[H:8]"
C        1.47877041      -0.00213738       0.10452586
C        0.13759292       0.13116134      -0.53294063
N       -1.46270228      -0.74299557       0.23808263
C       -0.95251124       0.77678476       0.14716225
N       -1.04107225       1.94498203      -0.10866222
H        2.12760690       0.78683487      -0.28809158
H        1.43805373       0.11194117       1.18783526
H        1.93234935      -0.96237892      -0.14497285
H        0.09873177      -0.04945179      -1.60607301
H       -2.38450652      -0.85767079      -0.15924014
H       -1.37231278      -1.13706971       1.16237443
11
Frame=9 idx=003744 GeodesicLength=0.5592723372666656 rxn_smarts="[C:1]([C@@:2]([N:3]([H:10])[H:11])([C:4]#[N:5])[H:9])([H:6])([H:7])[H:8]>>[C:1]([C@@:2]1([H:9])[C:4]([N:3]([H:10])[H:11])=[N:5]1)([H:6])([H:7])[H:8]"
C        1.47037220       0.00130456       0.10722654
C        0.12594776       0.13483346      -0.52914729
N       -1.45644550      -0.75515977       0.23130416
C       -0.95708796       0.78456089       0.15746239
N       -1.00955167       1.94631644      -0.13172677
H        2.12421991       0.78357416      -0.28917324
H        1.43206602       0.12038103       1.19020855
H        1.91609581      -0.96451654      -0.13482788
H        0.09136296      -0.03726674      -1.60372233
H       -2.38757634      -0.85521738      -0.14669336
H       -1.34940319      -1.15881010       1.14908923
11
Frame=10 idx=003744 GeodesicLength=0.622368001544796 rxn_smarts="[C:1]([C@@:2]([N:3]([H:10])[H:11])([C:4]#[N:5])[H:9])([H:6])([H:7])[H:8]>>[C:1]([C@@:2]1([H:9])[C:4]([N:3]([H:10])[H:11])=[N:5]1)([H:6])([H:7])[H:8]"
C        1.46186798       0.00464463       0.10986789
C        0.11433481       0.13856665      -0.52585315
N       -1.45007637      -0.76706023       0.22424209
C       -0.96184863       0.79283041       0.16641782
N       -0.97827159       1.94703792      -0.15263654
H        2.12094053       0.77998932      -0.29029482
H        1.42565939       0.12911034       1.19248167
H        1.89954102      -0.96684803      -0.12427260
H        0.08421286      -0.02549862      -1.60176458
H       -2.39004717      -0.85343450      -0.13375414
H       -1.32631284      -1.17933789       1.13556638
11
Frame=11 idx=003744 GeodesicLength=0.6856425532381195 rxn_smarts="[C:1]([C@@:2]([N:3]([H:10])[H:11])([C:4]#[N:5])[H:9])([H:6])([H:7])[H:8]>>[C:1]([C@@:2]1([H:9])[C:4]([N:3]([H:10])[H:11])=[N:5]1)([H:6])([H:7])[H:8]"
C        1.45325677       0.00786835       0.11242770
C        0.10276938       0.14232671      -0.52297534
N       -1.44357079      -0.77869799       0.21693464
C       -0.96675986       0.80150113       0.17419674
N       -0.94730693       1.94714342      -0.17163821
H        2.11770562       0.77608331      -0.29140678
H        1.41882489       0.13799088       1.19460332
H        1.88274973      -0.96926956      -0.11345340
H        0.07732152      -0.01410690      -1.60009117
H       -2.39184339      -0.85221890      -0.12043794
H       -1.30314694      -1.19862045       1.12184043
11
Frame=12 idx=003744 GeodesicLength=0.749229582358317 rxn_smarts="[C:1]([C@@:2]([N:3]([H:10])[H:11])([C:4]#[N:5])[H:9])([H:6])([H:7])[H:8]>>[C:1]([C@@:2]1([H:9])[C:4]([N:3]([H:10])[H:11])=[N:5]1)([H:6])([H:7])[H:8]"
C        1.44458616       0.01097690       0.11491874
C        0.09123174       0.14613651      -0.52048012
N       -1.43698578      -0.79015670       0.20939809
C       -0.97179298       0.81061500       0.18090491
N       -0.91666528       1.94673852      -0.18889105
H        2.11457907       0.77185652      -0.29255563
H        1.41171068       0.14707333       1.19661021
H        1.86571451      -0.97182664      -0.10234243
H        0.07061436      -0.00300588      -1.59870528
H       -2.39304206      -0.85158603      -0.10684532
H       -1.27995042      -1.21682152       1.10798790
11
Frame=13 idx=003744 GeodesicLength=0.812598475517517 rxn_smarts="[C:1]([C@@:2]([N:3]([H:10])[H:11])([C:4]#[N:5])[H:9])([H:6])([H:7])[H:8]>>[C:1]([C@@:2]1([H:9])[C:4]([N:3]([H:10])[H:11])=[N:5]1)([H:6])([H:7])[H:8]"
C        1.43578524       0.01393167       0.11732143
C        0.07977032       0.14994234      -0.51826552
N       -1.43018821      -0.80129745       0.20167050
C       -0.97688093       0.81992371       0.18677842
N       -0.88661221       1.94579249      -0.20485900
H        2.11140614       0.76732141      -0.29351565
H        1.40410827       0.15595072       1.19841835
H        1.84850562      -0.97431048      -0.09122792
H        0.06423389       0.00778270      -1.59743786
H       -2.39343912      -0.85126862      -0.09274148
H       -1.25668899      -1.23376850       1.09385872
11
Frame=14 idx=003744 GeodesicLength=0.876268034672643 rxn_smarts="[C:1]([C@@:2]([N:3]([H:10])[H:11])([C:4]#[N:5])[H:9])([H:6])([H:7])[H:8]>>[C:1]([C@@:2]1([H:9])[C:4]([N:3]([H:10])[H:11])=[N:5]1)([H:6])([H:7])[H:8]"
C        1.42692934       0.01675577       0.11966939
C        0.06832692       0.15382681      -0.51636340
N       -1.42328734      -0.81231203       0.19371687
C       -0.98203359       0.82965969       0.19178473
N       -0.85699210       1.94446128      -0.21939518
H        2.10833780       0.76241192      -0.29451945
H        1.39630039       0.16502290       1.20011440
H        1.83099046      -0.97695962      -0.07981408
H        0.05799019       0.01837893      -1.59639954
H       -2.39321339      -0.85143108      -0.07837382
H       -1.23334869      -1.24981458       1.07958008
11
Frame=15 idx=003744 GeodesicLength=0.9400686421233044 rxn_smarts="[C:1]([C@@:2]([N:3]([H:10])[H:11])([C:4]#[N:5])[H:9])([H:6])([H:7])[H:8]>>[C:1]([C@@:2]1([H:9])[C:4]([N:3]([H:10])[H:11])=[N:5]1)([H:6])([H:7])[H:8]"
C        1.41800311       0.01944415       0.12198205
C        0.05690231       0.15780419      -0.51473349
N       -1.41627137      -0.82319147       0.18550976
C       -0.98723588       0.83972357       0.19607287
N       -0.82788655       1.94280998      -0.23274030
H        2.10539579       0.75705605      -0.29557571
H        1.38828442       0.17428648       1.20169920
H        1.81309895      -0.97975505      -0.06805106
H        0.05190605       0.02886488      -1.59555912
H       -2.39236532      -0.85196510      -0.06359565
H       -1.20983150      -1.26507769       1.06499145
11
Frame=16 idx=003744 GeodesicLength=1.0040161007783113 rxn_smarts="[C:1]([C@@:2]([N:3]([H:10])[H:11])([C:4]#[N:5])[H:9])([H:6])([H:7])[H:8]>>[C:1]([C@@:2]1([H:9])[C:4]([N:3]([H:10])[H:11])=[N:5]1)([H:6])([H:7])[H:8]"
C        1.40900363       0.02199083       0.12425289
C        0.04549223       0.16186842      -0.51333697
N       -1.40913232      -0.83394282       0.17706462
C       -0.99246483       0.85011394       0.19971280
N       -0.79931778       1.94083297      -0.24498709
H        2.10254511       0.75125176      -0.29666909
H        1.38007741       0.18370101       1.20315485
H        1.79484429      -0.98266450      -0.05599120
H        0.04597777       0.03924486      -1.59486709
H       -2.39084373      -0.85283938      -0.04845687
H       -1.18618179      -1.27955709       1.05012315
