13
Frame=0 idx=001550 GeodesicLength=0.0 rxn_smarts="[N:1](=[C:2]1/[C:3]([H:8])([H:9])[C:4]([H:10])([H:11])[C:5]([H:12])([H:13])[O:6]1)\[H:7]>>[N:1]([C:2]1=[O+:6][C-:5]([H:13])[C:4]([H:10])([H:11])[C:3]1([H:8])[H:9])([H:7])[H:12]"
N        1.34276242       0.83118883       1.01759398
C        1.19751173      -0.14153982       0.08810876
C        0.12081071      -1.14525456       0.41901826
C       -1.11455982      -0.41916133      -0.18625970
C       -0.48350116       0.77349072      -0.85950577
O        0.84463665       0.49915714      -1.08251831
H        1.90631887       1.59117799       0.63451582
H        0.28530613      -2.10256223      -0.06920184
H        0.06795289      -1.29640854       1.49473756
H       -1.91729541      -0.13616005       0.49266807
H       -1.53848213      -1.07627164      -0.94914433
H        0.27512521       1.34395466       0.68085608
H       -0.98658607       1.27838887      -1.68086861
13
Frame=1 idx=001550 GeodesicLength=0.08595418631872413 rxn_smarts="[N:1](=[C:2]1/[C:3]([H:8])([H:9])[C:4]([H:10])([H:11])[C:5]([H:12])([H:13])[O:6]1)\[H:7]>>[N:1]([C:2]1=[O+:6][C-:5]([H:13])[C:4]([H:10])([H:11])[C:3]1([H:8])[H:9])([H:7])[H:12]"
N        1.37291798       0.82419995       1.00963856
C        1.19436542      -0.13852248       0.07938997
C        0.11618834      -1.13711223       0.42033716
C       -1.11972590      -0.42717646      -0.19739132
C       -0.50019305       0.78826793      -0.84272534
O        0.83168586       0.50581316      -1.08155205
H        1.94459663       1.57744112       0.62716110
H        0.29404006      -2.10427755      -0.04287342
H        0.04728147      -1.26968065       1.49819938
H       -1.93720573      -0.16842290       0.47356293
H       -1.52153676      -1.08459128      -0.97249998
H        0.27797967       1.35404721       0.70288212
H       -1.00039400       1.28001419      -1.67412912
13
Frame=2 idx=001550 GeodesicLength=0.17170147935154162 rxn_smarts="[N:1](=[C:2]1/[C:3]([H:8])([H:9])[C:4]([H:10])([H:11])[C:5]([H:12])([H:13])[O:6]1)\[H:7]>>[N:1]([C:2]1=[O+:6][C-:5]([H:13])[C:4]([H:10])([H:11])[C:3]1([H:8])[H:9])([H:7])[H:12]"
N        1.40295899       0.81693476       1.00089660
C        1.19094781      -0.13536416       0.07074121
C        0.11135238      -1.12877801       0.42195332
C       -1.12476417      -0.43553443      -0.20903256
C       -0.51728870       0.80245232      -0.82542839
O        0.81842314       0.51275247      -1.08031668
H        1.98340707       1.56262974       0.61869085
H        0.30264694      -2.10540789      -0.01507678
H        0.02631528      -1.24201622       1.50147438
H       -1.95687052      -0.20164457       0.45299147
H       -1.50347880      -1.09281372      -0.99637395
H        0.28084984       1.36412178       0.72519913
H       -1.01449928       1.28266793      -1.66571860
13
Frame=3 idx=001550 GeodesicLength=0.2572738521066139 rxn_smarts="[N:1](=[C:2]1/[C:3]([H:8])([H:9])[C:4]([H:10])([H:11])[C:5]([H:12])([H:13])[O:6]1)\[H:7]>>[N:1]([C:2]1=[O+:6][C-:5]([H:13])[C:4]([H:10])([H:11])[C:3]1([H:8])[H:9])([H:7])[H:12]"
N        1.43282035       0.80939033       0.99141521
C        1.18724964      -0.13203277       0.06219699
C        0.10631161      -1.12025208       0.42382599
C       -1.12964398      -0.44419971      -0.22114470
C       -0.53480514       0.81600997      -0.80762490
O        0.80487097       0.52004104      -1.07876042
H        2.02276373       1.54664002       0.60916285
H        0.31110752      -2.10585003       0.01408804
H        0.00506877      -1.21348784       1.50447769
H       -1.97614051      -0.23573430       0.43103986
H       -1.48433932      -1.10087014      -1.02065635
H        0.28366272       1.37421933       0.74781214
H       -1.02892634       1.28612617      -1.65583238
13
Frame=4 idx=001550 GeodesicLength=0.34274470981564453 rxn_smarts="[N:1](=[C:2]1/[C:3]([H:8])([H:9])[C:4]([H:10])([H:11])[C:5]([H:12])([H:13])[O:6]1)\[H:7]>>[N:1]([C:2]1=[O+:6][C-:5]([H:13])[C:4]([H:10])([H:11])[C:3]1([H:8])[H:9])([H:7])[H:12]"
N        1.46244748       0.80156006       0.98124070
C        1.18326601      -0.12849126       0.05379332
C        0.10107627      -1.11153572       0.42591109
C       -1.13432983      -0.45313133      -0.23368843
C       -0.55275857       0.82890716      -0.78933881
O        0.79106012       0.52774652      -1.07683110
H        2.06267170       1.52935195       0.59861746
H        0.31940367      -2.10549440       0.04452733
H       -0.01644516      -1.18417352       1.50712391
H       -1.99486571      -0.27060852       0.40779311
H       -1.46415180      -1.10868307      -1.04522667
H        0.28632014       1.38438015       0.77072762
H       -1.04369431       1.29017199      -1.64464954
13
Frame=5 idx=001550 GeodesicLength=0.4281087130182777 rxn_smarts="[N:1](=[C:2]1/[C:3]([H:8])([H:9])[C:4]([H:10])([H:11])[C:5]([H:12])([H:13])[O:6]1)\[H:7]>>[N:1]([C:2]1=[O+:6][C-:5]([H:13])[C:4]([H:10])([H:11])[C:3]1([H:8])[H:9])([H:7])[H:12]"
N        1.49176951       0.79345865       0.97043168
C        1.17900081      -0.12470702       0.04556761
C        0.09566375      -1.10264095       0.42816795
C       -1.13878620      -0.46228845      -0.24661737
C       -0.57115688       0.84110432      -0.77061665
O        0.77703080       0.53591132      -1.07448868
H        2.10310416       1.51067200       0.58711686
H        0.32752420      -2.10425358       0.07611313
H       -0.03819810      -1.15418503       1.50933274
H       -2.01288931      -0.30614167       0.38336912
H       -1.44298650      -1.11618580      -1.06995136
H        0.28872990       1.39464506       0.79393400
H       -1.05880614       1.29461114      -1.63235904
13
Frame=6 idx=001550 GeodesicLength=0.5134098749548608 rxn_smarts="[N:1](=[C:2]1/[C:3]([H:8])([H:9])[C:4]([H:10])([H:11])[C:5]([H:12])([H:13])[O:6]1)\[H:7]>>[N:1]([C:2]1=[O+:6][C-:5]([H:13])[C:4]([H:10])([H:11])[C:3]1([H:8])[H:9])([H:7])[H:12]"
N        1.52073654       0.78509878       0.95903937
C        1.17445948      -0.12063813       0.03756101
C        0.09009249      -1.09357250       0.43055521
C       -1.14297144      -0.47162124      -0.25988365
C       -0.59000843       0.85257135      -0.75151197
O        0.76282711       0.54458614      -1.07168910
H        2.14403101       1.49047514       0.57469228
H        0.33544882      -2.10202864       0.10872665
H       -0.06016435      -1.12363585       1.51102953
H       -2.03006254      -0.34222993       0.35788518
H       -1.42089777      -1.12330249      -1.09470088
H        0.29077052       1.40504982       0.81743452
H       -1.07426146       1.29924753      -1.61913815
13
Frame=7 idx=001550 GeodesicLength=0.5987153532354222 rxn_smarts="[N:1](=[C:2]1/[C:3]([H:8])([H:9])[C:4]([H:10])([H:11])[C:5]([H:12])([H:13])[O:6]1)\[H:7]>>[N:1]([C:2]1=[O+:6][C-:5]([H:13])[C:4]([H:10])([H:11])[C:3]1([H:8])[H:9])([H:7])[H:12]"
N        1.54931541       0.77648629       0.94711645
C        1.16965149      -0.11624497       0.02981729
C        0.08438272      -1.08433882       0.43303991
C       -1.14684431      -0.48107799      -0.27343526
C       -0.60931817       0.86328282      -0.73208736
O        0.74849595       0.55380846      -1.06839191
H        2.18540532       1.46865672       0.56136505
H        0.34316105      -2.09874013       0.14223932
H       -0.08230948      -1.09265245       1.51215201
H       -2.04624225      -0.37876339       0.33146331
H       -1.39795478      -1.12995970      -1.11934701
H        0.29230551       1.41563276       0.84123436
H       -1.09004846       1.30391039      -1.60516616
13
Frame=8 idx=001550 GeodesicLength=0.6840324347310022 rxn_smarts="[N:1](=[C:2]1/[C:3]([H:8])([H:9])[C:4]([H:10])([H:11])[C:5]([H:12])([H:13])[O:6]1)\[H:7]>>[N:1]([C:2]1=[O+:6][C-:5]([H:13])[C:4]([H:10])([H:11])[C:3]1([H:8])[H:9])([H:7])[H:12]"
N        1.57747831       0.76763753       0.93472182
C        1.16459406      -0.11149449       0.02237621
C        0.07856294      -1.07495838       0.43559785
C       -1.15037711      -0.49061553      -0.28722085
C       -0.62908137       0.87321738      -0.71241372
O        0.73408409       0.56358996      -1.06457344
H        2.22715736       1.44515674       0.54716949
H        0.35064871      -2.09434210       0.17651240
H       -0.10458829      -1.06137365       1.51265365
H       -2.06129148      -0.41561245       0.30423546
H       -1.37426114      -1.13611385      -1.14377052
H        0.29320780       1.42642852       0.86532139
H       -1.10613390       1.30848032      -1.59060972
13
Frame=9 idx=001550 GeodesicLength=0.7690679773732303 rxn_smarts="[N:1](=[C:2]1/[C:3]([H:8])([H:9])[C:4]([H:10])([H:11])[C:5]([H:12])([H:13])[O:6]1)\[H:7]>>[N:1]([C:2]1=[O+:6][C-:5]([H:13])[C:4]([H:10])([H:11])[C:3]1([H:8])[H:9])([H:7])[H:12]"
N        1.60521127       0.75861943       0.92188153
C        1.15932919      -0.10638047       0.01524065
C        0.07266328      -1.06542553       0.43820833
C       -1.15352499      -0.50015258      -0.30117019
C       -0.64921069       0.88239016      -0.69260256
O        0.71964673       0.57392639      -1.06023267
H        2.26905662       1.41994187       0.53222023
H        0.35783460      -2.08885580       0.21135720
H       -0.12694515      -1.02988583       1.51251005
H       -2.07512351      -0.45274177       0.27635288
H       -1.34993080      -1.14170374      -1.16781722
H        0.29347626       1.43743958       0.88966945
H       -1.12248281       1.31282829      -1.57561769
13
Frame=10 idx=001550 GeodesicLength=0.8540838953899599 rxn_smarts="[N:1](=[C:2]1/[C:3]([H:8])([H:9])[C:4]([H:10])([H:11])[C:5]([H:12])([H:13])[O:6]1)\[H:7]>>[N:1]([C:2]1=[O+:6][C-:5]([H:13])[C:4]([H:10])([H:11])[C:3]1([H:8])[H:9])([H:7])[H:12]"
N        1.63249917       0.74941122       0.90864824
C        1.15384217      -0.10084174       0.00847989
C        0.06670597      -1.05576857       0.44083436
C       -1.15627126      -0.50966178      -0.31524181
C       -0.66977327       0.89077375      -0.67269976
O        0.70521116       0.58484426      -1.05532893
H        2.31118006       1.39288963       0.51645170
H        0.36479317      -2.08217101       0.24668371
H       -0.14934351      -0.99837130       1.51168203
H       -2.08761704      -0.48993603       0.24796365
H       -1.32501574      -1.14669082      -1.19143555
H        0.29284438       1.44869808       0.91434287
H       -1.13905525       1.31682433      -1.56038039
13
Frame=11 idx=001550 GeodesicLength=0.9391260615244322 rxn_smarts="[N:1](=[C:2]1/[C:3]([H:8])([H:9])[C:4]([H:10])([H:11])[C:5]([H:12])([H:13])[O:6]1)\[H:7]>>[N:1]([C:2]1=[O+:6][C-:5]([H:13])[C:4]([H:10])([H:11])[C:3]1([H:8])[H:9])([H:7])[H:12]"
N        1.65935609       0.74003989       0.89503711
C        1.14814819      -0.09483269       0.00212630
C        0.06071904      -1.04598746       0.44344895
C       -1.15858074      -0.51908450      -0.32938009
C       -0.69076484       0.89837364      -0.65279352
O        0.69081123       0.59636789      -1.04983912
H        2.35347039       1.36385625       0.49985737
H        0.37154409      -2.07424077       0.28236753
H       -0.17174851      -0.96694880       1.51016234
H       -2.09870770      -0.52709217       0.21921159
H       -1.29956031      -1.15102578      -1.21454077
H        0.29113490       1.46022197       0.93939682
H       -1.15582184       1.32035254      -1.54505451
13
Frame=12 idx=001550 GeodesicLength=1.024168579131583 rxn_smarts="[N:1](=[C:2]1/[C:3]([H:8])([H:9])[C:4]([H:10])([H:11])[C:5]([H:12])([H:13])[O:6]1)\[H:7]>>[N:1]([C:2]1=[O+:6][C-:5]([H:13])[C:4]([H:10])([H:11])[C:3]1([H:8])[H:9])([H:7])[H:12]"
N        1.68580397       0.73053556       0.88105973
C        1.14226276      -0.08831519      -0.00378486
C        0.05473006      -1.03608590       0.44604246
C       -1.16042648      -0.52837580      -0.34353846
C       -0.71217429       0.90520113      -0.63296242
O        0.67647686       0.60849641      -1.04375323
H        2.39584963       1.33275061       0.48243224
H        0.37810477      -2.06504672       0.31828124
H       -0.19411525      -0.93573714       1.50796143
H       -2.10834394      -0.56409712       0.19022615
H       -1.27362457      -1.15468783      -1.23706228
H        0.28819606       1.47201739       0.96487690
H       -1.17273958       1.32334462      -1.52977889
13
Frame=13 idx=001550 GeodesicLength=1.1092022327464148 rxn_smarts="[N:1](=[C:2]1/[C:3]([H:8])([H:9])[C:4]([H:10])([H:11])[C:5]([H:12])([H:13])[O:6]1)\[H:7]>>[N:1]([C:2]1=[O+:6][C-:5]([H:13])[C:4]([H:10])([H:11])[C:3]1([H:8])[H:9])([H:7])[H:12]"
N        1.71189812       0.72090154       0.86671079
C        1.13620595      -0.08125804      -0.00922276
C        0.04876571      -1.02606483       0.44861447
C       -1.16178318      -0.53749532      -0.35767902
C       -0.73398845       0.91127603      -0.61327293
O        0.66223366       0.62123075      -1.03705657
H        2.43822474       1.29951210       0.46413310
H        0.38447590      -2.05458389       0.35433858
H       -0.21641415      -0.90482821       1.50510455
H       -2.11648871      -0.60088304       0.16109563
H       -1.24725202      -1.15765065      -1.25895106
H        0.28388565       1.48408243       0.99084273
H       -1.18976321       1.32576113      -1.51465750
13
Frame=14 idx=001550 GeodesicLength=1.194150563924771 rxn_smarts="[N:1](=[C:2]1/[C:3]([H:8])([H:9])[C:4]([H:10])([H:11])[C:5]([H:12])([H:13])[O:6]1)\[H:7]>>[N:1]([C:2]1=[O+:6][C-:5]([H:13])[C:4]([H:10])([H:11])[C:3]1([H:8])[H:9])([H:7])[H:12]"
N        1.73768526       0.71115575       0.85197991
C        1.12999809      -0.07363915      -0.01415834
C        0.04285208      -1.01592449       0.45117241
C       -1.16264049      -0.54640888      -0.37176051
C       -0.75618359       0.91662384      -0.59379383
O        0.64810804       0.63454743      -1.02975421
H        2.48047708       1.26409834       0.44494414
H        0.39067283      -2.04285281       0.39043157
H       -0.23860028      -0.87431825       1.50162795
H       -2.12311681      -0.63736183       0.13193303
H       -1.22049629      -1.15990435      -1.28016969
H        0.27807483       1.49640462       1.01734994
H       -1.20683074       1.32757979      -1.49980236
13
Frame=15 idx=001550 GeodesicLength=1.2789997771517154 rxn_smarts="[N:1](=[C:2]1/[C:3]([H:8])([H:9])[C:4]([H:10])([H:11])[C:5]([H:12])([H:13])[O:6]1)\[H:7]>>[N:1]([C:2]1=[O+:6][C-:5]([H:13])[C:4]([H:10])([H:11])[C:3]1([H:8])[H:9])([H:7])[H:12]"
N        1.76322299       0.70133552       0.83682668
C        1.12365282      -0.06539718      -0.01855901
C        0.03701784      -1.00564368       0.45372319
C       -1.16296169      -0.55508270      -0.38575438
C       -0.77877055       0.92126854      -0.57457539
O        0.63410222       0.64848069      -1.02182195
H        2.52253987       1.22629988       0.42478733
H        0.39671437      -2.02983595       0.42651919
H       -0.26066424      -0.84426326       1.49756974
H       -2.12819703      -0.67352103       0.10278431
H       -1.19333381      -1.16141358      -1.30069111
H        0.27060452       1.50899592       1.04447868
H       -1.22392730       1.32877683      -1.48528728
13
Frame=16 idx=001550 GeodesicLength=1.3637145588078343 rxn_smarts="[N:1](=[C:2]1/[C:3]([H:8])([H:9])[C:4]([H:10])([H:11])[C:5]([H:12])([H:13])[O:6]1)\[H:7]>>[N:1]([C:2]1=[O+:6][C-:5]([H:13])[C:4]([H:10])([H:11])[C:3]1([H:8])[H:9])([H:7])[H:12]"
N        1.78859224       0.69143651       0.82120462
C        1.11718965      -0.05649521      -0.02238790
C        0.03128932      -0.99520892       0.45628714
C       -1.16272168      -0.56349408      -0.39963789
C       -0.80173667       0.92523670      -0.55566429
O        0.62023006       0.66303441      -1.01324393
H        2.56428997       1.18603023       0.40358463
H        0.40260148      -2.01554042       0.46255134
H       -0.28258295      -0.81471230       1.49298197
H       -2.13170747      -0.70933166       0.07369738
H       -1.16577266      -1.16215955      -1.32050193
H        0.26133227       1.52184916       1.07230847
H       -1.24100357       1.32935512      -1.47117959
