12
Frame=0 idx=003328 GeodesicLength=0.0 rxn_smarts="[C:1](#[C:2][C:3]1([H:8])[C:4]([H:9])([H:10])[O:5][C:6]1([H:11])[H:12])[H:7]>>[C-:1](=[C:2]([C+:3]1[C:4]([H:9])([H:10])[O:5][C:6]1([H:11])[H:12])[H:8])[H:7]"
C        2.58696143      -0.57708331      -0.29083314
C        1.39466705      -0.16867084       0.03122554
C        0.05152473       0.05350572      -0.08834384
C       -1.13286946      -0.72663449      -0.57882069
O       -1.99878983       0.37061512      -0.25184566
C       -0.91301581       1.16439881       0.25462345
H        3.22172541      -1.03281278       0.46663542
H        1.08949437       0.00369108       1.14700808
H       -1.10326885      -0.94558809      -1.65325749
H       -1.38374119      -1.63770260      -0.02800149
H       -1.04584842       1.41152948       1.31205875
H       -0.76683943       2.08475186      -0.32044898
12
Frame=1 idx=003328 GeodesicLength=0.05572423695231409 rxn_smarts="[C:1](#[C:2][C:3]1([H:8])[C:4]([H:9])([H:10])[O:5][C:6]1([H:11])[H:12])[H:7]>>[C-:1](=[C:2]([C+:3]1[C:4]([H:9])([H:10])[O:5][C:6]1([H:11])[H:12])[H:8])[H:7]"
C        2.56785361      -0.60420584      -0.30727164
C        1.39906901      -0.14982949       0.03686094
C        0.05054734       0.05307176      -0.06045238
C       -1.12401843      -0.72666269      -0.57506846
O       -1.99715128       0.36873820      -0.26033815
C       -0.91932769       1.16670410       0.25569947
H        3.22936471      -1.03749886       0.43999836
H        1.08000326       0.00783106       1.16526576
H       -1.07557208      -0.94235692      -1.64922725
H       -1.38124381      -1.63946019      -0.03036472
H       -1.06639721       1.42155501       1.30937524
H       -0.76312742       2.08211385      -0.32447716
12
Frame=2 idx=003328 GeodesicLength=0.11147203741056365 rxn_smarts="[C:1](#[C:2][C:3]1([H:8])[C:4]([H:9])([H:10])[O:5][C:6]1([H:11])[H:12])[H:7]>>[C-:1](=[C:2]([C+:3]1[C:4]([H:9])([H:10])[O:5][C:6]1([H:11])[H:12])[H:8])[H:7]"
C        2.54749792      -0.62884945      -0.32244329
C        1.40207378      -0.13525705       0.04434403
C        0.04905366       0.05104650      -0.03209088
C       -1.11608544      -0.72671531      -0.57129610
O       -1.99492340       0.36814845      -0.26986997
C       -0.92433478       1.16874526       0.25628646
H        3.24013038      -1.03663246       0.41048668
H        1.06883383       0.00914262       1.18516030
H       -1.04851137      -0.93949105      -1.64475549
H       -1.38141424      -1.64072603      -0.03283214
H       -1.08609786       1.43173396       1.30576811
H       -0.75622250       2.07885455      -0.32875771
12
Frame=3 idx=003328 GeodesicLength=0.167231949256948 rxn_smarts="[C:1](#[C:2][C:3]1([H:8])[C:4]([H:9])([H:10])[O:5][C:6]1([H:11])[H:12])[H:7]>>[C-:1](=[C:2]([C+:3]1[C:4]([H:9])([H:10])[O:5][C:6]1([H:11])[H:12])[H:8])[H:7]"
C        2.52739549      -0.64805493      -0.33622836
C        1.40427878      -0.12257462       0.05371071
C        0.04736916       0.04856533      -0.00335655
C       -1.10800683      -0.72697880      -0.56722323
O       -1.99206645       0.36780690      -0.28012122
C       -0.92870939       1.17069082       0.25633662
H        3.25014185      -1.03734795       0.37701675
H        1.05628226       0.00959660       1.20671949
H       -1.02104418      -0.93729533      -1.63952324
H       -1.38215723      -1.64186007      -0.03497854
H       -1.10562159       1.44227766       1.30113972
H       -0.74786187       2.07517440      -0.33349216
12
Frame=4 idx=003328 GeodesicLength=0.2230068292410991 rxn_smarts="[C:1](#[C:2][C:3]1([H:8])[C:4]([H:9])([H:10])[O:5][C:6]1([H:11])[H:12])[H:7]>>[C-:1](=[C:2]([C+:3]1[C:4]([H:9])([H:10])[O:5][C:6]1([H:11])[H:12])[H:8])[H:7]"
C        2.50622378      -0.66736325      -0.34870785
C        1.40528387      -0.11372662       0.06432594
C        0.04513195       0.04485836       0.02525272
C       -1.10089355      -0.72718334      -0.56322291
O       -1.98869383       0.36864809      -0.29102125
C       -0.93181859       1.17242666       0.25601836
H        3.26331345      -1.03103393       0.34169551
H        1.04201484       0.00734900       1.22937449
H       -0.99464888      -0.93535825      -1.63395677
H       -1.38516900      -1.64249347      -0.03735196
H       -1.12393317       1.45285493       1.29575599
H       -0.73681086       2.07102182      -0.33816228
12
Frame=5 idx=003328 GeodesicLength=0.27888132805100363 rxn_smarts="[C:1](#[C:2][C:3]1([H:8])[C:4]([H:9])([H:10])[O:5][C:6]1([H:11])[H:12])[H:7]>>[C-:1](=[C:2]([C+:3]1[C:4]([H:9])([H:10])[O:5][C:6]1([H:11])[H:12])[H:8])[H:7]"
C        2.48631238      -0.67991881      -0.36059186
C        1.40620972      -0.10427184       0.07628673
C        0.04308094       0.04187886       0.05385901
C       -1.09264888      -0.72769343      -0.55876177
O       -1.98464751       0.36877750      -0.30225600
C       -0.93492404       1.17416216       0.25530609
H        3.27201079      -1.03183135       0.30304339
H        1.02688568       0.00606064       1.25321857
H       -0.96698053      -0.93421458      -1.62746670
H       -1.38662048      -1.64332662      -0.03910718
H       -1.14261887       1.46360830       1.28953006
H       -0.72605921       2.06676918      -0.34306033
12
Frame=6 idx=003328 GeodesicLength=0.33476718945537043 rxn_smarts="[C:1](#[C:2][C:3]1([H:8])[C:4]([H:9])([H:10])[O:5][C:6]1([H:11])[H:12])[H:7]>>[C-:1](=[C:2]([C+:3]1[C:4]([H:9])([H:10])[O:5][C:6]1([H:11])[H:12])[H:8])[H:7]"
C        2.46592457      -0.69226657      -0.37136411
C        1.40635867      -0.09744451       0.08921989
C        0.04067914       0.03829946       0.08202199
C       -1.08493031      -0.72819312      -0.55428703
O       -1.98008139       0.36960431      -0.31384554
C       -0.93705021       1.17576430       0.25427112
H        3.28204305      -1.02804930       0.26280373
H        1.01018456       0.00293465       1.27786835
H       -0.94011331      -0.93341107      -1.62057551
H       -1.38926547      -1.64381082      -0.04089616
H       -1.16020043       1.47436378       1.28262615
H       -0.71354883       2.06220890      -0.34784287
12
Frame=7 idx=003328 GeodesicLength=0.3907465406867832 rxn_smarts="[C:1](#[C:2][C:3]1([H:8])[C:4]([H:9])([H:10])[O:5][C:6]1([H:11])[H:12])[H:7]>>[C-:1](=[C:2]([C+:3]1[C:4]([H:9])([H:10])[O:5][C:6]1([H:11])[H:12])[H:8])[H:7]"
C        2.44625081      -0.70070496      -0.38184205
C        1.40639741      -0.09071269       0.10299611
C        0.03837207       0.03520383       0.10975881
C       -1.07658188      -0.72885935      -0.54955119
O       -1.97492453       0.37006233      -0.32556798
C       -0.93891126       1.17730869       0.25296904
H        3.28914537      -1.02742744       0.22084019
H        0.99250303      -0.00000512       1.30321122
H       -0.91278319      -0.93312280      -1.61303375
H       -1.39093568      -1.64436780      -0.04232685
H       -1.17755271       1.48504784       1.27510339
H       -0.70097946       2.05757746      -0.35255694
12
Frame=8 idx=003328 GeodesicLength=0.44682368744113 rxn_smarts="[C:1](#[C:2][C:3]1([H:8])[C:4]([H:9])([H:10])[O:5][C:6]1([H:11])[H:12])[H:7]>>[C-:1](=[C:2]([C+:3]1[C:4]([H:9])([H:10])[O:5][C:6]1([H:11])[H:12])[H:8])[H:7]"
C        2.42664759      -0.70759025      -0.39174827
C        1.40607041      -0.08532117       0.11768671
C        0.03592759       0.03204712       0.13705786
C       -1.06823057      -0.72960026      -0.54467283
O       -1.96919925       0.37072265      -0.33755638
C       -0.94013392       1.17877363       0.25138541
H        3.29553232      -1.02557335       0.17732170
H        0.97346387      -0.00387554       1.32927307
H       -0.88563470      -0.93329401      -1.60496198
H       -1.39278459      -1.64476050      -0.04357099
H       -1.19420009       1.49571235       1.26694107
H       -0.68745866       2.05275935      -0.35715536
12
Frame=9 idx=003328 GeodesicLength=0.5030196230311162 rxn_smarts="[C:1](#[C:2][C:3]1([H:8])[C:4]([H:9])([H:10])[O:5][C:6]1([H:11])[H:12])[H:7]>>[C-:1](=[C:2]([C+:3]1[C:4]([H:9])([H:10])[O:5][C:6]1([H:11])[H:12])[H:8])[H:7]"
C        2.40673001      -0.71438380      -0.40074856
C        1.40523523      -0.08202486       0.13344987
C        0.03318556       0.02849258       0.16398563
C       -1.06024135      -0.73038100      -0.53970243
O       -1.96288106       0.37194382      -0.34996965
C       -0.94048754       1.18016253       0.24949493
H        3.30249809      -1.01981843       0.13196828
H        0.95276514      -0.00929387       1.35615187
H       -0.85897117      -0.93398347      -1.59638944
H       -1.39554533      -1.64482640      -0.04470164
H       -1.20989598       1.50645210       1.25808431
H       -0.67239160       2.04766081      -0.36162316
12
Frame=10 idx=003328 GeodesicLength=0.5594517484879297 rxn_smarts="[C:1](#[C:2][C:3]1([H:8])[C:4]([H:9])([H:10])[O:5][C:6]1([H:11])[H:12])[H:7]>>[C-:1](=[C:2]([C+:3]1[C:4]([H:9])([H:10])[O:5][C:6]1([H:11])[H:12])[H:8])[H:7]"
C        2.38780384      -0.71640872      -0.41032328
C        1.40457954      -0.07815664       0.15006732
C        0.03065775       0.02563884       0.19055739
C       -1.05136690      -0.73137167      -0.53442279
O       -1.95587939       0.37257750      -0.36256710
C       -0.94072568       1.18148570       0.24740935
H        3.30531857      -1.01873487       0.08535793
H        0.93112501      -0.01428016       1.38364803
H       -0.83144488      -0.93524210      -1.58710002
H       -1.39691381      -1.64505508      -0.04539080
H       -1.22560173       1.51699628       1.24866732
H       -0.65755232       2.04255092      -0.36590335
12
Frame=11 idx=003328 GeodesicLength=0.61595651419915 rxn_smarts="[C:1](#[C:2][C:3]1([H:8])[C:4]([H:9])([H:10])[O:5][C:6]1([H:11])[H:12])[H:7]>>[C-:1](=[C:2]([C+:3]1[C:4]([H:9])([H:10])[O:5][C:6]1([H:11])[H:12])[H:8])[H:7]"
C        2.36800117      -0.72096537      -0.41820257
C        1.40321376      -0.07762879       0.16779559
C        0.02760765       0.02185926       0.21676729
C       -1.04345789      -0.73236019      -0.52912106
O       -1.94824422       0.37429593      -0.37571435
C       -0.93968159       1.18272136       0.24497345
H        3.31053562      -1.00930585       0.03658133
H        0.90744288      -0.02153745       1.41190432
H       -0.80503361      -0.93711669      -1.57735536
H       -1.40031955      -1.64471147      -0.04606519
H       -1.23980167       1.52776857       1.23847592
H       -0.64026256       2.03698069      -0.37003937
12
Frame=12 idx=003328 GeodesicLength=0.6726360637420548 rxn_smarts="[C:1](#[C:2][C:3]1([H:8])[C:4]([H:9])([H:10])[O:5][C:6]1([H:11])[H:12])[H:7]>>[C-:1](=[C:2]([C+:3]1[C:4]([H:9])([H:10])[O:5][C:6]1([H:11])[H:12])[H:8])[H:7]"
C        2.34805641      -0.72541188      -0.42518892
C        1.40149861      -0.07906201       0.18666097
C        0.02428599       0.01770594       0.24271450
C       -1.03583314      -0.73345657      -0.52368244
O       -1.93988076       0.37649201      -0.38933687
C       -0.93773496       1.18387759       0.24224365
H        3.31552651      -0.99607859      -0.01426437
H        0.88199558      -0.03006232       1.44091696
H       -0.77893694      -0.93967813      -1.56702569
H       -1.40457117      -1.64405877      -0.04658401
H       -1.25301606       1.53868348       1.22755209
H       -0.62139007       2.03104926      -0.37400588
12
Frame=13 idx=003328 GeodesicLength=0.7296526181298425 rxn_smarts="[C:1](#[C:2][C:3]1([H:8])[C:4]([H:9])([H:10])[O:5][C:6]1([H:11])[H:12])[H:7]>>[C-:1](=[C:2]([C+:3]1[C:4]([H:9])([H:10])[O:5][C:6]1([H:11])[H:12])[H:8])[H:7]"
C        2.32914235      -0.72490085      -0.43310092
C        1.40005078      -0.08003162       0.20641491
C        0.02118384       0.01414613       0.26839682
C       -1.02733831      -0.73478822      -0.51796176
O       -1.93070816       0.37810463      -0.40318272
C       -0.93558035       1.18491566       0.23937241
H        3.31594157      -0.98716105      -0.06606076
H        0.85546788      -0.03825254       1.47044251
H       -0.75192881      -0.94281895      -1.55597790
H       -1.40754751      -1.64358345      -0.04676587
H       -1.26613628       1.54934894       1.21608875
H       -0.60254700       2.02502133      -0.37766546
12
Frame=14 idx=003328 GeodesicLength=0.7869043313357259 rxn_smarts="[C:1](#[C:2][C:3]1([H:8])[C:4]([H:9])([H:10])[O:5][C:6]1([H:11])[H:12])[H:7]>>[C-:1](=[C:2]([C+:3]1[C:4]([H:9])([H:10])[O:5][C:6]1([H:11])[H:12])[H:8])[H:7]"
C        2.31031423      -0.72326159      -0.44076097
C        1.39840911      -0.08260113       0.22708630
C        0.01791492       0.01033774       0.29379672
C       -1.01897261      -0.73628173      -0.51205821
O       -1.92075192       0.37998804      -0.41740107
C       -0.93258678       1.18584003       0.23625327
H        3.31517065      -0.97579193      -0.11919549
H        0.82732336      -0.04734572       1.50046147
H       -0.72512785      -0.94669038      -1.54429654
H       -1.41105585      -1.64289170      -0.04672923
H       -1.27828194       1.56007641       1.20394765
H       -0.58235532       2.01862196      -0.38110391
12
Frame=15 idx=003328 GeodesicLength=0.8442899645334109 rxn_smarts="[C:1](#[C:2][C:3]1([H:8])[C:4]([H:9])([H:10])[O:5][C:6]1([H:11])[H:12])[H:7]>>[C-:1](=[C:2]([C+:3]1[C:4]([H:9])([H:10])[O:5][C:6]1([H:11])[H:12])[H:8])[H:7]"
C        2.29098132      -0.72386524      -0.44648930
C        1.39623691      -0.08840411       0.24899278
C        0.01419985       0.00563756       0.31902412
C       -1.01138041      -0.73791418      -0.50602654
O       -1.90988975       0.38274140      -0.43216967
C       -0.92816994       1.18664711       0.23274554
H        3.31495251      -0.95629396      -0.17508276
H        0.79697135      -0.05812550       1.53115252
H       -0.69917948      -0.95148745      -1.53197792
H       -1.41639965      -1.64167762      -0.04659086
H       -1.28871814       1.57121673       1.19088565
H       -0.55960459       2.01152525      -0.38446355
12
Frame=16 idx=003328 GeodesicLength=0.9018932004858973 rxn_smarts="[C:1](#[C:2][C:3]1([H:8])[C:4]([H:9])([H:10])[O:5][C:6]1([H:11])[H:12])[H:7]>>[C-:1](=[C:2]([C+:3]1[C:4]([H:9])([H:10])[O:5][C:6]1([H:11])[H:12])[H:8])[H:7]"
C        2.27206456      -0.72287645      -0.45203554
C        1.39405005      -0.09534685       0.27145404
C        0.01047447       0.00086573       0.34387223
C       -1.00369219      -0.73973211      -0.49985917
O       -1.89821606       0.38547611      -0.44707137
C       -0.92298444       1.18728235       0.22908590
H        3.31219044      -0.93551231      -0.23173926
H        0.76522167      -0.06919830       1.56196346
H       -0.67335606      -0.95689739      -1.51912796
H       -1.42175472      -1.64038035      -0.04634536
H       -1.29810842       1.58228160       1.17730012
H       -0.53588931       2.00403799      -0.38749710
