11
Frame=0 idx=000080 GeodesicLength=0.0 rxn_smarts="[N:1]([c:2]1[c:3]([H:9])[n:4]([H:10])[c:5]([H:11])[n:6]1)([H:7])[H:8]>>[N:1]([C:2]1=[N:6][C@:3]1(/[C:5](=[N:4]/[H:10])[H:11])[H:9])([H:7])[H:8]"
N        2.18276001      -0.43326493       0.19304844
C        0.89918416      -0.10121200       0.09922734
C        0.05204965       1.00513443       0.07107457
N       -2.27047266       0.00901738      -0.71857635
C       -1.37257298      -0.12299367       0.19175457
N       -0.13192038      -0.85533864      -0.16080809
H        2.44453996      -1.39356109       0.05361146
H        2.89380301       0.27122415       0.15173540
H        0.03761003       1.58798036      -0.85276608
H       -3.17512646       0.18725321      -0.29409460
H       -1.55985439      -0.15423918       1.26579339
11
Frame=1 idx=000080 GeodesicLength=0.09508260183995867 rxn_smarts="[N:1]([c:2]1[c:3]([H:9])[n:4]([H:10])[c:5]([H:11])[n:6]1)([H:7])[H:8]>>[N:1]([C:2]1=[N:6][C@:3]1(/[C:5](=[N:4]/[H:10])[H:11])[H:9])([H:7])[H:8]"
N        2.18363074      -0.42225971       0.19578001
C        0.89452259      -0.11123246       0.08631021
C        0.03173694       0.98159902       0.02466839
N       -2.25884088       0.08960102      -0.69626880
C       -1.37472721      -0.15389431       0.20450053
N       -0.12406893      -0.88064098      -0.17832034
H        2.46071695      -1.38029657       0.07247947
H        2.88154789       0.29621083       0.18585579
H        0.03543228       1.56530496      -0.89768316
H       -3.17138932       0.22631686      -0.27470642
H       -1.55856105      -0.21070866       1.27738432
11
Frame=2 idx=000080 GeodesicLength=0.19028399533087773 rxn_smarts="[N:1]([c:2]1[c:3]([H:9])[n:4]([H:10])[c:5]([H:11])[n:6]1)([H:7])[H:8]>>[N:1]([C:2]1=[N:6][C@:3]1(/[C:5](=[N:4]/[H:10])[H:11])[H:9])([H:7])[H:8]"
N        2.18414211      -0.41103782       0.19702902
C        0.88986591      -0.12093753       0.07379458
C        0.01265415       0.95800440      -0.02051435
N       -2.24582021       0.16462270      -0.66823413
C       -1.37685592      -0.18198257       0.21369644
N       -0.11621707      -0.90484954      -0.19617357
H        2.47510986      -1.36727575       0.09482141
H        2.86794060       0.32055884       0.21658840
H        0.03413433       1.54431212      -0.93996322
H       -3.16636974       0.26590915      -0.25559124
H       -1.55858402      -0.26732400       1.28454665
11
Frame=3 idx=000080 GeodesicLength=0.28551544525806805 rxn_smarts="[N:1]([c:2]1[c:3]([H:9])[n:4]([H:10])[c:5]([H:11])[n:6]1)([H:7])[H:8]>>[N:1]([C:2]1=[N:6][C@:3]1(/[C:5](=[N:4]/[H:10])[H:11])[H:9])([H:7])[H:8]"
N        2.18437885      -0.39974433       0.19657592
C        0.88540988      -0.13021643       0.06027812
C       -0.00507372       0.93457673      -0.06528438
N       -2.23169771       0.23524326      -0.63493726
C       -1.37867806      -0.20740591       0.21986305
N       -0.10828344      -0.92788071      -0.21536556
H        2.48745030      -1.35461263       0.12188762
H        2.85321186       0.34409545       0.24550416
H        0.03280681       1.52497822      -0.98061000
H       -3.16024651       0.30554886      -0.23544806
H       -1.55927827      -0.32458252       1.28753641
11
Frame=4 idx=000080 GeodesicLength=0.3807020926615689 rxn_smarts="[N:1]([c:2]1[c:3]([H:9])[n:4]([H:10])[c:5]([H:11])[n:6]1)([H:7])[H:8]>>[N:1]([C:2]1=[N:6][C@:3]1(/[C:5](=[N:4]/[H:10])[H:11])[H:9])([H:7])[H:8]"
N        2.18446758      -0.38843354       0.19458130
C        0.88118332      -0.13915348       0.04616297
C       -0.02150582       0.91125271      -0.10967079
N       -2.21614532       0.30196560      -0.59704966
C       -1.38019559      -0.23042072       0.22370274
N       -0.10020043      -0.94997871      -0.23528279
H        2.49778755      -1.34187111       0.15284568
H        2.83740198       0.36687752       0.27258092
H        0.03107759       1.50675695      -1.02001294
H       -3.15280274       0.34541852      -0.21453817
H       -1.56106812      -0.38241374       1.28668074
11
Frame=5 idx=000080 GeodesicLength=0.4758789298224998 rxn_smarts="[N:1]([c:2]1[c:3]([H:9])[n:4]([H:10])[c:5]([H:11])[n:6]1)([H:7])[H:8]>>[N:1]([C:2]1=[N:6][C@:3]1(/[C:5](=[N:4]/[H:10])[H:11])[H:9])([H:7])[H:8]"
N        2.18468312      -0.37714200       0.18978312
C        0.87720335      -0.14784588       0.03165372
C       -0.03666756       0.88792655      -0.15397555
N       -2.19874826       0.36552631      -0.55471140
C       -1.38141593      -0.25104781       0.22606243
N       -0.09203382      -0.97140437      -0.25509030
H        2.50628428      -1.32863245       0.18611891
H        2.82026345       0.38884706       0.29998137
H        0.02863174       1.48891458      -1.05895863
H       -3.14394826       0.38506729      -0.19340532
H       -1.56425212      -0.44020929       1.28254165
11
Frame=6 idx=000080 GeodesicLength=0.5709658808118054 rxn_smarts="[N:1]([c:2]1[c:3]([H:9])[n:4]([H:10])[c:5]([H:11])[n:6]1)([H:7])[H:8]>>[N:1]([C:2]1=[N:6][C@:3]1(/[C:5](=[N:4]/[H:10])[H:11])[H:9])([H:7])[H:8]"
N        2.18495528      -0.36587712       0.18387056
C        0.87340904      -0.15636677       0.01754758
C       -0.05073885       0.86440838      -0.19780196
N       -2.17903195       0.42643469      -0.50811593
C       -1.38247522      -0.26960762       0.22741625
N       -0.08370377      -0.99240195      -0.27408359
H        2.51321739      -1.31435596       0.22048892
H        2.80196486       0.41004652       0.32578779
H        0.02540161       1.47106515      -1.09723538
H       -3.13344644       0.42469135      -0.17311086
H       -1.56955195      -0.49803668       1.27523661
11
Frame=7 idx=000080 GeodesicLength=0.6659316939987552 rxn_smarts="[N:1]([c:2]1[c:3]([H:9])[n:4]([H:10])[c:5]([H:11])[n:6]1)([H:7])[H:8]>>[N:1]([C:2]1=[N:6][C@:3]1(/[C:5](=[N:4]/[H:10])[H:11])[H:9])([H:7])[H:8]"
N        2.18487799      -0.35454653       0.17947973
C        0.86975348      -0.16480968       0.00348428
C       -0.06395762       0.84039017      -0.24175331
N       -2.15669053       0.48517117      -0.45676787
C       -1.38334910      -0.28645975       0.22800155
N       -0.07516469      -1.01330020      -0.29226798
H        2.51905995      -1.29872998       0.25407136
H        2.78232324       0.43087035       0.35042368
H        0.02096444       1.45241214      -1.13585101
H       -3.12085473       0.46514902      -0.15351775
H       -1.57696240      -0.55614671       1.26469731
11
Frame=8 idx=000080 GeodesicLength=0.7609615883509133 rxn_smarts="[N:1]([c:2]1[c:3]([H:9])[n:4]([H:10])[c:5]([H:11])[n:6]1)([H:7])[H:8]>>[N:1]([C:2]1=[N:6][C@:3]1(/[C:5](=[N:4]/[H:10])[H:11])[H:9])([H:7])[H:8]"
N        2.18471635      -0.34280865       0.17541109
C        0.86595735      -0.17334513      -0.00823017
C       -0.07661857       0.81544487      -0.28439785
N       -2.13080425       0.54209265      -0.40064453
C       -1.38465835      -0.30209218       0.22834201
N       -0.06637094      -1.03450176      -0.30775752
H        2.52450895      -1.28147429       0.28616547
H        2.76205031       0.45199304       0.37097234
H        0.01548194       1.43252945      -1.17339242
H       -3.10561832       0.50710548      -0.13725654
H       -1.58864447      -0.61494348       1.25078810
11
Frame=9 idx=000080 GeodesicLength=0.8558858027406424 rxn_smarts="[N:1]([c:2]1[c:3]([H:9])[n:4]([H:10])[c:5]([H:11])[n:6]1)([H:7])[H:8]>>[N:1]([C:2]1=[N:6][C@:3]1(/[C:5](=[N:4]/[H:10])[H:11])[H:9])([H:7])[H:8]"
N        2.18400712      -0.33025369       0.17289045
C        0.86218535      -0.18193370      -0.02073348
C       -0.08908771       0.78911574      -0.32835533
N       -2.10100357       0.59762842      -0.33754364
C       -1.38585518      -0.31681591       0.22830279
N       -0.05727077      -1.05637207      -0.32206270
H        2.52967217      -1.26247567       0.31589265
H        2.73944157       0.47366595       0.39367910
H        0.00725873       1.40992207      -1.21338521
H       -3.08649830       0.55232827      -0.12179144
H       -1.60284941      -0.67480940       1.23310680
11
Frame=10 idx=000080 GeodesicLength=0.950861460492261 rxn_smarts="[N:1]([c:2]1[c:3]([H:9])[n:4]([H:10])[c:5]([H:11])[n:6]1)([H:7])[H:8]>>[N:1]([C:2]1=[N:6][C@:3]1(/[C:5](=[N:4]/[H:10])[H:11])[H:9])([H:7])[H:8]"
N        2.18282333      -0.31621389       0.17160440
C        0.85801134      -0.19082213      -0.03118527
C       -0.10197017       0.76053824      -0.37186253
N       -2.06600909       0.65089542      -0.26786236
C       -1.38799119      -0.33199143       0.22731484
N       -0.04746168      -1.07964097      -0.33336224
H        2.53542482      -1.24095196       0.34387799
H        2.71534608       0.49730104       0.41338810
H       -0.00376857       1.38406101      -1.25385513
H       -3.06157370       0.60416225      -0.10797583
H       -1.62283117      -0.73733759       1.20991802
11
Frame=11 idx=000080 GeodesicLength=1.0456978156320957 rxn_smarts="[N:1]([c:2]1[c:3]([H:9])[n:4]([H:10])[c:5]([H:11])[n:6]1)([H:7])[H:8]>>[N:1]([C:2]1=[N:6][C@:3]1(/[C:5](=[N:4]/[H:10])[H:11])[H:9])([H:7])[H:8]"
N        2.18071145      -0.30000984       0.17186870
C        0.85351459      -0.20004052      -0.04226704
C       -0.11591656       0.72883243      -0.41710270
N       -2.02459916       0.70039669      -0.19144760
C       -1.39104260      -0.34875702       0.22379472
N       -0.03649208      -1.10500287      -0.34306006
H        2.54124504      -1.21610789       0.37219981
H        2.68786539       0.52355619       0.43401475
H       -0.01932810       1.35377168      -1.29732613
H       -3.02795232       0.66631512      -0.08988601
H       -1.64800565      -0.80295398       1.17921157
11
Frame=12 idx=000080 GeodesicLength=1.1406999693176176 rxn_smarts="[N:1]([c:2]1[c:3]([H:9])[n:4]([H:10])[c:5]([H:11])[n:6]1)([H:7])[H:8]>>[N:1]([C:2]1=[N:6][C@:3]1(/[C:5](=[N:4]/[H:10])[H:11])[H:9])([H:7])[H:8]"
N        2.17752043      -0.28063754       0.17393918
C        0.84820187      -0.20979712      -0.05113759
C       -0.13122966       0.69274923      -0.46330515
N       -1.97539939       0.74345273      -0.11216423
C       -1.39666153      -0.36849025       0.21527398
N       -0.02373214      -1.13335064      -0.34890252
H        2.54825397      -1.18663528       0.40039954
H        2.65709406       0.55404956       0.45294168
H       -0.03871880       1.31793961      -1.34279662
H       -2.98293715       0.74236148      -0.06176285
H       -1.68239166      -0.87164179       1.13751457
11
Frame=13 idx=000080 GeodesicLength=1.2357690616084787 rxn_smarts="[N:1]([c:2]1[c:3]([H:9])[n:4]([H:10])[c:5]([H:11])[n:6]1)([H:7])[H:8]>>[N:1]([C:2]1=[N:6][C@:3]1(/[C:5](=[N:4]/[H:10])[H:11])[H:9])([H:7])[H:8]"
N        2.17272520      -0.25851251       0.17758816
C        0.84221530      -0.21983908      -0.06026342
C       -0.14791527       0.65270455      -0.51098423
N       -1.91744059       0.77835606      -0.03195776
C       -1.40514054      -0.39079207       0.20032852
N       -0.00937621      -1.16418769      -0.35203791
H        2.55438248      -1.15258648       0.43207822
H        2.62241240       0.58821567       0.47038728
H       -0.06232523       1.27785430      -1.39019185
H       -2.92471782       0.82921820      -0.01914076
H       -1.72481973      -0.94043096       1.08419374
11
Frame=14 idx=000080 GeodesicLength=1.3314713054045109 rxn_smarts="[N:1]([c:2]1[c:3]([H:9])[n:4]([H:10])[c:5]([H:11])[n:6]1)([H:7])[H:8]>>[N:1]([C:2]1=[N:6][C@:3]1(/[C:5](=[N:4]/[H:10])[H:11])[H:9])([H:7])[H:8]"
N        2.16661949      -0.23404298       0.18141790
C        0.83523823      -0.22993819      -0.06646761
C       -0.16539580       0.60965489      -0.55671907
N       -1.85199351       0.80294714       0.04365086
C       -1.41757880      -0.41421844       0.17995334
N        0.00573485      -1.19653648      -0.34907707
H        2.56066865      -1.11475441       0.46266112
H        2.58555971       0.62522101       0.48378570
H       -0.08780528       1.23576736      -1.43497100
H       -2.85361277       0.92069524       0.03485642
H       -1.77743477      -1.00479515       1.02090941
11
Frame=15 idx=000080 GeodesicLength=1.427630936203174 rxn_smarts="[N:1]([c:2]1[c:3]([H:9])[n:4]([H:10])[c:5]([H:11])[n:6]1)([H:7])[H:8]>>[N:1]([C:2]1=[N:6][C@:3]1(/[C:5](=[N:4]/[H:10])[H:11])[H:9])([H:7])[H:8]"
N        2.15895298      -0.20973763       0.18485506
C        0.82787958      -0.23977152      -0.07426174
C       -0.18333965       0.56675775      -0.59929926
N       -1.78238305       0.81620022       0.11055055
C       -1.43252859      -0.43687726       0.15576745
N        0.02023504      -1.22802537      -0.34476097
H        2.56305887      -1.07544833       0.49708600
H        2.54742681       0.66204392       0.49263877
H       -0.11453229       1.19664573      -1.47458355
H       -2.77248444       1.00733610       0.09746283
H       -1.83228526      -1.05912363       0.95454486
11
Frame=16 idx=000080 GeodesicLength=1.524531617848354 rxn_smarts="[N:1]([c:2]1[c:3]([H:9])[n:4]([H:10])[c:5]([H:11])[n:6]1)([H:7])[H:8]>>[N:1]([C:2]1=[N:6][C@:3]1(/[C:5](=[N:4]/[H:10])[H:11])[H:9])([H:7])[H:8]"
N        2.15071874      -0.18693085       0.18663605
C        0.82031138      -0.24922187      -0.08127356
C       -0.20113686       0.52647893      -0.63489989
N       -1.71318760       0.81939209       0.16733463
C       -1.44924940      -0.45733331       0.13192598
N        0.03327062      -1.25722630      -0.33884720
H        2.56281383      -1.03682571       0.53064533
H        2.51089316       0.69683598       0.49529117
H       -0.14042818       1.16377784      -1.50457456
H       -2.68639740       1.08328437       0.15671665
H       -1.88760830      -1.10223116       0.89104540
