15
Frame=0 idx=009051 GeodesicLength=0.0 rxn_smarts="[N:1]([C@@:2]([C:3]#[N:4])([C:5]1([H:11])[C:6]([H:12])([H:13])[C:7]1([H:14])[H:15])[H:10])([H:8])[H:9]>>[N+:1]1([H:8])([H:9])[C@:2]([C:3]#[N:4])([H:10])[C-:5]1[C:7]([C:6]([H:11])([H:12])[H:13])([H:14])[H:15]"
N        1.96713988      -0.83309646       0.06472555
C        0.88863098       0.10039767       0.33227541
C        1.30492622       1.52090713       0.35342407
N        1.63417952       2.61984350       0.38729893
C       -0.09421707      -0.18866750      -0.80827669
C       -1.77407660       0.35618365      -0.15737716
C       -1.18316686      -1.05069674      -0.35368813
H        2.68904265      -0.77674090       0.76928125
H        2.37467677      -0.64467240      -0.84210465
H        0.49377104      -0.12664281       1.33358768
H       -1.01646181       1.06848634      -0.65935904
H       -1.88426562       0.64468896       0.88268279
H       -2.64576368       0.54116257      -0.77597499
H       -1.69017520      -1.63880405      -1.11128462
H       -1.06424028      -1.59234896       0.58478966
15
Frame=1 idx=009051 GeodesicLength=0.07834181098313625 rxn_smarts="[N:1]([C@@:2]([C:3]#[N:4])([C:5]1([H:11])[C:6]([H:12])([H:13])[C:7]1([H:14])[H:15])[H:10])([H:8])[H:9]>>[N+:1]1([H:8])([H:9])[C@:2]([C:3]#[N:4])([H:10])[C-:5]1[C:7]([C:6]([H:11])([H:12])[H:13])([H:14])[H:15]"
N        1.94813580      -0.83040709       0.04537322
C        0.88923551       0.11518766       0.34668558
C        1.31699051       1.53042614       0.36601327
N        1.65864913       2.62569740       0.39433953
C       -0.08856249      -0.18086886      -0.79204553
C       -1.77978136       0.35055636      -0.16253547
C       -1.17724199      -1.05105179      -0.34640234
H        2.66375640      -0.82081751       0.75871020
H        2.37023523      -0.62269995      -0.85034701
H        0.49955105      -0.11689181       1.34809337
H       -1.02351148       1.06822098      -0.69404199
H       -1.88864174       0.65008525       0.87476997
H       -2.66105335       0.51781606      -0.77256256
H       -1.66828483      -1.64506080      -1.10999700
H       -1.05947638      -1.59019205       0.59394676
15
Frame=2 idx=009051 GeodesicLength=0.15659125172251354 rxn_smarts="[N:1]([C@@:2]([C:3]#[N:4])([C:5]1([H:11])[C:6]([H:12])([H:13])[C:7]1([H:14])[H:15])[H:10])([H:8])[H:9]>>[N+:1]1([H:8])([H:9])[C@:2]([C:3]#[N:4])([H:10])[C-:5]1[C:7]([C:6]([H:11])([H:12])[H:13])([H:14])[H:15]"
N        1.92913459      -0.82686175       0.02666781
C        0.89006617       0.12982274       0.36079183
C        1.32920188       1.53978840       0.37854335
N        1.68269691       2.63139799       0.40193922
C       -0.08321452      -0.17262050      -0.77587762
C       -1.78532470       0.34490321      -0.16747232
C       -1.17130672      -1.05125778      -0.33922121
H        2.63715455      -0.86400601       0.74690911
H        2.36580941      -0.60183216      -0.85763731
H        0.50562365      -0.10727286       1.36231111
H       -1.03034441       1.06669562      -0.72968561
H       -1.89265364       0.65551058       0.86695616
H       -2.67594374       0.49463325      -0.76843435
H       -1.64635193      -1.65085640      -1.10866817
H       -1.05454748      -1.58804432       0.60287800
15
Frame=3 idx=009051 GeodesicLength=0.2347981831111461 rxn_smarts="[N:1]([C@@:2]([C:3]#[N:4])([C:5]1([H:11])[C:6]([H:12])([H:13])[C:7]1([H:14])[H:15])[H:10])([H:8])[H:9]>>[N+:1]1([H:8])([H:9])[C@:2]([C:3]#[N:4])([H:10])[C-:5]1[C:7]([C:6]([H:11])([H:12])[H:13])([H:14])[H:15]"
N        1.91016711      -0.82248979       0.00858862
C        0.89111459       0.14430997       0.37462387
C        1.34157632       1.54899043       0.39104854
N        1.70640459       2.63693854       0.41007588
C       -0.07818091      -0.16390351      -0.75975376
C       -1.79072709       0.33922474      -0.17218420
C       -1.16535485      -1.05131388      -0.33213885
H        2.60920471      -0.90625962       0.73396793
H        2.36134561      -0.58200666      -0.86412060
H        0.51198720      -0.09779153       1.37626604
H       -1.03693931       1.06381833      -0.76628639
H       -1.89635883       0.66094982       0.85924288
H       -2.69043178       0.47162720      -0.76362909
H       -1.62435840      -1.65619106      -1.10729388
H       -1.04944896      -1.58590298       0.61159302
15
Frame=4 idx=009051 GeodesicLength=0.31300682461522833 rxn_smarts="[N:1]([C@@:2]([C:3]#[N:4])([C:5]1([H:11])[C:6]([H:12])([H:13])[C:7]1([H:14])[H:15])[H:10])([H:8])[H:9]>>[N+:1]1([H:8])([H:9])[C@:2]([C:3]#[N:4])([H:10])[C-:5]1[C:7]([C:6]([H:11])([H:12])[H:13])([H:14])[H:15]"
N        1.89125175      -0.81732597      -0.00887481
C        0.89237141       0.15865832       0.38821403
C        1.35413251       1.55802921       0.40356543
N        1.72984401       2.64231521       0.41874145
C       -0.07347013      -0.15469909      -0.74365115
C       -1.79600829       0.33352198      -0.17667022
C       -1.15937997      -1.05121854      -0.32514501
H        2.57989434      -0.94752024       0.71992908
H        2.35678739      -0.56317221      -0.86992106
H        0.51863993      -0.08845275       1.38998592
H       -1.04326691       1.05948875      -0.80384036
H       -1.89981617       0.66639174       0.85162825
H       -2.70451056       0.44881354      -0.75819454
H       -1.60228867      -1.66106726      -1.10587393
H       -1.04418062      -1.58376270       0.62010690
15
Frame=5 idx=009051 GeodesicLength=0.39124321534943124 rxn_smarts="[N:1]([C@@:2]([C:3]#[N:4])([C:5]1([H:11])[C:6]([H:12])([H:13])[C:7]1([H:14])[H:15])[H:10])([H:8])[H:9]>>[N+:1]1([H:8])([H:9])[C@:2]([C:3]#[N:4])([H:10])[C-:5]1[C:7]([C:6]([H:11])([H:12])[H:13])([H:14])[H:15]"
N        1.87240385      -0.81139528      -0.02574156
C        0.89382663       0.17288251       0.40159560
C        1.36689170       1.56690505       0.41613102
N        1.75310439       2.64752448       0.42792286
C       -0.06908974      -0.14498538      -0.72754500
C       -1.80118592       0.32779770      -0.18093219
C       -1.15337237      -1.05096632      -0.31822943
H        2.54918072      -0.98775541       0.70483208
H        2.35206898      -0.54525502      -0.87516388
H        0.52557853      -0.07925822       1.40349989
H       -1.04928921       1.05359386      -0.84232882
H       -1.90309153       0.67181680       0.84411077
H       -2.71817152       0.42619657      -0.75218767
H       -1.58011640      -1.66548775      -1.10439864
H       -1.03873809      -1.58161360       0.62843498
15
Frame=6 idx=009051 GeodesicLength=0.4695481956981675 rxn_smarts="[N:1]([C@@:2]([C:3]#[N:4])([C:5]1([H:11])[C:6]([H:12])([H:13])[C:7]1([H:14])[H:15])[H:10])([H:8])[H:9]>>[N+:1]1([H:8])([H:9])[C@:2]([C:3]#[N:4])([H:10])[C-:5]1[C:7]([C:6]([H:11])([H:12])[H:13])([H:14])[H:15]"
N        1.85362494      -0.80473090      -0.04201908
C        0.89547020       0.18698911       0.41480745
C        1.37987768       1.57560829       0.42879233
N        1.77624329       2.65255426       0.43763228
C       -0.06504949      -0.13474390      -0.71140627
C       -1.80627786       0.32205491      -0.18497993
C       -1.14732734      -1.05055397      -0.31137163
H        2.51704856      -1.02689701       0.68862863
H        2.34714339      -0.52819437      -0.87993921
H        0.53280055      -0.07021672       1.41683891
H       -1.05494846       1.04601645      -0.88174179
H       -1.90624570       0.67722853       0.83667502
H       -2.73140555       0.40378302      -0.74567733
H       -1.55782331      -1.66945925      -1.10284778
H       -1.03313089      -1.57943847       0.63660841
15
Frame=7 idx=009051 GeodesicLength=0.5479407996454678 rxn_smarts="[N:1]([C@@:2]([C:3]#[N:4])([C:5]1([H:11])[C:6]([H:12])([H:13])[C:7]1([H:14])[H:15])[H:10])([H:8])[H:9]>>[N+:1]1([H:8])([H:9])[C@:2]([C:3]#[N:4])([H:10])[C-:5]1[C:7]([C:6]([H:11])([H:12])[H:13])([H:14])[H:15]"
N        1.83490861      -0.79736588      -0.05772403
C        0.89728975       0.20098209       0.42788349
C        1.39311304       1.58412591       0.44159404
N        1.79932926       2.65739095       0.44787196
C       -0.06136436      -0.12395711      -0.69520852
C       -1.81130220       0.31630080      -0.18882021
C       -1.14124645      -1.04997408      -0.30455263
H        2.48349594      -1.06485479       0.67129692
H        2.34195185      -0.51192079      -0.88434922
H        0.54030157      -0.06134279       1.43003031
H       -1.06016373       1.03661776      -0.92204705
H       -1.90934944       0.68261328       0.82931433
H       -2.74419515       0.38159218      -0.73874377
H       -1.53539689      -1.67298601      -1.10120013
H       -1.02737180      -1.57722150       0.64465451
15
Frame=8 idx=009051 GeodesicLength=0.6264460462678316 rxn_smarts="[N:1]([C@@:2]([C:3]#[N:4])([C:5]1([H:11])[C:6]([H:12])([H:13])[C:7]1([H:14])[H:15])[H:10])([H:8])[H:9]>>[N+:1]1([H:8])([H:9])[C@:2]([C:3]#[N:4])([H:10])[C-:5]1[C:7]([C:6]([H:11])([H:12])[H:13])([H:14])[H:15]"
N        1.81624063      -0.78933234      -0.07286802
C        0.89927277       0.21486485       0.44086476
C        1.40661958       1.59244107       0.45458826
N        1.82241165       2.66202006       0.45865607
C       -0.05804850      -0.11261143      -0.67892176
C       -1.81627467       0.31054389      -0.19247169
C       -1.13513241      -1.04922156      -0.29774486
H        2.44853192      -1.10153077       0.65274161
H        2.33643489      -0.49637535      -0.88846833
H        0.54808243      -0.05265724       1.44311083
H       -1.06484176       1.02526633      -0.96320723
H       -1.91247201       0.68797238       0.82200740
H       -2.75652273       0.35964039      -0.73148109
H       -1.51281843      -1.67608223      -1.09942058
H       -1.02148337      -1.57493804       0.65261464
15
Frame=9 idx=009051 GeodesicLength=0.7045664679593527 rxn_smarts="[N:1]([C@@:2]([C:3]#[N:4])([C:5]1([H:11])[C:6]([H:12])([H:13])[C:7]1([H:14])[H:15])[H:10])([H:8])[H:9]>>[N+:1]1([H:8])([H:9])[C@:2]([C:3]#[N:4])([H:10])[C-:5]1[C:7]([C:6]([H:11])([H:12])[H:13])([H:14])[H:15]"
N        1.79754737      -0.78075975      -0.08752260
C        0.90137579       0.22861142       0.45372871
C        1.42038887       1.60050061       0.46773933
N        1.84555991       2.66635652       0.46993482
C       -0.05512303      -0.10077317      -0.66254629
C       -1.82118891       0.30484276      -0.19600681
C       -1.12904525      -1.04828766      -0.29095428
H        2.41270891      -1.13657445       0.63313477
H        2.33054471      -0.48163002      -0.89230188
H        0.55615046      -0.04424563       1.45606317
H       -1.06911669       1.01201383      -1.00488853
H       -1.91572991       0.69324392       0.81472418
H       -2.76835126       0.33801488      -0.72404525
H       -1.49015503      -1.67875334      -1.09755275
H       -1.01556595      -1.57255993       0.66049341
15
Frame=10 idx=009051 GeodesicLength=0.7828357897005467 rxn_smarts="[N:1]([C@@:2]([C:3]#[N:4])([C:5]1([H:11])[C:6]([H:12])([H:13])[C:7]1([H:14])[H:15])[H:10])([H:8])[H:9]>>[N+:1]1([H:8])([H:9])[C@:2]([C:3]#[N:4])([H:10])[C-:5]1[C:7]([C:6]([H:11])([H:12])[H:13])([H:14])[H:15]"
N        1.77887034      -0.77154867      -0.10169613
C        0.90362870       0.24225349       0.46654508
C        1.43449117       1.60831307       0.48116266
N        1.86878637       2.67045285       0.48175784
C       -0.05260014      -0.08833869      -0.64603131
C       -1.82608513       0.29915410      -0.19939121
C       -1.12292403      -1.04716320      -0.28412349
H        2.37543020      -1.17021460       0.61228399
H        2.32420348      -0.46744883      -0.89605471
H        0.56451989      -0.03607008       1.46893830
H       -1.07264648       0.99657784      -1.04726664
H       -1.91914052       0.69848212       0.80745905
H       -2.77970688       0.31663605      -0.71646846
H       -1.46727964      -1.68102320      -1.09547834
H       -1.00954732      -1.57006223       0.66836338
15
Frame=11 idx=009051 GeodesicLength=0.8612984024020872 rxn_smarts="[N:1]([C@@:2]([C:3]#[N:4])([C:5]1([H:11])[C:6]([H:12])([H:13])[C:7]1([H:14])[H:15])[H:10])([H:8])[H:9]>>[N+:1]1([H:8])([H:9])[C@:2]([C:3]#[N:4])([H:10])[C-:5]1[C:7]([C:6]([H:11])([H:12])[H:13])([H:14])[H:15]"
N        1.76016888      -0.76172899      -0.11545395
C        0.90601457       0.25578373       0.47932297
C        1.44895051       1.61584820       0.49488211
N        1.89212709       2.67427550       0.49412453
C       -0.05050898      -0.07530534      -0.62935649
C       -1.83098359       0.29348036      -0.20264108
C       -1.11678614      -1.04584210      -0.27723137
H        2.33682005      -1.20233541       0.59025358
H        2.31732865      -0.45376444      -0.89983034
H        0.57319472      -0.02816713       1.48173654
H       -1.07531338       0.97887890      -1.09023884
H       -1.92277238       0.70367113       0.80020017
H       -2.79058578       0.29552815      -0.70885166
H       -1.44419714      -1.68290180      -1.09317115
H       -1.00345708      -1.56742075       0.67625499
15
Frame=12 idx=009051 GeodesicLength=0.9399703235724011 rxn_smarts="[N:1]([C@@:2]([C:3]#[N:4])([C:5]1([H:11])[C:6]([H:12])([H:13])[C:7]1([H:14])[H:15])[H:10])([H:8])[H:9]>>[N+:1]1([H:8])([H:9])[C@:2]([C:3]#[N:4])([H:10])[C-:5]1[C:7]([C:6]([H:11])([H:12])[H:13])([H:14])[H:15]"
N        1.74141304      -0.75131644      -0.12884328
C        0.90852242       0.26919813       0.49207640
C        1.46379265       1.62307452       0.50892652
N        1.91559803       2.67780733       0.50703420
C       -0.04887105      -0.06166900      -0.61249921
C       -1.83589776       0.28782967      -0.20577970
C       -1.11064172      -1.04431699      -0.27024687
H        2.29690163      -1.23284442       0.56702329
H        2.30984337      -0.44050165      -0.90372862
H        0.58218897      -0.02057310       1.49446525
H       -1.07695856       0.95882027      -1.13367542
H       -1.92669866       0.70879932       0.79292829
H       -2.80097696       0.27470617      -0.70131387
H       -1.42089350      -1.68440831      -1.09058055
H       -0.99732189      -1.56460550       0.68421357
15
Frame=13 idx=009051 GeodesicLength=1.0188685595120914 rxn_smarts="[N:1]([C@@:2]([C:3]#[N:4])([C:5]1([H:11])[C:6]([H:12])([H:13])[C:7]1([H:14])[H:15])[H:10])([H:8])[H:9]>>[N+:1]1([H:8])([H:9])[C@:2]([C:3]#[N:4])([H:10])[C-:5]1[C:7]([C:6]([H:11])([H:12])[H:13])([H:14])[H:15]"
N        1.72255545      -0.74031684      -0.14191511
C        0.91113651       0.28248793       0.50481294
C        1.47904165       1.62995092       0.52331228
N        1.93922851       2.68101347       0.52046979
C       -0.04771563      -0.04742987      -0.59543988
C       -1.84084762       0.28220461      -0.20883132
C       -1.10450871      -1.04258065      -0.26314187
H        2.25575100      -1.26164459       0.54260874
H        2.30166574      -0.42757437      -0.90784643
H        0.59151090      -0.01332636       1.50712551
H       -1.07741600       0.93633263      -1.17741452
H       -1.93098962       0.71386014       0.78562360
H       -2.81088282       0.25417484      -0.69397290
H       -1.39735575      -1.68556215      -1.08767100
H       -0.99117362      -1.56158970       0.69228016
15
Frame=14 idx=009051 GeodesicLength=1.09800769517526 rxn_smarts="[N:1]([C@@:2]([C:3]#[N:4])([C:5]1([H:11])[C:6]([H:12])([H:13])[C:7]1([H:14])[H:15])[H:10])([H:8])[H:9]>>[N+:1]1([H:8])([H:9])[C@:2]([C:3]#[N:4])([H:10])[C-:5]1[C:7]([C:6]([H:11])([H:12])[H:13])([H:14])[H:15]"
N        1.70355379      -0.72875729      -0.15472190
C        0.91383877       0.29563924       0.51753454
C        1.49471376       1.63643432       0.53805452
N        1.96300897       2.68387207       0.53441341
C       -0.04707192      -0.03259727      -0.57816485
C       -1.84585081       0.27661021      -0.21181946
C       -1.09841210      -1.04062966      -0.25588881
H        2.21347759      -1.28860437       0.51701914
H        2.29271405      -0.41492713      -0.91228066
H        0.60117271      -0.00647419       1.51970642
H       -1.07648213       0.91137372      -1.22127194
H       -1.93571922       0.71883448       0.77826946
H       -2.82029736       0.23395875      -0.68695640
H       -1.37359195      -1.68638541      -1.08438921
H       -0.98505415      -1.55834747       0.70049572
15
Frame=15 idx=009051 GeodesicLength=1.1773925253466988 rxn_smarts="[N:1]([C@@:2]([C:3]#[N:4])([C:5]1([H:11])[C:6]([H:12])([H:13])[C:7]1([H:14])[H:15])[H:10])([H:8])[H:9]>>[N+:1]1([H:8])([H:9])[C@:2]([C:3]#[N:4])([H:10])[C-:5]1[C:7]([C:6]([H:11])([H:12])[H:13])([H:14])[H:15]"
N        1.68436030      -0.71664930      -0.16731164
C        0.91660996       0.30863811       0.53023864
C        1.51082382       1.64247690       0.55315154
N        1.98692798       2.68635248       0.54883519
C       -0.04696835      -0.01718922      -0.56066230
C       -1.85092278       0.27104848      -0.21477106
C       -1.09237811      -1.03846207      -0.24845794
H        2.17017732      -1.31361429       0.49026047
H        2.28290794      -0.40248531      -0.91711889
H        0.61118675      -0.00006361       1.53219608
H       -1.07394425       0.88392632      -1.26503259
H       -1.94095405       0.72370968       0.77084540
H       -2.82922010       0.21407085      -0.68039245
H       -1.34960173      -1.68690603      -1.08068495
H       -0.97900471      -1.55485299       0.70890452
15
Frame=16 idx=009051 GeodesicLength=1.2570205565067765 rxn_smarts="[N:1]([C@@:2]([C:3]#[N:4])([C:5]1([H:11])[C:6]([H:12])([H:13])[C:7]1([H:14])[H:15])[H:10])([H:8])[H:9]>>[N+:1]1([H:8])([H:9])[C@:2]([C:3]#[N:4])([H:10])[C-:5]1[C:7]([C:6]([H:11])([H:12])[H:13])([H:14])[H:15]"
N        1.66492716      -0.70401030      -0.17972801
C        0.91942743       0.32146839       0.54291324
C        1.52737365       1.64803179       0.56858920
N        2.01095410       2.68843800       0.56367804
C       -0.04743278      -0.00123404      -0.54292863
C       -1.85607747       0.26551875      -0.21770683
C       -1.08643838      -1.03607903      -0.24082786
H        2.12597940      -1.33657095       0.46237725
H        2.27217358      -0.39019346      -0.92244241
H        0.62156374       0.00585482       1.54456993
H       -1.06957939       0.85401819      -1.30845267
H       -1.94675343       0.72846042       0.76334243
H       -2.83765146       0.19453399      -0.67439888
H       -1.32539815      -1.68714621      -1.07652249
H       -0.97306801      -1.55109038       0.71753769
