12
Frame=0 idx=003210 GeodesicLength=0.0 rxn_smarts="[C:1]([c:2]1[c:3]([H:10])[c:4]([H:11])[n:5][n:6]1[H:12])([H:7])([H:8])[H:9]>>[C:1]([C:2]1([N:6]([N:5])[H:12])[C:3]([H:10])=[C:4]1[H:11])([H:7])([H:8])[H:9]"
C       -1.51765227      -0.17970772      -0.29378833
C       -0.11610988       0.04336468       0.16884025
C        0.83250694      -1.05445229       0.42159009
C        1.74610390      -0.51776313      -0.29765441
N        1.48416986       1.73810925       0.08120764
N        0.35825123       1.33926485       0.36100958
H       -2.12352115       0.71053783      -0.10807321
H       -1.56906773      -0.37937515      -1.36936007
H       -1.99041566      -1.02105952       0.22074336
H        0.61583637      -2.00782969       0.89535657
H        2.57735740      -0.60302199      -0.97065656
H       -0.29745898       1.93193283       0.89078513
12
Frame=1 idx=003210 GeodesicLength=0.05947313903233375 rxn_smarts="[C:1]([c:2]1[c:3]([H:10])[c:4]([H:11])[n:5][n:6]1[H:12])([H:7])([H:8])[H:9]>>[C:1]([C:2]1([N:6]([N:5])[H:12])[C:3]([H:10])=[C:4]1[H:11])([H:7])([H:8])[H:9]"
C       -1.51789673      -0.18002015      -0.29437960
C       -0.11534441       0.03986184       0.16706842
C        0.83207082      -1.05018247       0.43614075
C        1.73726538      -0.50691487      -0.29568298
N        1.49653861       1.71538472       0.07952425
N        0.36015106       1.33786578       0.35806405
H       -2.13679584       0.69008504      -0.06192342
H       -1.57413348      -0.32962319      -1.37767671
H       -1.97610123      -1.05032154       0.18316763
H        0.62603078      -2.00326801       0.91383916
H        2.56797633      -0.61184141      -0.96741642
H       -0.29976128       1.94897426       0.85927486
12
Frame=2 idx=003210 GeodesicLength=0.11896984416653017 rxn_smarts="[C:1]([c:2]1[c:3]([H:10])[c:4]([H:11])[n:5][n:6]1[H:12])([H:7])([H:8])[H:9]>>[C:1]([C:2]1([N:6]([N:5])[H:12])[C:3]([H:10])=[C:4]1[H:11])([H:7])([H:8])[H:9]"
C       -1.51819385      -0.18023228      -0.29473251
C       -0.11443010       0.03624591       0.16495429
C        0.83149798      -1.04600124       0.45036631
C        1.72849203      -0.49661345      -0.29381628
N        1.50827570       1.69300723       0.07811846
N        0.36212219       1.33627539       0.35567031
H       -2.14889199       0.66732338      -0.01533194
H       -1.58057122      -0.27867381      -1.38338065
H       -1.96115504      -1.07809742       0.14385167
H        0.63589259      -1.99862000       0.93201545
H        2.55909421      -0.62047867      -0.96326853
H       -0.30213251       1.96586496       0.82555342
12
Frame=3 idx=003210 GeodesicLength=0.17834796252294555 rxn_smarts="[C:1]([c:2]1[c:3]([H:10])[c:4]([H:11])[n:5][n:6]1[H:12])([H:7])([H:8])[H:9]>>[C:1]([C:2]1([N:6]([N:5])[H:12])[C:3]([H:10])=[C:4]1[H:11])([H:7])([H:8])[H:9]"
C       -1.51861164      -0.18034133      -0.29489347
C       -0.11336792       0.03254062       0.16239953
C        0.83083562      -1.04188973       0.46413756
C        1.71989178      -0.48671461      -0.29208888
N        1.51938971       1.67102724       0.07719651
N        0.36407935       1.33455254       0.35386391
H       -2.15968522       0.64265573       0.03065720
H       -1.58831280      -0.22765549      -1.38637207
H       -1.94601635      -1.10361685       0.10377476
H        0.64540610      -1.99401634       0.94944706
H        2.55088522      -0.62875080      -0.95828145
H       -0.30449386       1.98220902       0.79015935
12
Frame=4 idx=003210 GeodesicLength=0.237733331165862 rxn_smarts="[C:1]([c:2]1[c:3]([H:10])[c:4]([H:11])[n:5][n:6]1[H:12])([H:7])([H:8])[H:9]>>[C:1]([C:2]1([N:6]([N:5])[H:12])[C:3]([H:10])=[C:4]1[H:11])([H:7])([H:8])[H:9]"
C       -1.51914725      -0.18033303      -0.29479213
C       -0.11216777       0.02873645       0.15950665
C        0.83004927      -1.03788554       0.47757302
C        1.71149393      -0.47723413      -0.29032302
N        1.52991373       1.64941469       0.07665842
N        0.36603106       1.33264599       0.35294966
H       -2.16921809       0.61584056       0.07660303
H       -1.59745546      -0.17598318      -1.38656743
H       -1.93046549      -1.12727453       0.06224638
H        0.65456121      -1.98943816       0.96638768
H        2.54319117      -0.63674856      -0.95255176
H       -0.30678631       1.99825942       0.75230949
12
Frame=5 idx=003210 GeodesicLength=0.2970499436264882 rxn_smarts="[C:1]([c:2]1[c:3]([H:10])[c:4]([H:11])[n:5][n:6]1[H:12])([H:7])([H:8])[H:9]>>[C:1]([C:2]1([N:6]([N:5])[H:12])[C:3]([H:10])=[C:4]1[H:11])([H:7])([H:8])[H:9]"
C       -1.51974079      -0.18022247      -0.29451006
C       -0.11082201       0.02487464       0.15613776
C        0.82911169      -1.03393538       0.49050698
C        1.70323387      -0.46798548      -0.28862006
N        1.53975162       1.62822569       0.07672271
N        0.36787919       1.33066187       0.35266683
H       -2.17728247       0.58744568       0.12124042
H       -1.60765420      -0.12489825      -1.38400039
H       -1.91490149      -1.14833943       0.02058003
H        0.66330201      -1.98496896       0.98242998
H        2.53596704      -0.64423478      -0.94612366
H       -0.30884446       2.01337686       0.71296947
12
Frame=6 idx=003210 GeodesicLength=0.35646213618818673 rxn_smarts="[C:1]([c:2]1[c:3]([H:10])[c:4]([H:11])[n:5][n:6]1[H:12])([H:7])([H:8])[H:9]>>[C:1]([C:2]1([N:6]([N:5])[H:12])[C:3]([H:10])=[C:4]1[H:11])([H:7])([H:8])[H:9]"
C       -1.52045893      -0.17999600      -0.29399730
C       -0.10937639       0.02095481       0.15229329
C        0.82796936      -1.03004753       0.50300888
C        1.69515847      -0.45896665      -0.28684434
N        1.54895845       1.60743949       0.07724788
N        0.36951602       1.32858635       0.35313228
H       -2.18395336       0.55735549       0.16501691
H       -1.61910630      -0.07405780      -1.37864721
H       -1.89919145      -1.16716361      -0.02186627
H        0.67163639      -1.98049313       0.99790720
H        2.52919671      -0.65123323      -0.93902219
H       -0.31034896       2.02762181       0.67177088
12
Frame=7 idx=003210 GeodesicLength=0.4156983002377048 rxn_smarts="[C:1]([c:2]1[c:3]([H:10])[c:4]([H:11])[n:5][n:6]1[H:12])([H:7])([H:8])[H:9]>>[C:1]([C:2]1([N:6]([N:5])[H:12])[C:3]([H:10])=[C:4]1[H:11])([H:7])([H:8])[H:9]"
C       -1.52135239      -0.17968963      -0.29338528
C       -0.10784161       0.01703311       0.14789030
C        0.82667908      -1.02615069       0.51499442
C        1.68732428      -0.45008160      -0.28511611
N        1.55758374       1.58715335       0.07838030
N        0.37089336       1.32661646       0.35389759
H       -2.18932874       0.52625139       0.20683675
H       -1.63152461      -0.02462244      -1.37083628
H       -1.88382377      -1.18334488      -0.06395640
H        0.67962413      -1.97601587       1.01262730
H        2.52294016      -0.65769222      -0.93142449
H       -0.31117364       2.04054301       0.63009192
12
Frame=8 idx=003210 GeodesicLength=0.4749138615553073 rxn_smarts="[C:1]([c:2]1[c:3]([H:10])[c:4]([H:11])[n:5][n:6]1[H:12])([H:7])([H:8])[H:9]>>[C:1]([C:2]1([N:6]([N:5])[H:12])[C:3]([H:10])=[C:4]1[H:11])([H:7])([H:8])[H:9]"
C       -1.52242894      -0.17932713      -0.29265094
C       -0.10623721       0.01312999       0.14291781
C        0.82517242      -1.02220863       0.52649959
C        1.67969490      -0.44134256      -0.28346546
N        1.56577882       1.56730086       0.08023831
N        0.37201550       1.32475511       0.35478535
H       -2.19355290       0.49383239       0.24720645
H       -1.64499837       0.02390191      -1.36056253
H       -1.86864118      -1.19721083      -0.10613026
H        0.68722907      -1.97137036       1.02688489
H        2.51720387      -0.66373296      -0.92331313
H       -0.31123600       2.05227222       0.58758990
12
Frame=9 idx=003210 GeodesicLength=0.5343894170501889 rxn_smarts="[C:1]([c:2]1[c:3]([H:10])[c:4]([H:11])[n:5][n:6]1[H:12])([H:7])([H:8])[H:9]>>[C:1]([C:2]1([N:6]([N:5])[H:12])[C:3]([H:10])=[C:4]1[H:11])([H:7])([H:8])[H:9]"
C       -1.52368861      -0.17888648      -0.29177863
C       -0.10459650       0.00924016       0.13725196
C        0.82337733      -1.01818200       0.53754935
C        1.67220539      -0.43274350      -0.28182714
N        1.57349184       1.54775995       0.08268930
N        0.37273172       1.32299877       0.35554121
H       -2.19648453       0.45986621       0.28660519
H       -1.65969817       0.07183751      -1.34775377
H       -1.85352875      -1.20888972      -0.14897714
H        0.69446921      -1.96634572       1.04101749
H        2.51196085      -0.66935709      -0.91451936
H       -0.31023978       2.06270190       0.54420151
12
Frame=10 idx=003210 GeodesicLength=0.5939853833572286 rxn_smarts="[C:1]([c:2]1[c:3]([H:10])[c:4]([H:11])[n:5][n:6]1[H:12])([H:7])([H:8])[H:9]>>[C:1]([C:2]1([N:6]([N:5])[H:12])[C:3]([H:10])=[C:4]1[H:11])([H:7])([H:8])[H:9]"
C       -1.52495110      -0.17840326      -0.29092573
C       -0.10291589       0.00538857       0.13103256
C        0.82130922      -1.01398608       0.54817842
C        1.66473706      -0.42419224      -0.28032195
N        1.58063227       1.52866487       0.08545615
N        0.37312240       1.32141191       0.35564787
H       -2.19821181       0.42524178       0.32352479
H       -1.67482020       0.11803124      -1.33291428
H       -1.83873298      -1.21810915      -0.19107225
H        0.70133183      -1.96099272       1.05483725
H        2.50682486      -0.67452492      -0.90541426
H       -0.30832566       2.07147000       0.50197142
12
Frame=11 idx=003210 GeodesicLength=0.6535651872131045 rxn_smarts="[C:1]([c:2]1[c:3]([H:10])[c:4]([H:11])[n:5][n:6]1[H:12])([H:7])([H:8])[H:9]>>[C:1]([C:2]1([N:6]([N:5])[H:12])[C:3]([H:10])=[C:4]1[H:11])([H:7])([H:8])[H:9]"
C       -1.52641617      -0.17790966      -0.29007491
C       -0.10122999       0.00156631       0.12424304
C        0.81902300      -1.00963226       0.55843701
C        1.65748017      -0.41578200      -0.27890461
N        1.58741222       1.51000095       0.08849725
N        0.37317307       1.32005583       0.35515004
H       -2.19896146       0.38973182       0.35863797
H       -1.69070846       0.16279173      -1.31607525
H       -1.82437246      -1.22516994      -0.23314374
H        0.70791188      -1.95519903       1.06861486
H        2.50210382      -0.67943652      -0.89596339
H       -0.30541562       2.07898277       0.46058172
12
Frame=12 idx=003210 GeodesicLength=0.7131875329085916 rxn_smarts="[C:1]([c:2]1[c:3]([H:10])[c:4]([H:11])[n:5][n:6]1[H:12])([H:7])([H:8])[H:9]>>[C:1]([C:2]1([N:6]([N:5])[H:12])[C:3]([H:10])=[C:4]1[H:11])([H:7])([H:8])[H:9]"
C       -1.52803218      -0.17740273      -0.28920416
C       -0.09953194      -0.00222645       0.11690259
C        0.81648752      -1.00513498       0.56834524
C        1.65036829      -0.40753703      -0.27760137
N        1.59386124       1.49172680       0.09178185
N        0.37294662       1.31891077       0.35393456
H       -2.19875002       0.35308037       0.39216344
H       -1.70736628       0.20647897      -1.29711911
H       -1.81031102      -1.23016669      -0.27541982
H        0.71419749      -1.94893900       1.08247837
H        2.49775177      -0.68419203      -0.88607204
H       -0.30162149       2.08540200       0.41981045
12
Frame=13 idx=003210 GeodesicLength=0.7729354053991231 rxn_smarts="[C:1]([c:2]1[c:3]([H:10])[c:4]([H:11])[n:5][n:6]1[H:12])([H:7])([H:8])[H:9]>>[C:1]([C:2]1([N:6]([N:5])[H:12])[C:3]([H:10])=[C:4]1[H:11])([H:7])([H:8])[H:9]"
C       -1.52971682      -0.17688741      -0.28830880
C       -0.09782538      -0.00599307       0.10912924
C        0.81369254      -1.00046789       0.57791920
C        1.64334007      -0.39942657      -0.27644371
N        1.59994666       1.47379883       0.09526342
N        0.37246883       1.31792843       0.35204667
H       -2.19759834       0.31552183       0.42385846
H       -1.72450983       0.24882327      -1.27618663
H       -1.79658408      -1.23306315      -0.31758195
H        0.72017382      -1.94222856       1.09630518
H        2.49364607      -0.68876463      -0.87583438
H       -0.29703356       2.09075893       0.37983330
12
Frame=14 idx=003210 GeodesicLength=0.8327692329722612 rxn_smarts="[C:1]([c:2]1[c:3]([H:10])[c:4]([H:11])[n:5][n:6]1[H:12])([H:7])([H:8])[H:9]>>[C:1]([C:2]1([N:6]([N:5])[H:12])[C:3]([H:10])=[C:4]1[H:11])([H:7])([H:8])[H:9]"
C       -1.53148133      -0.17636354      -0.28739777
C       -0.09611821      -0.00974464       0.10098398
C        0.81065444      -0.99565359       0.58720316
C        1.63639893      -0.39148031      -0.27542608
N        1.60569997       1.45621525       0.09879893
N        0.37179447       1.31711193       0.34947827
H       -2.19557847       0.27694145       0.45380597
H       -1.74208636       0.28994644      -1.25328473
H       -1.78321020      -1.23390656      -0.35983666
H        0.72589348      -1.93502539       1.11028482
H        2.48973761      -0.69323738      -0.86529069
H       -0.29170434       2.09519633       0.34068082
12
Frame=15 idx=003210 GeodesicLength=0.8926578180082132 rxn_smarts="[C:1]([c:2]1[c:3]([H:10])[c:4]([H:11])[n:5][n:6]1[H:12])([H:7])([H:8])[H:9]>>[C:1]([C:2]1([N:6]([N:5])[H:12])[C:3]([H:10])=[C:4]1[H:11])([H:7])([H:8])[H:9]"
C       -1.53329593      -0.17584152      -0.28645921
C       -0.09441680      -0.01348793       0.09258363
C        0.80739719      -0.99070809       0.59620941
C        1.62952683      -0.38368399      -0.27457288
N        1.61113339       1.43896387       0.10240521
N        0.37094575       1.31644618       0.34631732
H       -2.19277767       0.23754896       0.48183870
H       -1.75990792       0.32967402      -1.22853020
H       -1.77025397      -1.23271968      -0.40192813
H        0.73138895      -1.92740540       1.12430696
H        2.48597790      -0.69759610      -0.85451707
H       -0.28571773       2.09880967       0.30234624
12
Frame=16 idx=003210 GeodesicLength=0.9526328786081769 rxn_smarts="[C:1]([c:2]1[c:3]([H:10])[c:4]([H:11])[n:5][n:6]1[H:12])([H:7])([H:8])[H:9]>>[C:1]([C:2]1([N:6]([N:5])[H:12])[C:3]([H:10])=[C:4]1[H:11])([H:7])([H:8])[H:9]"
C       -1.53511214      -0.17531580      -0.28548649
C       -0.09272624      -0.01723469       0.08403621
C        0.80393384      -0.98564476       0.60495739
C        1.62268072      -0.37601454      -0.27388622
N        1.61621492       1.42202166       0.10604817
N        0.36993790       1.31589027       0.34265559
H       -2.18923737       0.19754162       0.50783931
H       -1.77773567       0.36784033      -1.20209314
H       -1.75775876      -1.22951935      -0.44365358
H        0.73669637      -1.91940775       1.13832527
H        2.48224030      -0.70180586      -0.84361309
H       -0.27913388       2.10164887       0.26487058
