11
Frame=0 idx=001838 GeodesicLength=0.0 rxn_smarts="[N:1]([c:2]1[c:3]([H:9])[o:4][c:5]([H:10])[c:6]1[H:11])([H:7])[H:8]>>[N:1]([C:2]([C:3](=[O:4])[H:9])=[C:6]=[C:5]([H:10])[H:11])([H:7])[H:8]"
N        1.93374615      -0.17728701      -0.22375072
C        0.56660242      -0.02499032      -0.01792037
C       -0.12517133       1.11171661       0.23830415
O       -1.46348968       0.88866408       0.29276109
C       -1.59279585      -0.45877912       0.05476845
C       -0.36020888      -1.14432065      -0.06794595
H        2.52468757       0.45503182       0.28993837
H        2.22322754      -1.13601421      -0.11550790
H        0.17586823       2.14023831       0.36679047
H       -2.57538501      -0.86032607       0.26210438
H       -1.30708120      -0.79393339      -1.07954194
11
Frame=1 idx=001838 GeodesicLength=0.10931220113146209 rxn_smarts="[N:1]([c:2]1[c:3]([H:9])[o:4][c:5]([H:10])[c:6]1[H:11])([H:7])[H:8]>>[N:1]([C:2]([C:3](=[O:4])[H:9])=[C:6]=[C:5]([H:10])[H:11])([H:7])[H:8]"
N        1.93217143      -0.17349102      -0.22348143
C        0.56460403      -0.02225914      -0.01640090
C       -0.12363464       1.12326372       0.23296816
O       -1.45871754       0.90865905       0.28528532
C       -1.60095802      -0.46660944       0.04733158
C       -0.36409364      -1.13329362      -0.06828557
H        2.52097560       0.45197190       0.30123095
H        2.22202281      -1.13323706      -0.12549109
H        0.19549099       2.14411589       0.38227764
H       -2.57637260      -0.87297772       0.27681020
H       -1.31148842      -0.82614256      -1.09224486
11
Frame=2 idx=001838 GeodesicLength=0.2186137279243242 rxn_smarts="[N:1]([c:2]1[c:3]([H:9])[o:4][c:5]([H:10])[c:6]1[H:11])([H:7])[H:8]>>[N:1]([C:2]([C:3](=[O:4])[H:9])=[C:6]=[C:5]([H:10])[H:11])([H:7])[H:8]"
N        1.93042827      -0.16967686      -0.22319417
C        0.56244317      -0.01923243      -0.01496066
C       -0.12186976       1.13509990       0.22833942
O       -1.45374246       0.92934634       0.27840527
C       -1.60935575      -0.47452059       0.03945734
C       -0.36824709      -1.12181425      -0.06929294
H        2.51718251       0.44873635       0.31234609
H        2.22048751      -1.13036669      -0.13530454
H        0.21514688       2.14772440       0.39752044
H       -2.57697023      -0.88568844       0.29138962
H       -1.31550304      -0.85960772      -1.10470588
11
Frame=3 idx=001838 GeodesicLength=0.3279103077702554 rxn_smarts="[N:1]([c:2]1[c:3]([H:9])[o:4][c:5]([H:10])[c:6]1[H:11])([H:7])[H:8]>>[N:1]([C:2]([C:3](=[O:4])[H:9])=[C:6]=[C:5]([H:10])[H:11])([H:7])[H:8]"
N        1.92850368      -0.16585699      -0.22296481
C        0.56009780      -0.01586660      -0.01377998
C       -0.11987865       1.14730163       0.22414166
O       -1.44856444       0.95085490       0.27184190
C       -1.61801070      -0.48249234       0.03107823
C       -0.37268992      -1.10984370      -0.07087915
H        2.51328406       0.44538872       0.32313966
H        2.21859377      -1.12741060      -0.14485218
H        0.23491460       2.15099989       0.41318166
H       -2.57716358      -0.89837593       0.30587407
H       -1.31908661      -0.89469899      -1.11678105
11
Frame=4 idx=001838 GeodesicLength=0.43719300501710134 rxn_smarts="[N:1]([c:2]1[c:3]([H:9])[o:4][c:5]([H:10])[c:6]1[H:11])([H:7])[H:8]>>[N:1]([C:2]([C:3](=[O:4])[H:9])=[C:6]=[C:5]([H:10])[H:11])([H:7])[H:8]"
N        1.92639332      -0.16202927      -0.22263757
C        0.55756384      -0.01221532      -0.01265605
C       -0.11762324       1.15965699       0.22150805
O       -1.44313789       0.97299758       0.26664207
C       -1.62693699      -0.49060112       0.02217360
C       -0.37745123      -1.09737343      -0.07348996
H        2.50928094       0.44178389       0.33393377
H        2.21633494      -1.12439890      -0.15424395
H        0.25473495       2.15435136       0.42739456
H       -2.57693574      -0.91126250       0.31999729
H       -1.32222291      -0.93090927      -1.12862181
11
Frame=5 idx=001838 GeodesicLength=0.5464813688838854 rxn_smarts="[N:1]([c:2]1[c:3]([H:9])[o:4][c:5]([H:10])[c:6]1[H:11])([H:7])[H:8]>>[N:1]([C:2]([C:3](=[O:4])[H:9])=[C:6]=[C:5]([H:10])[H:11])([H:7])[H:8]"
N        1.92408153      -0.15818130      -0.22240236
C        0.55481001      -0.00816849      -0.01196839
C       -0.11513496       1.17240270       0.21940405
O       -1.43748347       0.99608505       0.26182413
C       -1.63615659      -0.49877797       0.01265106
C       -0.38254371      -1.08432966      -0.07675995
H        2.50512151       0.43803196       0.34446714
H        2.21366506      -1.12131116      -0.16343091
H        0.27475354       2.15746418       0.44213099
H       -2.57627530      -0.92408356       0.33393403
H       -1.32483762      -0.96913175      -1.13984978
11
Frame=6 idx=001838 GeodesicLength=0.6557478697805249 rxn_smarts="[N:1]([c:2]1[c:3]([H:9])[o:4][c:5]([H:10])[c:6]1[H:11])([H:7])[H:8]>>[N:1]([C:2]([C:3](=[O:4])[H:9])=[C:6]=[C:5]([H:10])[H:11])([H:7])[H:8]"
N        1.92156032      -0.15431006      -0.22209100
C        0.55182669      -0.00377336      -0.01152160
C       -0.11239134       1.18534844       0.21887005
O       -1.43156571       1.01991763       0.25849772
C       -1.64568700      -0.50710207       0.00247831
C       -0.38800125      -1.07069593      -0.08114447
H        2.50078824       0.43396879       0.35509199
H        2.21056970      -1.11817379      -0.17252319
H        0.29497728       2.16080450       0.45553787
H       -2.57516725      -0.93707564       0.34739697
H       -1.32690967      -1.00890850      -1.15059266
11
Frame=7 idx=001838 GeodesicLength=0.7650038667359859 rxn_smarts="[N:1]([c:2]1[c:3]([H:9])[o:4][c:5]([H:10])[c:6]1[H:11])([H:7])[H:8]>>[N:1]([C:2]([C:3](=[O:4])[H:9])=[C:6]=[C:5]([H:10])[H:11])([H:7])[H:8]"
N        1.91881436      -0.15039785      -0.22179972
C        0.54858803       0.00104947      -0.01153626
C       -0.10940742       1.19862072       0.21943465
O       -1.42538180       1.04467223       0.25625765
C       -1.65554870      -0.51554278      -0.00843592
C       -0.39384530      -1.05639595      -0.08653824
H        2.49623419       0.42961793       0.36572371
H        2.20700647      -1.11497270      -0.18154721
H        0.31549824       2.16423007       0.46856463
H       -2.57360330      -0.95008507       0.36041846
H       -1.32835476      -1.05079606      -1.16054175
11
Frame=8 idx=001838 GeodesicLength=0.8742096438181932 rxn_smarts="[N:1]([c:2]1[c:3]([H:9])[o:4][c:5]([H:10])[c:6]1[H:11])([H:7])[H:8]>>[N:1]([C:2]([C:3](=[O:4])[H:9])=[C:6]=[C:5]([H:10])[H:11])([H:7])[H:8]"
N        1.91583715      -0.14641712      -0.22147279
C        0.54507771       0.00633398      -0.01203710
C       -0.10615967       1.21220121       0.22139182
O       -1.41894164       1.07031117       0.25552620
C       -1.66576373      -0.52413225      -0.02016151
C       -0.40011821      -1.04137209      -0.09316018
H        2.49141630       0.42486848       0.37658149
H        2.20293639      -1.11170060      -0.19062032
H        0.33641289       2.16794773       0.48066961
H       -2.57157266      -0.96316961       0.37284994
H       -1.32912453      -1.09487090      -1.16956717
11
Frame=9 idx=001838 GeodesicLength=0.9834627056643651 rxn_smarts="[N:1]([c:2]1[c:3]([H:9])[o:4][c:5]([H:10])[c:6]1[H:11])([H:7])[H:8]>>[N:1]([C:2]([C:3](=[O:4])[H:9])=[C:6]=[C:5]([H:10])[H:11])([H:7])[H:8]"
N        1.91258026      -0.14236084      -0.22127046
C        0.54125457       0.01215685      -0.01320002
C       -0.10273050       1.22619989       0.22418347
O       -1.41214682       1.09712555       0.25562389
C       -1.67633854      -0.53280678      -0.03284067
C       -0.40681106      -1.02549714      -0.10086831
H        2.48627441       0.41975339       0.38742904
H        2.19830936      -1.10833870      -0.19982252
H        0.35766631       2.17160374       0.49318383
H       -2.56907729      -0.97604132       0.38472181
H       -1.32898071      -1.14179464      -1.17714006
11
Frame=10 idx=001838 GeodesicLength=1.092671015565406 rxn_smarts="[N:1]([c:2]1[c:3]([H:9])[o:4][c:5]([H:10])[c:6]1[H:11])([H:7])[H:8]>>[N:1]([C:2]([C:3](=[O:4])[H:9])=[C:6]=[C:5]([H:10])[H:11])([H:7])[H:8]"
N        1.90905863      -0.13819026      -0.22103351
C        0.53711057       0.01856233      -0.01505748
C       -0.09903729       1.24053703       0.22843440
O       -1.40505828       1.12495222       0.25744417
C       -1.68730107      -0.54164479      -0.04654154
C       -0.41399781      -1.00869505      -0.11016588
H        2.48074341       0.41407296       0.39871497
H        2.19307874      -1.10487181      -0.20927279
H        0.37942927       2.17561558       0.50481471
H       -2.56608255      -0.98889801       0.39581536
H       -1.32794361      -1.19144019      -1.18315241
11
Frame=11 idx=001838 GeodesicLength=1.2018875561611257 rxn_smarts="[N:1]([c:2]1[c:3]([H:9])[o:4][c:5]([H:10])[c:6]1[H:11])([H:7])[H:8]>>[N:1]([C:2]([C:3](=[O:4])[H:9])=[C:6]=[C:5]([H:10])[H:11])([H:7])[H:8]"
N        1.90524862      -0.13386827      -0.22086051
C        0.53261094       0.02567063      -0.01786987
C       -0.09511191       1.25531981       0.23381663
O       -1.39761576       1.15400555       0.26048349
C       -1.69866796      -0.55061319      -0.06143584
C       -0.42169723      -0.99081418      -0.12117053
H        2.47472828       0.40774774       0.41044433
H        2.18718310      -1.10126383      -0.21914410
H        0.40167593       2.17973838       0.51653041
H       -2.56253513      -1.00149843       0.40619609
H       -1.32581887      -1.24442420      -1.18699010
11
Frame=12 idx=001838 GeodesicLength=1.3110868818065424 rxn_smarts="[N:1]([c:2]1[c:3]([H:9])[o:4][c:5]([H:10])[c:6]1[H:11])([H:7])[H:8]>>[N:1]([C:2]([C:3](=[O:4])[H:9])=[C:6]=[C:5]([H:10])[H:11])([H:7])[H:8]"
N        1.90112210      -0.12936813      -0.22067788
C        0.52772383       0.03355896      -0.02172377
C       -0.09094113       1.27049970       0.24068573
O       -1.38982834       1.18427862       0.26510624
C       -1.71045596      -0.55974908      -0.07767311
C       -0.42996142      -0.97169229      -0.13437350
H        2.46810652       0.40056478       0.42290347
H        2.18054669      -1.09748837      -0.22960985
H        0.42449567       2.18415531       0.52782753
H       -2.55834306      -1.01387630       0.41573314
H       -1.32246490      -1.30088320      -1.18819801
11
Frame=13 idx=001838 GeodesicLength=1.4202260157025917 rxn_smarts="[N:1]([c:2]1[c:3]([H:9])[o:4][c:5]([H:10])[c:6]1[H:11])([H:7])[H:8]>>[N:1]([C:2]([C:3](=[O:4])[H:9])=[C:6]=[C:5]([H:10])[H:11])([H:7])[H:8]"
N        1.89664741      -0.12464323      -0.22067844
C        0.52241539       0.04240184      -0.02700523
C       -0.08652297       1.28624444       0.24850567
O       -1.38163627       1.21605965       0.27027837
C       -1.72268672      -0.56900764      -0.09551990
C       -0.43883872      -0.95109197      -0.15006691
H        2.46075480       0.39245605       0.43596948
H        2.17308268      -1.09348699      -0.24089783
H        0.44775659       2.18833208       0.54050008
H       -2.55339417      -1.02558390       0.42458234
H       -1.31757802      -1.36168032      -1.18566764
11
Frame=14 idx=001838 GeodesicLength=1.5293484349672384 rxn_smarts="[N:1]([c:2]1[c:3]([H:9])[o:4][c:5]([H:10])[c:6]1[H:11])([H:7])[H:8]>>[N:1]([C:2]([C:3](=[O:4])[H:9])=[C:6]=[C:5]([H:10])[H:11])([H:7])[H:8]"
N        1.89175730      -0.11973532      -0.22070199
C        0.51663858       0.05221768      -0.03356413
C       -0.08187179       1.30236427       0.25798286
O       -1.37304741       1.24927509       0.27672834
C       -1.73541395      -0.57848398      -0.11518914
C       -0.44842791      -0.92874374      -0.16925502
H        2.45254922       0.38319480       0.44987803
H        2.16469025      -1.08928430      -0.25301329
H        0.47157422       2.19260866       0.55339190
H       -2.54748394      -1.03683700       0.43257883
H       -1.31096458      -1.42657616      -1.17883638
11
Frame=15 idx=001838 GeodesicLength=1.6383877502385589 rxn_smarts="[N:1]([c:2]1[c:3]([H:9])[o:4][c:5]([H:10])[c:6]1[H:11])([H:7])[H:8]>>[N:1]([C:2]([C:3](=[O:4])[H:9])=[C:6]=[C:5]([H:10])[H:11])([H:7])[H:8]"
N        1.88636280      -0.11473845      -0.22061460
C        0.51032647       0.06308835      -0.04147726
C       -0.07701301       1.31877869       0.26931288
O       -1.36407470       1.28389954       0.28478803
C       -1.74867324      -0.58823898      -0.13691031
C       -0.45884329      -0.90418605      -0.19329078
H        2.44325774       0.37252982       0.46483396
H        2.15520893      -1.08495883      -0.26585073
H        0.49595549       2.19705175       0.56617826
H       -2.54012814      -1.04776595       0.43984928
H       -1.30237906      -1.49545988      -1.16681873
11
Frame=16 idx=001838 GeodesicLength=1.7472610833893736 rxn_smarts="[N:1]([c:2]1[c:3]([H:9])[o:4][c:5]([H:10])[c:6]1[H:11])([H:7])[H:8]>>[N:1]([C:2]([C:3](=[O:4])[H:9])=[C:6]=[C:5]([H:10])[H:11])([H:7])[H:8]"
N        1.88033269      -0.10992246      -0.21982644
C        0.50337405       0.07502799      -0.05056532
C       -0.07200881       1.33521847       0.28310879
O       -1.35468500       1.31948765       0.29644236
C       -1.76253674      -0.59840114      -0.16075884
C       -0.47028728      -0.87658431      -0.22460773
H        2.43250515       0.35994836       0.48158677
H        2.14435742      -1.08075374      -0.27881136
H        0.52096275       2.20233614       0.57609393
H       -2.53029785      -1.05923096       0.44675103
H       -1.29171637      -1.56712600      -1.14941318
