13
Frame=0 idx=010374 GeodesicLength=0.0 rxn_smarts="[N:1]#[C:2][C@@:3]1([H:8])[C:4]([H:9])([H:10])[C@@:5]2([H:11])[C:6]([H:12])([H:13])[N:7]12>>[N:1]#[C:2][C-:3]1[C:4]([H:9])([H:10])[C@@:5]2([H:11])[C:6]([H:12])([H:13])[N+:7]12[H:8]"
N        2.62639557      -1.12432175       1.26565917
C        1.84818072      -0.37725586       0.85240348
C        0.91051223       0.56198578       0.36487850
C        0.42121161       0.58498695      -1.08811544
C       -0.97841207       0.34911525      -0.53544846
C       -1.13639736      -0.88870111       0.28300760
N       -0.55635732       0.31186320       0.87196741
H       -0.01012771       1.16499071       1.34365793
H        0.79038630      -0.19464852      -1.75748660
H        0.53606271       1.55164229      -1.57722925
H       -1.86337205       0.90551258      -0.82132079
H       -0.45299753      -1.72224215       0.16845155
H       -2.13508513      -1.12292734       0.62957486
13
Frame=1 idx=010374 GeodesicLength=0.044807435432361334 rxn_smarts="[N:1]#[C:2][C@@:3]1([H:8])[C:4]([H:9])([H:10])[C@@:5]2([H:11])[C:6]([H:12])([H:13])[N:7]12>>[N:1]#[C:2][C-:3]1[C:4]([H:9])([H:10])[C@@:5]2([H:11])[C:6]([H:12])([H:13])[N+:7]12[H:8]"
N        2.62201307      -1.12930728       1.26228778
C        1.84467850      -0.37923620       0.85321347
C        0.90663715       0.56210671       0.36723568
C        0.42027839       0.58466751      -1.08726661
C       -0.98001654       0.34709247      -0.53761750
C       -1.13387491      -0.88901502       0.28197903
N       -0.55611219       0.31280308       0.87100954
H       -0.00490647       1.17708231       1.34638026
H        0.79170954      -0.19457183      -1.75575495
H        0.53542507       1.55200298      -1.57488623
H       -1.86512675       0.90272778      -0.82425060
H       -0.44967954      -1.72171179       0.16566963
H       -2.13102533      -1.12464073       0.63200049
13
Frame=2 idx=010374 GeodesicLength=0.08961106886613254 rxn_smarts="[N:1]#[C:2][C@@:3]1([H:8])[C:4]([H:9])([H:10])[C@@:5]2([H:11])[C:6]([H:12])([H:13])[N:7]12>>[N:1]#[C:2][C-:3]1[C:4]([H:9])([H:10])[C@@:5]2([H:11])[C:6]([H:12])([H:13])[N+:7]12[H:8]"
N        2.61765325      -1.13421033       1.25896572
C        1.84115127      -0.38124018       0.85403379
C        0.90273656       0.56220359       0.36960892
C        0.41932823       0.58434489      -1.08639698
C       -0.98163102       0.34505067      -0.53977637
C       -1.13138923      -0.88936185       0.28091599
N       -0.55591293       0.31368002       0.87006662
H        0.00056249       1.18930045       1.34904971
H        0.79302040      -0.19448145      -1.75401084
H        0.53476091       1.55236458      -1.57251112
H       -1.86688223       0.89994508      -0.82715572
H       -0.44639803      -1.72120948       0.16285625
H       -2.12699967      -1.12638600       0.63435403
13
Frame=3 idx=010374 GeodesicLength=0.13440570576471886 rxn_smarts="[N:1]#[C:2][C@@:3]1([H:8])[C:4]([H:9])([H:10])[C@@:5]2([H:11])[C:6]([H:12])([H:13])[N:7]12>>[N:1]#[C:2][C-:3]1[C:4]([H:9])([H:10])[C@@:5]2([H:11])[C:6]([H:12])([H:13])[N+:7]12[H:8]"
N        2.61335375      -1.13898989       1.25571617
C        1.83759498      -0.38328382       0.85485757
C        0.89880876       0.56226602       0.37199809
C        0.41835917       0.58401475      -1.08550637
C       -0.98325848       0.34299352      -0.54192405
C       -1.12895037      -0.88974306       0.27981128
N       -0.55576060       0.31448411       0.86913928
H        0.00629334       1.20163664       1.35166679
H        0.79431053      -0.19438169      -1.75225769
H        0.53407350       1.55272268      -1.57010251
H       -1.86863689       0.89717992      -0.83002698
H       -0.44316665      -1.72073950       0.16000354
H       -2.12302104      -1.12815969       0.63662489
13
Frame=4 idx=010374 GeodesicLength=0.17918481078219145 rxn_smarts="[N:1]#[C:2][C@@:3]1([H:8])[C:4]([H:9])([H:10])[C@@:5]2([H:11])[C:6]([H:12])([H:13])[N:7]12>>[N:1]#[C:2][C-:3]1[C:4]([H:9])([H:10])[C@@:5]2([H:11])[C:6]([H:12])([H:13])[N+:7]12[H:8]"
N        2.60914888      -1.14361015       1.25255868
C        1.83400569      -0.38538054       0.85567932
C        0.89485172       0.56228523       0.37440356
C        0.41736950       0.58367327      -1.08459432
C       -0.98490180       0.34092419      -0.54405992
C       -1.12656756      -0.89016008       0.27865845
N       -0.55565681       0.31520666       0.86822813
H        0.01229998       1.21408325       1.35423160
H        0.79557291      -0.19427640      -1.75049813
H        0.53336586       1.55307336      -1.56765903
H       -1.87038949       0.89444600      -0.83285677
H       -0.43999740      -1.72030568       0.15710519
H       -2.11910147      -1.12995911       0.63880323
13
Frame=5 idx=010374 GeodesicLength=0.2239495197071049 rxn_smarts="[N:1]#[C:2][C@@:3]1([H:8])[C:4]([H:9])([H:10])[C@@:5]2([H:11])[C:6]([H:12])([H:13])[N:7]12>>[N:1]#[C:2][C-:3]1[C:4]([H:9])([H:10])[C@@:5]2([H:11])[C:6]([H:12])([H:13])[N+:7]12[H:8]"
N        2.60507296      -1.14803617       1.24951212
C        1.83037906      -0.38754347       0.85649429
C        0.89086293       0.56225240       0.37682624
C        0.41635738       0.58331658      -1.08365999
C       -0.98656395       0.33884586      -0.54618301
C       -1.12424996      -0.89061490       0.27745067
N       -0.55560325       0.31583798       0.86733409
H        0.01859724       1.22663593       1.35674279
H        0.79680044      -0.19416945      -1.74873438
H        0.53264101       1.55341249      -1.56517894
H       -1.87213889       0.89175713      -0.83563704
H       -0.43690201      -1.71991206       0.15415462
H       -2.11525296      -1.13178229       0.64087854
13
Frame=6 idx=010374 GeodesicLength=0.2686872559216783 rxn_smarts="[N:1]#[C:2][C@@:3]1([H:8])[C:4]([H:9])([H:10])[C@@:5]2([H:11])[C:6]([H:12])([H:13])[N:7]12>>[N:1]#[C:2][C-:3]1[C:4]([H:9])([H:10])[C@@:5]2([H:11])[C:6]([H:12])([H:13])[N+:7]12[H:8]"
N        2.60116869      -1.15222846       1.24659019
C        1.82670869      -0.38978702       0.85730025
C        0.88683947       0.56215872       0.37926847
C        0.41532179       0.58294050      -1.08270178
C       -0.98824854       0.33676227      -0.54829293
C       -1.12200912      -0.89110852       0.27618126
N       -0.55560365       0.31637004       0.86645839
H        0.02519995       1.23928541       1.35919859
H        0.79798687      -0.19406647      -1.74696711
H        0.53190525       1.55373590      -1.56265907
H       -1.87388464       0.88912650      -0.83836278
H       -0.43389480      -1.71956242       0.15114472
H       -2.11148996      -1.13362646       0.64284179
13
Frame=7 idx=010374 GeodesicLength=0.3134359620774139 rxn_smarts="[N:1]#[C:2][C@@:3]1([H:8])[C:4]([H:9])([H:10])[C@@:5]2([H:11])[C:6]([H:12])([H:13])[N:7]12>>[N:1]#[C:2][C-:3]1[C:4]([H:9])([H:10])[C@@:5]2([H:11])[C:6]([H:12])([H:13])[N+:7]12[H:8]"
N        2.59748184      -1.15614541       1.24380975
C        1.82298489      -0.39213059       0.85809583
C        0.88277715       0.56199058       0.38173220
C        0.41425965       0.58253971      -1.08171721
C       -0.98995823       0.33467864      -0.55038729
C       -1.11985552      -0.89164414       0.27484079
N       -0.55565975       0.31678800       0.86560223
H        0.03212401       1.25204133       1.36159570
H        0.79912157      -0.19397280      -1.74519613
H        0.53116369       1.55403756      -1.56009515
H       -1.87562443       0.88657061      -0.84102524
H       -0.43099053      -1.71926207       0.14806467
H       -2.10782435      -1.13549142       0.64467986
13
Frame=8 idx=010374 GeodesicLength=0.35817499054893875 rxn_smarts="[N:1]#[C:2][C@@:3]1([H:8])[C:4]([H:9])([H:10])[C@@:5]2([H:11])[C:6]([H:12])([H:13])[N:7]12>>[N:1]#[C:2][C-:3]1[C:4]([H:9])([H:10])[C@@:5]2([H:11])[C:6]([H:12])([H:13])[N+:7]12[H:8]"
N        2.59395181      -1.15984492       1.24115147
C        1.81921575      -0.39454541       0.85888768
C        0.87867377       0.56176571       0.38422072
C        0.41317208       0.58212188      -1.08070479
C       -0.99169299       0.33258716      -0.55246874
C       -1.11777672      -0.89222320       0.27343678
N       -0.55577562       0.31710339       0.86476530
H        0.03938261       1.26491352       1.36392346
H        0.80021872      -0.19387846      -1.74341723
H        0.53040559       1.55432557      -1.55748813
H       -1.87736488       0.88406818      -0.84363370
H       -0.42816671      -1.71900614       0.14492705
H       -2.10424340      -1.13738728       0.64640014
13
Frame=9 idx=010374 GeodesicLength=0.4028848544579118 rxn_smarts="[N:1]#[C:2][C@@:3]1([H:8])[C:4]([H:9])([H:10])[C@@:5]2([H:11])[C:6]([H:12])([H:13])[N:7]12>>[N:1]#[C:2][C-:3]1[C:4]([H:9])([H:10])[C@@:5]2([H:11])[C:6]([H:12])([H:13])[N+:7]12[H:8]"
N        2.59055744      -1.16335225       1.23860106
C        1.81539975      -0.39702295       0.85968214
C        0.87452735       0.56149027       0.38673635
C        0.41205967       0.58169121      -1.07966352
C       -0.99345135       0.33048522      -0.55453916
C       -1.11576741      -0.89284725       0.27197329
N       -0.55595276       0.31732084       0.86394844
H        0.04697605       1.27791389       1.36617462
H        0.80128369      -0.19377854      -1.74162743
H        0.52962990       1.55460462      -1.55483643
H       -1.87910717       0.88160974      -0.84619517
H       -0.42541549      -1.71879359       0.14173556
H       -2.10073966      -1.13932122       0.64801025
13
Frame=10 idx=010374 GeodesicLength=0.44758272760899054 rxn_smarts="[N:1]#[C:2][C@@:3]1([H:8])[C:4]([H:9])([H:10])[C@@:5]2([H:11])[C:6]([H:12])([H:13])[N:7]12>>[N:1]#[C:2][C-:3]1[C:4]([H:9])([H:10])[C@@:5]2([H:11])[C:6]([H:12])([H:13])[N+:7]12[H:8]"
N        2.58725958      -1.16670997       1.23613065
C        1.81153666      -0.39954324       0.86049341
C        0.87033299       0.56117543       0.38928498
C        0.41092273       0.58125329      -1.07858916
C       -0.99523272       0.32836716      -0.55659958
C       -1.11381965      -0.89351881       0.27045466
N       -0.55619695       0.31744567       0.86315225
H        0.05492170       1.29106295       1.36833699
H        0.80232690      -0.19366499      -1.73981940
H        0.52883092       1.55488062      -1.55213659
H       -1.88085636       0.87917526      -0.84872087
H       -0.42272119      -1.71862159       0.13849977
H       -2.09730460      -1.14130177       0.64951289
13
Frame=11 idx=010374 GeodesicLength=0.4922727206210561 rxn_smarts="[N:1]#[C:2][C@@:3]1([H:8])[C:4]([H:9])([H:10])[C@@:5]2([H:11])[C:6]([H:12])([H:13])[N:7]12>>[N:1]#[C:2][C-:3]1[C:4]([H:9])([H:10])[C@@:5]2([H:11])[C:6]([H:12])([H:13])[N+:7]12[H:8]"
N        2.58401824      -1.16996430       1.23371268
C        1.80762805      -0.40208973       0.86133385
C        0.86608821       0.56083208       0.39187237
C        0.40976293       0.58081470      -1.07747764
C       -0.99703574       0.32622748      -0.55865132
C       -1.11192436      -0.89424009       0.26888672
N       -0.55651181       0.31748508       0.86237760
H        0.06322578       1.30438515       1.37039920
H        0.80336020      -0.19353053      -1.73798470
H        0.52800146       1.55516062      -1.54938563
H       -1.88261710       0.87674401      -0.85122429
H       -0.42006863      -1.71848729       0.13522286
H       -2.09392721      -1.14333717       0.65091831
13
Frame=12 idx=010374 GeodesicLength=0.5369506674311848 rxn_smarts="[N:1]#[C:2][C@@:3]1([H:8])[C:4]([H:9])([H:10])[C@@:5]2([H:11])[C:6]([H:12])([H:13])[N:7]12>>[N:1]#[C:2][C-:3]1[C:4]([H:9])([H:10])[C@@:5]2([H:11])[C:6]([H:12])([H:13])[N+:7]12[H:8]"
N        2.58079840      -1.17314832       1.23132514
C        1.80367172      -0.40464702       0.86221395
C        0.86178792       0.56046920       0.39450413
C        0.40858048       0.58037991      -1.07632526
C       -0.99885873       0.32406138      -0.56069516
C       -1.11007439      -0.89501239       0.26727433
N       -0.55690238       0.31744370       0.86162596
H        0.07190398       1.31789487       1.37234456
H        0.80439335      -0.19336728      -1.73611610
H        0.52713626       1.55544968      -1.54657955
H       -1.88439228       0.87430053      -0.85371275
H       -0.41744600      -1.71838760       0.13191116
H       -2.09059833      -1.14543668       0.65222960
13
Frame=13 idx=010374 GeodesicLength=0.5816265570438146 rxn_smarts="[N:1]#[C:2][C@@:3]1([H:8])[C:4]([H:9])([H:10])[C@@:5]2([H:11])[C:6]([H:12])([H:13])[N:7]12>>[N:1]#[C:2][C-:3]1[C:4]([H:9])([H:10])[C@@:5]2([H:11])[C:6]([H:12])([H:13])[N+:7]12[H:8]"
N        2.57767805      -1.17616920       1.22903825
C        1.79965779      -0.40725667       0.86310976
C        0.85742985       0.56006148       0.39717608
C        0.40736903       0.57993926      -1.07513343
C       -1.00070898       0.32188167      -0.56272647
C       -1.10828889      -0.89583752       0.26560040
N       -0.55736643       0.31729828       0.86089811
H        0.08098588       1.33157550       1.37417505
H        0.80540206      -0.19318423      -1.73422451
H        0.52624070       1.55573930      -1.54371366
H       -1.88617730       0.87187773      -0.85616843
H       -0.41488415      -1.71833042       0.12853699
H       -2.08733761      -1.14759519       0.65343186
13
Frame=14 idx=010374 GeodesicLength=0.6262915715381981 rxn_smarts="[N:1]#[C:2][C@@:3]1([H:8])[C:4]([H:9])([H:10])[C@@:5]2([H:11])[C:6]([H:12])([H:13])[N:7]12>>[N:1]#[C:2][C-:3]1[C:4]([H:9])([H:10])[C@@:5]2([H:11])[C:6]([H:12])([H:13])[N+:7]12[H:8]"
N        2.57462334      -1.17906766       1.22682496
C        1.79558978      -0.40989946       0.86403558
C        0.85301084       0.55962118       0.39989597
C        0.40613013       0.57949858      -1.07389770
C       -1.00258729       0.31968168      -0.56474852
C       -1.10656218      -0.89671823       0.26386887
N       -0.55791206       0.31705791       0.86019495
H        0.09048783       1.34544331       1.37587435
H        0.80639802      -0.19297574      -1.73230288
H        0.52530998       1.55603679      -1.54078303
H       -1.88798022       0.86946162      -0.85860131
H       -0.41236859      -1.71831534       0.12511071
H       -2.08413958      -1.14982463       0.65452805
13
Frame=15 idx=010374 GeodesicLength=0.670951435182767 rxn_smarts="[N:1]#[C:2][C@@:3]1([H:8])[C:4]([H:9])([H:10])[C@@:5]2([H:11])[C:6]([H:12])([H:13])[N:7]12>>[N:1]#[C:2][C-:3]1[C:4]([H:9])([H:10])[C@@:5]2([H:11])[C:6]([H:12])([H:13])[N+:7]12[H:8]"
N        2.57159867      -1.18187336       1.22467565
C        1.79146712      -0.41256262       0.86499723
C        0.84852609       0.55915533       0.40266768
C        0.40486243       0.57906266      -1.07261484
C       -1.00449287       0.31745758      -0.56676030
C       -1.10488596      -0.89765767       0.26208321
N       -0.55854212       0.31672355       0.85951831
H        0.10042751       1.35951668       1.37742577
H        0.80738412      -0.19273375      -1.73034757
H        0.52433857       1.55634669      -1.53778527
H       -1.88980226       0.86704087      -0.86101301
H       -0.40988533      -1.71833979       0.12163786
H       -2.08099596      -1.15213617       0.65551528
13
Frame=16 idx=010374 GeodesicLength=0.7156083783068962 rxn_smarts="[N:1]#[C:2][C@@:3]1([H:8])[C:4]([H:9])([H:10])[C@@:5]2([H:11])[C:6]([H:12])([H:13])[N:7]12>>[N:1]#[C:2][C-:3]1[C:4]([H:9])([H:10])[C@@:5]2([H:11])[C:6]([H:12])([H:13])[N+:7]12[H:8]"
N        2.56857117      -1.18462016       1.22256377
C        1.78728966      -0.41522871       0.86600666
C        0.84396969       0.55867391       0.40549845
C        0.40356569       0.57863639      -1.07127967
C       -1.00642540       0.31520510      -0.56876195
C       -1.10325330      -0.89865817       0.26024701
N       -0.55926282       0.31629928       0.85887028
H        0.11082265       1.37381280       1.37881524
H        0.80836824      -0.19245256      -1.72834887
H        0.52332305       1.55667298      -1.53471710
H       -1.89164711       0.86459995      -0.86341219
H       -0.40742105      -1.71840126       0.11812707
H       -2.07790047      -1.15453954       0.65639131
