12
Frame=0 idx=001063 GeodesicLength=0.0 rxn_smarts="[N:1]([c:2]1[c:3]([H:9])[c:4]([H:10])[c:5]([H:11])[n:6]1[H:12])([H:7])[H:8]>>[N:1]([C@@:2]12[C:3]([H:9])=[C:4]([H:10])[C@:5]1([H:11])[N:6]2[H:12])([H:7])[H:8]"
N        1.66746218      -0.07862142      -0.63206303
C        0.62201248      -0.12745664       0.18407548
C       -0.09120541       1.10625399       0.65667333
C       -1.27355372       0.69512337       0.10708006
C       -1.12993331      -0.67810878      -0.26343560
N        0.02288489      -1.33222293       0.46200059
H        1.94903675      -0.92182854      -1.10448464
H        1.91416570       0.81382496      -1.02581835
H        0.18876135       1.82234622       1.41163647
H       -2.16612996       1.28557558      -0.07989790
H       -1.47069045      -1.17046074      -1.16040953
H       -0.23281051      -1.41442502       1.44464313
12
Frame=1 idx=001063 GeodesicLength=0.04586268540021479 rxn_smarts="[N:1]([c:2]1[c:3]([H:9])[c:4]([H:10])[c:5]([H:11])[n:6]1[H:12])([H:7])[H:8]>>[N:1]([C@@:2]12[C:3]([H:9])=[C:4]([H:10])[C@:5]1([H:11])[N:6]2[H:12])([H:7])[H:8]"
N        1.68907292      -0.08634072      -0.61541976
C        0.61770278      -0.12343082       0.17450300
C       -0.09625441       1.10697942       0.64233341
C       -1.28579445       0.69334686       0.10971702
C       -1.12851983      -0.67628681      -0.26991997
N        0.01548209      -1.32667020       0.45736767
H        1.93096030      -0.91417487      -1.13487734
H        1.97172529       0.80936151      -0.97661235
H        0.19166612       1.84621651       1.37166707
H       -2.19119898       1.27263427      -0.04520040
H       -1.48734695      -1.17813562      -1.15431597
H       -0.22749487      -1.42349952       1.44075762
12
Frame=2 idx=001063 GeodesicLength=0.09136623760917052 rxn_smarts="[N:1]([c:2]1[c:3]([H:9])[c:4]([H:10])[c:5]([H:11])[n:6]1[H:12])([H:7])[H:8]>>[N:1]([C@@:2]12[C:3]([H:9])=[C:4]([H:10])[C@:5]1([H:11])[N:6]2[H:12])([H:7])[H:8]"
N        1.70992527      -0.09510600      -0.59863947
C        0.61320274      -0.11951225       0.16418386
C       -0.10125654       1.10759180       0.62760499
C       -1.29830855       0.69124164       0.11346827
C       -1.12765134      -0.67442381      -0.27610945
N        0.00803026      -1.32122278       0.45231489
H        1.91389951      -0.90179509      -1.16569001
H        2.02856669       0.80227920      -0.92427608
H        0.19487576       1.87014096       1.32923910
H       -2.21444836       1.25997052      -0.01153167
H       -1.50541811      -1.18600213      -1.14677202
H       -0.22141733      -1.43316207       1.43620757
12
Frame=3 idx=001063 GeodesicLength=0.1356191433981298 rxn_smarts="[N:1]([c:2]1[c:3]([H:9])[c:4]([H:10])[c:5]([H:11])[n:6]1[H:12])([H:7])[H:8]>>[N:1]([C@@:2]12[C:3]([H:9])=[C:4]([H:10])[C@:5]1([H:11])[N:6]2[H:12])([H:7])[H:8]"
N        1.72997808      -0.10362947      -0.58171131
C        0.60846817      -0.11580691       0.15297512
C       -0.10588129       1.10767819       0.61391689
C       -1.31073228       0.68956428       0.11889701
C       -1.12756384      -0.67143769      -0.28283851
N       -0.00001250      -1.31603618       0.44542176
H        1.90726432      -0.88903424      -1.18657968
H        2.07590004       0.79344815      -0.87957934
H        0.19869407       1.89301806       1.28631419
H       -2.23586388       1.24850209       0.02317228
H       -1.52495915      -1.19171698      -1.13934878
H       -0.21529174      -1.44454931       1.42936036
12
Frame=4 idx=001063 GeodesicLength=0.17952245270292844 rxn_smarts="[N:1]([c:2]1[c:3]([H:9])[c:4]([H:10])[c:5]([H:11])[n:6]1[H:12])([H:7])[H:8]>>[N:1]([C@@:2]12[C:3]([H:9])=[C:4]([H:10])[C@:5]1([H:11])[N:6]2[H:12])([H:7])[H:8]"
N        1.74907414      -0.11268119      -0.56489391
C        0.60362303      -0.11216307       0.14109463
C       -0.11048645       1.10752647       0.60042045
C       -1.32329240       0.68751292       0.12581508
C       -1.12799153      -0.66838744      -0.28911342
N       -0.00798306      -1.31096748       0.43814565
H        1.90213772      -0.87325405      -1.20719480
H        2.12166476       0.78319725      -0.83316715
H        0.20248313       1.91540377       1.24170005
H       -2.25526847       1.23798803       0.05575836
H       -1.54574557      -1.19745116      -1.13030143
H       -0.20821530      -1.45672405       1.42173649
12
Frame=5 idx=001063 GeodesicLength=0.22291851982699526 rxn_smarts="[N:1]([c:2]1[c:3]([H:9])[c:4]([H:10])[c:5]([H:11])[n:6]1[H:12])([H:7])[H:8]>>[N:1]([C@@:2]12[C:3]([H:9])=[C:4]([H:10])[C@:5]1([H:11])[N:6]2[H:12])([H:7])[H:8]"
N        1.76747131      -0.12164484      -0.54788912
C        0.59863291      -0.10856946       0.12831552
C       -0.11490965       1.10706103       0.58752640
C       -1.33574474       0.68556872       0.13408171
C       -1.12902722      -0.66466287      -0.29559678
N       -0.01622355      -1.30598078       0.42971337
H        1.90287909      -0.85732765      -1.22258550
H        2.16240670       0.77229675      -0.78990057
H        0.20625915       1.93708248       1.19582627
H       -2.27327155       1.22829994       0.08873002
H       -1.56774458      -1.20204700      -1.12060370
H       -0.20072787      -1.47007633       1.41238238
12
Frame=6 idx=001063 GeodesicLength=0.26610577913699446 rxn_smarts="[N:1]([c:2]1[c:3]([H:9])[c:4]([H:10])[c:5]([H:11])[n:6]1[H:12])([H:7])[H:8]>>[N:1]([C@@:2]12[C:3]([H:9])=[C:4]([H:10])[C@:5]1([H:11])[N:6]2[H:12])([H:7])[H:8]"
N        1.78512729      -0.13092051      -0.53082176
C        0.59352101      -0.10495556       0.11455044
C       -0.11924283       1.10648565       0.57461175
C       -1.34810862       0.68353340       0.14336235
C       -1.13060226      -0.66059536      -0.30206333
N       -0.02455518      -1.30095677       0.42058239
H        1.90642026      -0.84001401      -1.23623696
H        2.20131847       0.76044529      -0.74578798
H        0.20977320       1.95833543       1.14778419
H       -2.29013011       1.21904446       0.12189731
H       -1.59093499      -1.20628481      -1.10961681
H       -0.19258624      -1.48411719       1.40173841
12
Frame=7 idx=001063 GeodesicLength=0.30879137001730045 rxn_smarts="[N:1]([c:2]1[c:3]([H:9])[c:4]([H:10])[c:5]([H:11])[n:6]1[H:12])([H:7])[H:8]>>[N:1]([C@@:2]12[C:3]([H:9])=[C:4]([H:10])[C@:5]1([H:11])[N:6]2[H:12])([H:7])[H:8]"
N        1.80190986      -0.13988917      -0.51372374
C        0.58836368      -0.10134436       0.10011272
C       -0.12340848       1.10554872       0.56264891
C       -1.36019692       0.68142498       0.15418476
C       -1.13266680      -0.65605243      -0.30831532
N       -0.03292319      -1.29598118       0.41075566
H        1.91406120      -0.82313361      -1.24592068
H        2.23570103       0.74872218      -0.70465083
H        0.21279716       1.97831304       1.09934250
H       -2.30522227       1.21116541       0.15366125
H       -1.61466308      -1.20950955      -1.09774758
H       -0.18375218      -1.49926403       1.38965236
12
Frame=8 idx=001063 GeodesicLength=0.3511960894035472 rxn_smarts="[N:1]([c:2]1[c:3]([H:9])[c:4]([H:10])[c:5]([H:11])[n:6]1[H:12])([H:7])[H:8]>>[N:1]([C@@:2]12[C:3]([H:9])=[C:4]([H:10])[C@:5]1([H:11])[N:6]2[H:12])([H:7])[H:8]"
N        1.81778755      -0.14894627      -0.49673559
C        0.58317715      -0.09770880       0.08494725
C       -0.12746155       1.10439733       0.55111930
C       -1.37199391       0.67910702       0.16621474
C       -1.13514602      -0.65127449      -0.31426263
N       -0.04122008      -1.29098911       0.40053454
H        1.92352253      -0.80523865      -1.25436507
H        2.26814104       0.73654588      -0.66298281
H        0.21529850       1.99740038       1.04939442
H       -2.31891232       1.20425415       0.18417910
H       -1.63907378      -1.21237757      -1.08442562
H       -0.17411912      -1.51516987       1.37638237
12
Frame=9 idx=001063 GeodesicLength=0.39323301168797486 rxn_smarts="[N:1]([c:2]1[c:3]([H:9])[c:4]([H:10])[c:5]([H:11])[n:6]1[H:12])([H:7])[H:8]>>[N:1]([C@@:2]12[C:3]([H:9])=[C:4]([H:10])[C@:5]1([H:11])[N:6]2[H:12])([H:7])[H:8]"
N        1.83284244      -0.15779041      -0.47967442
C        0.57798019      -0.09403617       0.06912344
C       -0.13130871       1.10301289       0.54030333
C       -1.38334622       0.67674920       0.17941634
C       -1.13804019      -0.64607961      -0.31997811
N       -0.04953603      -1.28594381       0.38984938
H        1.93587784      -0.78797041      -1.25978297
H        2.29722817       0.72459156      -0.62324111
H        0.21700154       2.01536045       0.99858034
H       -2.33126857       1.19834350       0.21409249
H       -1.66352278      -1.21428434      -1.07039437
H       -0.16390769      -1.53195284       1.36170566
12
Frame=10 idx=001063 GeodesicLength=0.4350719403986114 rxn_smarts="[N:1]([c:2]1[c:3]([H:9])[c:4]([H:10])[c:5]([H:11])[n:6]1[H:12])([H:7])[H:8]>>[N:1]([C@@:2]12[C:3]([H:9])=[C:4]([H:10])[C@:5]1([H:11])[N:6]2[H:12])([H:7])[H:8]"
N        1.84701580      -0.16678058      -0.46273197
C        0.57278317      -0.09029080       0.05254290
C       -0.13498325       1.10157314       0.52960161
C       -1.39422413       0.67429268       0.19338775
C       -1.14127020      -0.64064434      -0.32545187
N       -0.05779450      -1.28075742       0.37892120
H        1.94945661      -0.76972762      -1.26440208
H        2.32498142       0.71208602      -0.58229265
H        0.21796801       2.03233644       0.94599550
H       -2.34251988       1.19303566       0.24357931
H       -1.68835298      -1.21587081      -1.05496003
H       -0.15306006      -1.54925239       1.34581033
12
Frame=11 idx=001063 GeodesicLength=0.47657878193643627 rxn_smarts="[N:1]([c:2]1[c:3]([H:9])[c:4]([H:10])[c:5]([H:11])[n:6]1[H:12])([H:7])[H:8]>>[N:1]([C@@:2]12[C:3]([H:9])=[C:4]([H:10])[C@:5]1([H:11])[N:6]2[H:12])([H:7])[H:8]"
N        1.86026350      -0.17563566      -0.44598389
C        0.56764566      -0.08648645       0.03548112
C       -0.13842484       1.10002995       0.51941769
C       -1.40452191       0.67177543       0.20827716
C       -1.14478933      -0.63496916      -0.33047473
N       -0.06595425      -1.27545480       0.36795657
H        1.96452656      -0.75160886      -1.26727971
H        2.35020186       0.69965873      -0.54230171
H        0.21798537       2.04784894       0.89298579
H       -2.35247403       1.18880330       0.27179136
H       -1.71284704      -1.21679770      -1.03864969
H       -0.14161155      -1.56716372       1.32878006
12
Frame=12 idx=001063 GeodesicLength=0.5176204125613567 rxn_smarts="[N:1]([c:2]1[c:3]([H:9])[c:4]([H:10])[c:5]([H:11])[n:6]1[H:12])([H:7])[H:8]>>[N:1]([C@@:2]12[C:3]([H:9])=[C:4]([H:10])[C@:5]1([H:11])[N:6]2[H:12])([H:7])[H:8]"
N        1.87248024      -0.18417248      -0.42960560
C        0.56261263      -0.08264996       0.01827212
C       -0.14159605       1.09835187       0.50997542
C       -1.41413321       0.66919104       0.22411661
C       -1.14850013      -0.62914236      -0.33473446
N       -0.07394730      -1.27003369       0.35734974
H        1.98070376      -0.73435703      -1.26815266
H        2.37222193       0.68781505      -0.50487562
H        0.21687394       2.06142816       0.84111431
H       -2.36095678       1.18609213       0.29760946
H       -1.73619504      -1.21689812      -1.02198880
H       -0.12956400      -1.58562459       1.31091949
12
Frame=13 idx=001063 GeodesicLength=0.558354997002264 rxn_smarts="[N:1]([c:2]1[c:3]([H:9])[c:4]([H:10])[c:5]([H:11])[n:6]1[H:12])([H:7])[H:8]>>[N:1]([C@@:2]12[C:3]([H:9])=[C:4]([H:10])[C@:5]1([H:11])[N:6]2[H:12])([H:7])[H:8]"
N        1.88371857      -0.19262168      -0.41374562
C        0.55769144      -0.07875651       0.00082137
C       -0.14453532       1.09673824       0.50065420
C       -1.42306496       0.66661548       0.24037157
C       -1.15233177      -0.62326334      -0.33837129
N       -0.08176631      -1.26440449       0.34722755
H        1.99723712      -0.71698466      -1.26824868
H        2.39228207       0.67598849      -0.46816013
H        0.21485032       2.07322047       0.79012081
H       -2.36827883       1.18447886       0.32149282
H       -1.75878698      -1.21669863      -1.00449427
H       -0.11701536      -1.60431223       1.29233167
12
Frame=14 idx=001063 GeodesicLength=0.5987877613392967 rxn_smarts="[N:1]([c:2]1[c:3]([H:9])[c:4]([H:10])[c:5]([H:11])[n:6]1[H:12])([H:7])[H:8]>>[N:1]([C@@:2]12[C:3]([H:9])=[C:4]([H:10])[C@:5]1([H:11])[N:6]2[H:12])([H:7])[H:8]"
N        1.89405030      -0.20097524      -0.39837293
C        0.55290890      -0.07480428      -0.01677965
C       -0.14724921       1.09530893       0.49118042
C       -1.43128429       0.66421013       0.25657913
C       -1.15620003      -0.61732706      -0.34151461
N       -0.08946001      -1.25849320       0.33772793
H        2.01407701      -0.69986997      -1.26737744
H        2.41037260       0.66426607      -0.43255343
H        0.21198792       2.08332068       0.74038377
H       -2.37463676       1.18360637       0.34416115
H       -1.78034028      -1.21620113      -0.98654138
H       -0.10422616      -1.62304129       1.27310705
12
Frame=15 idx=001063 GeodesicLength=0.6389636651892607 rxn_smarts="[N:1]([c:2]1[c:3]([H:9])[c:4]([H:10])[c:5]([H:11])[n:6]1[H:12])([H:7])[H:8]>>[N:1]([C@@:2]12[C:3]([H:9])=[C:4]([H:10])[C@:5]1([H:11])[N:6]2[H:12])([H:7])[H:8]"
N        1.90354008      -0.20922290      -0.38328478
C        0.54827936      -0.07086076      -0.03428197
C       -0.14970544       1.09399852       0.48179335
C       -1.43876001       0.66200579       0.27278456
C       -1.16005340      -0.61127088      -0.34419779
N       -0.09710153      -1.25236490       0.32886989
H        2.03121464      -0.68334988      -1.26523251
H        2.42643992       0.65279273      -0.39832202
H        0.20817589       2.09218323       0.69101834
H       -2.38009295       1.18320868       0.36649614
H       -1.80052286      -1.21509643      -0.96877362
H       -0.09141369      -1.64202320       1.25313041
12
Frame=16 idx=001063 GeodesicLength=0.6789708959909548 rxn_smarts="[N:1]([c:2]1[c:3]([H:9])[c:4]([H:10])[c:5]([H:11])[n:6]1[H:12])([H:7])[H:8]>>[N:1]([C@@:2]12[C:3]([H:9])=[C:4]([H:10])[C@:5]1([H:11])[N:6]2[H:12])([H:7])[H:8]"
N        1.91222186      -0.21747142      -0.36866015
C        0.54379603      -0.06691285      -0.05183405
C       -0.15196331       1.09297299       0.47189640
C       -1.44553794       0.66009384       0.28852282
C       -1.16385487      -0.60520640      -0.34651086
N       -0.10465968      -1.24592835       0.32076892
H        2.04833498      -0.66675079      -1.26253255
H        2.44107141       0.64121131      -0.36446920
H        0.20372079       2.09972198       0.64251286
H       -2.38479530       1.18312328       0.38842494
H       -1.81972834      -1.21386204      -0.95063068
H       -0.07860563      -1.66099153       1.23251156
