14
Frame=0 idx=000572 GeodesicLength=0.0 rxn_smarts="[C:1]1([H:7])([H:8])[C@@:2]2([H:9])[C:3]([H:10])([H:11])[C:4]([H:12])([H:13])[O:5][C@@:6]12[H:14]>>[C:1](/[C:2](=[C:3](\[C:4]([H:10])([H:12])[H:13])[H:11])[H:9])([C:6](=[O:5])[H:14])([H:7])[H:8]"
C        1.43607442       0.01679638      -0.50391973
C        0.64674466       0.47428786       0.69375051
C       -0.75660982       0.58940236       0.68413946
C       -1.49741565       0.14521626      -0.45856631
O       -0.32865231      -1.60141885      -0.69811132
C        0.74125859      -1.23701078      -0.13113539
H        1.17537718       0.41840706      -1.48097136
H        2.50635236       0.05180831      -0.32746766
H        1.17479434       0.67083418       1.61549093
H       -1.32844639       1.51624902       0.10867424
H       -1.27010364       0.53945196       1.63956767
H       -1.13365119       0.35474706      -1.45038631
H       -2.54919215      -0.09155387      -0.35454193
H        1.18346965      -1.84721692       0.66347714
14
Frame=1 idx=000572 GeodesicLength=0.04728731514490371 rxn_smarts="[C:1]1([H:7])([H:8])[C@@:2]2([H:9])[C:3]([H:10])([H:11])[C:4]([H:12])([H:13])[O:5][C@@:6]12[H:14]>>[C:1](/[C:2](=[C:3](\[C:4]([H:10])([H:12])[H:13])[H:11])[H:9])([C:6](=[O:5])[H:14])([H:7])[H:8]"
C        1.43978397       0.01925240      -0.49849886
C        0.64616489       0.46597742       0.70023573
C       -0.75544210       0.60239006       0.68421959
C       -1.49866264       0.14286692      -0.45597837
O       -0.32568551      -1.59842904      -0.70940043
C        0.74425767      -1.23825356      -0.13555349
H        1.17842985       0.42723223      -1.47248270
H        2.50993102       0.04968401      -0.32000207
H        1.17261489       0.65667028       1.62439782
H       -1.33198173       1.52428460       0.08287266
H       -1.27043344       0.57154974       1.63984007
H       -1.15248142       0.35184350      -1.45468779
H       -2.54430717      -0.11403302      -0.33345683
H        1.18781172      -1.86103555       0.64849468
14
Frame=2 idx=000572 GeodesicLength=0.09447190354378154 rxn_smarts="[C:1]1([H:7])([H:8])[C@@:2]2([H:9])[C:3]([H:10])([H:11])[C:4]([H:12])([H:13])[O:5][C@@:6]12[H:14]>>[C:1](/[C:2](=[C:3](\[C:4]([H:10])([H:12])[H:13])[H:11])[H:9])([C:6](=[O:5])[H:14])([H:7])[H:8]"
C        1.44351877       0.02171027      -0.49289692
C        0.64539821       0.45757141       0.70671002
C       -0.75409592       0.61566130       0.68407478
C       -1.49990198       0.14057663      -0.45327681
O       -0.32267261      -1.59526171      -0.72084763
C        0.74726325      -1.23947612      -0.14004018
H        1.18161602       0.43604549      -1.46380037
H        2.51349445       0.04755472      -0.31225583
H        1.17008238       0.64231925       1.63335902
H       -1.33581137       1.53189179       0.05684940
H       -1.27035771       0.60373313       1.63962279
H       -1.17190878       0.34855207      -1.45881986
H       -2.53870060      -0.13612696      -0.31189136
H        1.19207591      -1.87475127       0.63321296
14
Frame=3 idx=000572 GeodesicLength=0.14152903504701142 rxn_smarts="[C:1]1([H:7])([H:8])[C@@:2]2([H:9])[C:3]([H:10])([H:11])[C:4]([H:12])([H:13])[O:5][C@@:6]12[H:14]>>[C:1](/[C:2](=[C:3](\[C:4]([H:10])([H:12])[H:13])[H:11])[H:9])([C:6](=[O:5])[H:14])([H:7])[H:8]"
C        1.44728281       0.02415681      -0.48711976
C        0.64444348       0.44909404       0.71314594
C       -0.75255752       0.62920395       0.68369877
C       -1.50112246       0.13836915      -0.45047304
O       -0.31961980      -1.59190516      -0.73243769
C        0.75027125      -1.24067567      -0.14458326
H        1.18495297       0.44480972      -1.45494480
H        2.51704550       0.04540090      -0.30423221
H        1.16720065       0.62784827       1.64233241
H       -1.33998836       1.53906165       0.03067021
H       -1.26985643       0.63584702       1.63892705
H       -1.19192457       0.34488769      -1.46276200
H       -2.53235795      -0.15776997      -0.28990440
H        1.19623042      -1.88832840       0.61768278
14
Frame=4 idx=000572 GeodesicLength=0.18843571660285052 rxn_smarts="[C:1]1([H:7])([H:8])[C@@:2]2([H:9])[C:3]([H:10])([H:11])[C:4]([H:12])([H:13])[O:5][C@@:6]12[H:14]>>[C:1](/[C:2](=[C:3](\[C:4]([H:10])([H:12])[H:13])[H:11])[H:9])([C:6](=[O:5])[H:14])([H:7])[H:8]"
C        1.45108185       0.02657621      -0.48117817
C        0.64330181       0.44057343       0.71951707
C       -0.75081547       0.64300090       0.68308728
C       -1.50231177       0.13627095      -0.44758177
O       -0.31653528      -1.58835014      -0.74415412
C        0.75327699      -1.24185041      -0.14916860
H        1.18845685       0.45348278      -1.44594550
H        2.52059134       0.04319906      -0.29594161
H        1.16398193       0.61333569       1.65127761
H       -1.34456872       1.54579331       0.00441145
H       -1.26892058       0.66772776       1.63777324
H       -1.21251700       0.34087386      -1.46648782
H       -2.52526436      -0.17890257      -0.26757356
H        1.20024239      -1.90173081       0.60196450
14
Frame=5 idx=000572 GeodesicLength=0.23517490221003548 rxn_smarts="[C:1]1([H:7])([H:8])[C@@:2]2([H:9])[C:3]([H:10])([H:11])[C:4]([H:12])([H:13])[O:5][C@@:6]12[H:14]>>[C:1](/[C:2](=[C:3](\[C:4]([H:10])([H:12])[H:13])[H:11])[H:9])([C:6](=[O:5])[H:14])([H:7])[H:8]"
C        1.45492286       0.02895696      -0.47508463
C        0.64197282       0.43204066       0.72579558
C       -0.74886417       0.65703507       0.68224209
C       -1.50346608       0.13430560      -0.44462040
O       -0.31342851      -1.58458814      -0.75598246
C        0.75627503      -1.24299967      -0.15378190
H        1.19215124       0.46203365      -1.43683214
H        2.52414019       0.04092866      -0.28739731
H        1.16043780       0.59886627       1.66014946
H       -1.34960453       1.55207931      -0.02186097
H       -1.26753522       0.69919880       1.63619535
H       -1.23366251       0.33652546      -1.46998010
H       -2.51740833      -0.19945267      -0.24496891
H        1.20406940      -1.91492996       0.58612635
14
Frame=6 idx=000572 GeodesicLength=0.28168821021671114 rxn_smarts="[C:1]1([H:7])([H:8])[C@@:2]2([H:9])[C:3]([H:10])([H:11])[C:4]([H:12])([H:13])[O:5][C@@:6]12[H:14]>>[C:1](/[C:2](=[C:3](\[C:4]([H:10])([H:12])[H:13])[H:11])[H:9])([C:6](=[O:5])[H:14])([H:7])[H:8]"
C        1.45880334       0.03128177      -0.46882720
C        0.64048157       0.42353305       0.73192649
C       -0.74668527       0.67128981       0.68114880
C       -1.50456301       0.13250398      -0.44162361
O       -0.31029536      -1.58059208      -0.76793625
C        0.75923725      -1.24411046      -0.15841529
H        1.19607735       0.47042760      -1.42758287
H        2.52766672       0.03854941      -0.27857380
H        1.15660184       0.58453580       1.66885717
H       -1.35506174       1.55795316      -0.04806850
H       -1.26570814       0.73015688       1.63422174
H       -1.25530542       0.33194091      -1.47325394
H       -2.50887709      -0.21957704      -0.22208000
H        1.20762796      -1.92789280       0.57020727
14
Frame=7 idx=000572 GeodesicLength=0.3279909819665383 rxn_smarts="[C:1]1([H:7])([H:8])[C@@:2]2([H:9])[C:3]([H:10])([H:11])[C:4]([H:12])([H:13])[O:5][C@@:6]12[H:14]>>[C:1](/[C:2](=[C:3](\[C:4]([H:10])([H:12])[H:13])[H:11])[H:9])([C:6](=[O:5])[H:14])([H:7])[H:8]"
C        1.46273991       0.03355237      -0.46243266
C        0.63880342       0.41504707       0.73794009
C       -0.74428748       0.68576449       0.67980323
C       -1.50561735       0.13085299      -0.43857174
O       -0.30714112      -1.57636439      -0.78000730
C        0.76218697      -1.24518788      -0.16307588
H        1.20022564       0.47867614      -1.41825723
H        2.53121112       0.03606256      -0.26950180
H        1.15244655       0.57029621       1.67747093
H       -1.36101601       1.56339266      -0.07420900
H       -1.26345656       0.76062051       1.63185929
H       -1.27749492       0.32703293      -1.47623273
H       -2.49957305      -0.23911360      -0.19900204
H        1.21097289      -1.94063206       0.55421684
14
Frame=8 idx=000572 GeodesicLength=0.37419042186928336 rxn_smarts="[C:1]1([H:7])([H:8])[C@@:2]2([H:9])[C:3]([H:10])([H:11])[C:4]([H:12])([H:13])[O:5][C@@:6]12[H:14]>>[C:1](/[C:2](=[C:3](\[C:4]([H:10])([H:12])[H:13])[H:11])[H:9])([C:6](=[O:5])[H:14])([H:7])[H:8]"
C        1.46673385       0.03578053      -0.45587435
C        0.63693794       0.40657129       0.74383951
C       -0.74164483       0.70046081       0.67818391
C       -1.50662951       0.12934368      -0.43546256
O       -0.30395262      -1.57189332      -0.79222862
C        0.76512272      -1.24622799      -0.16778591
H        1.20462122       0.48681586      -1.40881008
H        2.53476006       0.03347839      -0.26013329
H        1.14794095       0.55608049       1.68600698
H       -1.36746528       1.56838405      -0.10036559
H       -1.26076703       0.79070176       1.62910994
H       -1.30028740       0.32176427      -1.47891593
H       -2.48948053      -0.25808668      -0.17565310
H        1.21411045      -1.95317311       0.53808908
14
Frame=9 idx=000572 GeodesicLength=0.42029231086699365 rxn_smarts="[C:1]1([H:7])([H:8])[C@@:2]2([H:9])[C:3]([H:10])([H:11])[C:4]([H:12])([H:13])[O:5][C@@:6]12[H:14]>>[C:1](/[C:2](=[C:3](\[C:4]([H:10])([H:12])[H:13])[H:11])[H:9])([C:6](=[O:5])[H:14])([H:7])[H:8]"
C        1.47079137       0.03795881      -0.44914221
C        0.63486983       0.39809841       0.74960763
C       -0.73874638       0.71539269       0.67627406
C       -1.50760728       0.12796871      -0.43229187
O       -0.30071116      -1.56715409      -0.80462885
C        0.76804913      -1.24722218      -0.17255982
H        1.20928001       0.49484471      -1.39922589
H        2.53831602       0.03077525      -0.25043929
H        1.14304984       0.54184836       1.69446075
H       -1.37439773       1.57295235      -0.12652576
H       -1.25764323       0.82051082       1.62598532
H       -1.32372343       0.31612145      -1.48124725
H       -2.47858569      -0.27657473      -0.15205378
H        1.21705868      -1.96552058       0.52178695
14
Frame=10 idx=000572 GeodesicLength=0.4663004697366399 rxn_smarts="[C:1]1([H:7])([H:8])[C@@:2]2([H:9])[C:3]([H:10])([H:11])[C:4]([H:12])([H:13])[O:5][C@@:6]12[H:14]>>[C:1](/[C:2](=[C:3](\[C:4]([H:10])([H:12])[H:13])[H:11])[H:9])([C:6](=[O:5])[H:14])([H:7])[H:8]"
C        1.47491633       0.04009659      -0.44222488
C        0.63260329       0.38962046       0.75526085
C       -0.73558462       0.73056644       0.67404357
C       -1.50855209       0.12671957      -0.42904373
O       -0.29741377      -1.56212003      -0.81724918
C        0.77095934      -1.24816164      -0.17742209
H        1.21422381       0.50280217      -1.38949559
H        2.54187168       0.02795325      -0.24038544
H        1.13774456       0.52752631       1.70287715
H       -1.38180570       1.57707375      -0.15273454
H       -1.25410489       0.85017114       1.62244486
H       -1.34784707       0.31004606      -1.48319107
H       -2.46683463      -0.29459819      -0.12813455
H        1.21982376      -1.97769586       0.50525464
14
Frame=11 idx=000572 GeodesicLength=0.512208942411317 rxn_smarts="[C:1]1([H:7])([H:8])[C@@:2]2([H:9])[C:3]([H:10])([H:11])[C:4]([H:12])([H:13])[O:5][C@@:6]12[H:14]>>[C:1](/[C:2](=[C:3](\[C:4]([H:10])([H:12])[H:13])[H:11])[H:9])([C:6](=[O:5])[H:14])([H:7])[H:8]"
C        1.47911792       0.04218387      -0.43513747
C        0.63013410       0.38118785       0.76076066
C       -0.73215064       0.74593078       0.67150325
C       -1.50946100       0.12561170      -0.42574605
O       -0.29406743      -1.55678660      -0.83006686
C        0.77384402      -1.24904216      -0.18235253
H        1.21948031       0.51065433      -1.37964472
H        2.54543804       0.02499088      -0.22999349
H        1.13203425       0.51322175       1.71119639
H       -1.38972069       1.58073579      -0.17891913
H       -1.25011477       0.87949364       1.61853440
H       -1.37261765       0.30358509      -1.48471617
H       -2.45425725      -0.31210677      -0.10399612
H        1.22234078      -1.98966018       0.48857785
14
Frame=12 idx=000572 GeodesicLength=0.558062331411523 rxn_smarts="[C:1]1([H:7])([H:8])[C@@:2]2([H:9])[C:3]([H:10])([H:11])[C:4]([H:12])([H:13])[O:5][C@@:6]12[H:14]>>[C:1](/[C:2](=[C:3](\[C:4]([H:10])([H:12])[H:13])[H:11])[H:9])([C:6](=[O:5])[H:14])([H:7])[H:8]"
C        1.48340368       0.04421446      -0.42786734
C        0.62746610       0.37279474       0.76610198
C       -0.72844122       0.76149958       0.66863909
C       -1.51034414       0.12463856      -0.42238929
O       -0.29065211      -1.55112361      -0.84312202
C        0.77671046      -1.24985662      -0.18737145
H        1.22506392       0.51841457      -1.36965436
H        2.54901567       0.02186327      -0.21923129
H        1.12589814       0.49887586       1.71942997
H       -1.39814599       1.58395001      -0.20508769
H       -1.24570321       0.90860639       1.61424902
H       -1.39808928       0.29669331      -1.48577476
H       -2.44081468      -0.32914563      -0.07963468
H        1.22463264      -2.00142490       0.47171281
14
Frame=13 idx=000572 GeodesicLength=0.6038713364901984 rxn_smarts="[C:1]1([H:7])([H:8])[C@@:2]2([H:9])[C:3]([H:10])([H:11])[C:4]([H:12])([H:13])[O:5][C@@:6]12[H:14]>>[C:1](/[C:2](=[C:3](\[C:4]([H:10])([H:12])[H:13])[H:11])[H:9])([C:6](=[O:5])[H:14])([H:7])[H:8]"
C        1.48778600       0.04619495      -0.42040329
C        0.62459004       0.36444781       0.77128784
C       -0.72444311       0.77726268       0.66542245
C       -1.51121129       0.12379007      -0.41896184
O       -0.28716051      -1.54510446      -0.85645427
C        0.77955280      -1.25059598      -0.19249899
H        1.23101108       0.52611107      -1.35951127
H        2.55260929       0.01856500      -0.20806481
H        1.11929515       0.48445054       1.72760105
H       -1.40708405       1.58668561      -0.23126810
H       -1.24084595       0.93758770       1.60955305
H       -1.42430997       0.28932822      -1.48630331
H       -2.42647509      -0.34572093      -0.05501992
H        1.22668560      -2.01300230       0.45462142
14
Frame=14 idx=000572 GeodesicLength=0.6496365607233604 rxn_smarts="[C:1]1([H:7])([H:8])[C@@:2]2([H:9])[C:3]([H:10])([H:11])[C:4]([H:12])([H:13])[O:5][C@@:6]12[H:14]>>[C:1](/[C:2](=[C:3](\[C:4]([H:10])([H:12])[H:13])[H:11])[H:9])([C:6](=[O:5])[H:14])([H:7])[H:8]"
C        1.49226831       0.04810834      -0.41276468
C        0.62152307       0.35619401       0.77627985
C       -0.72016097       0.79317496       0.66187619
C       -1.51205281       0.12308239      -0.41549144
O       -0.28359992      -1.53871734      -0.87003181
C        0.78236220      -1.25125257      -0.19771185
H        1.23733296       0.53370288      -1.34924587
H        2.55621986       0.01506510      -0.19652370
H        1.11225668       0.47004172       1.73565044
H       -1.41656614       1.58894743      -0.25737724
H       -1.23556273       0.96626928       1.60450674
H       -1.45122632       0.28152076      -1.48627100
H       -2.41124940      -0.36178505      -0.03027960
H        1.22845523      -2.02435192       0.43738395
14
Frame=15 idx=000572 GeodesicLength=0.6952989512410196 rxn_smarts="[C:1]1([H:7])([H:8])[C@@:2]2([H:9])[C:3]([H:10])([H:11])[C:4]([H:12])([H:13])[O:5][C@@:6]12[H:14]>>[C:1](/[C:2](=[C:3](\[C:4]([H:10])([H:12])[H:13])[H:11])[H:9])([C:6](=[O:5])[H:14])([H:7])[H:8]"
C        1.49684017       0.04993774      -0.40497254
C        0.61827707       0.34807604       0.78104695
C       -0.71560668       0.80918038       0.65802161
C       -1.51285745       0.12253986      -0.41200646
O       -0.27997294      -1.53196050      -0.88381237
C        0.78513151      -1.25182483      -0.20298128
H        1.24401667       0.54115322      -1.33888859
H        2.55983189       0.01133725      -0.18464539
H        1.10482203       0.45575879       1.74351821
H       -1.42659179       1.59074542      -0.28332375
H       -1.22987984       0.99448574       1.59915604
H       -1.47876384       0.27331396      -1.48563715
H       -2.39516403      -0.37729586      -0.00555548
H        1.22991723      -2.03544721       0.42008020
14
Frame=16 idx=000572 GeodesicLength=0.7409219159472386 rxn_smarts="[C:1]1([H:7])([H:8])[C@@:2]2([H:9])[C:3]([H:10])([H:11])[C:4]([H:12])([H:13])[O:5][C@@:6]12[H:14]>>[C:1](/[C:2](=[C:3](\[C:4]([H:10])([H:12])[H:13])[H:11])[H:9])([C:6](=[O:5])[H:14])([H:7])[H:8]"
C        1.50151935       0.05168773      -0.39701677
C        0.61485752       0.34010185       0.78559365
C       -0.71077276       0.82527232       0.65384653
C       -1.51364139       0.12214417      -0.40849756
O       -0.27627122      -1.52480401      -0.89783566
C        0.78785883      -1.25230118      -0.20832939
H        1.25109752       0.54849083      -1.32842167
H        2.56345795       0.00737125      -0.17240289
H        1.09696226       0.44155407       1.75123138
H       -1.43716362       1.59205703      -0.30914378
H       -1.22379368       1.02233649       1.59348788
H       -1.50696863       0.26465280      -1.48434487
H       -2.37820401      -0.39226351       0.01916541
H        1.23106187      -2.04629985       0.40266772
