11
Frame=0 idx=009085 GeodesicLength=0.0 rxn_smarts="[O:1]=[C:2]1[C:3]([H:8])([H:9])[C:4]([H:10])=[C:5]([H:11])[C:6]1=[O:7]>>[O:1]([C:2]1=[C:6]([O-:7])[C:5]([H:11])=[C+:4][C:3]1([H:8])[H:9])[H:10]"
O       -0.25321040       0.76207030      -1.57984975
C       -0.26812127       0.78800353      -0.27479882
C       -1.29655260      -0.06209418       0.30176817
C       -0.15602567      -1.00022009      -0.18207580
C        1.05448652      -0.73222494       0.42216326
C        1.02819779       0.72635207       0.56194421
O        1.79166858       1.57538264       0.90806271
H       -1.42335447      -0.07234133       1.37695764
H       -2.20525002      -0.14274591      -0.28061137
H       -0.22273048      -0.51731652      -1.53447637
H        1.95089207      -1.32486555       0.28091614
11
Frame=1 idx=009085 GeodesicLength=0.09212146278438726 rxn_smarts="[O:1]=[C:2]1[C:3]([H:8])([H:9])[C:4]([H:10])=[C:5]([H:11])[C:6]1=[O:7]>>[O:1]([C:2]1=[C:6]([O-:7])[C:5]([H:11])=[C+:4][C:3]1([H:8])[H:9])[H:10]"
O       -0.25631241       0.79140571      -1.57121969
C       -0.27200861       0.79929804      -0.26834231
C       -1.29285372      -0.06926820       0.30046590
C       -0.15299602      -1.00872964      -0.17944225
C        1.05303653      -0.73435976       0.42819547
C        1.02819328       0.72520055       0.56168368
O        1.80497305       1.57403711       0.87943966
H       -1.43270975      -0.07961969       1.37403531
H       -2.20083122      -0.15347615      -0.28359628
H       -0.22832060      -0.51447590      -1.54605572
H        1.94982947      -1.33001207       0.30483624
11
Frame=2 idx=009085 GeodesicLength=0.18418924020046035 rxn_smarts="[O:1]=[C:2]1[C:3]([H:8])([H:9])[C:4]([H:10])=[C:5]([H:11])[C:6]1=[O:7]>>[O:1]([C:2]1=[C:6]([O-:7])[C:5]([H:11])=[C+:4][C:3]1([H:8])[H:9])[H:10]"
O       -0.25984436       0.82106910      -1.56222649
C       -0.27588062       0.81068535      -0.26177484
C       -1.28888241      -0.07630802       0.29907254
C       -0.14984723      -1.01748661      -0.17651200
C        1.05179513      -0.73644222       0.43407722
C        1.02848815       0.72411743       0.56082894
O        1.81768290       1.57214476       0.85112143
H       -1.44196845      -0.08673012       1.37084650
H       -2.19610274      -0.16404973      -0.28670139
H       -0.23418742      -0.51203385      -1.55775927
H        1.94874704      -1.33496610       0.32902735
11
Frame=3 idx=009085 GeodesicLength=0.2762482374864968 rxn_smarts="[O:1]=[C:2]1[C:3]([H:8])([H:9])[C:4]([H:10])=[C:5]([H:11])[C:6]1=[O:7]>>[O:1]([C:2]1=[C:6]([O-:7])[C:5]([H:11])=[C+:4][C:3]1([H:8])[H:9])[H:10]"
O       -0.26383971       0.85111977      -1.55283975
C       -0.27974632       0.82217422      -0.25507024
C       -1.28464941      -0.08321804       0.29757602
C       -0.14658367      -1.02651093      -0.17327327
C        1.05077009      -0.73849027       0.43982096
C        1.02907611       0.72308617       0.55939824
O        1.82988432       1.56975169       0.82306215
H       -1.45115600      -0.09370035       1.36737326
H       -2.19107361      -0.17446640      -0.28996212
H       -0.24033139      -0.51001649      -1.56960128
H        1.94764960      -1.33972938       0.35351603
11
Frame=4 idx=009085 GeodesicLength=0.3682893782663076 rxn_smarts="[O:1]=[C:2]1[C:3]([H:8])([H:9])[C:4]([H:10])=[C:5]([H:11])[C:6]1=[O:7]>>[O:1]([C:2]1=[C:6]([O-:7])[C:5]([H:11])=[C+:4][C:3]1([H:8])[H:9])[H:10]"
O       -0.26830065       0.88161656      -1.54301200
C       -0.28360318       0.83376329      -0.24819992
C       -1.28015684      -0.09000605       0.29596795
C       -0.14321216      -1.03581521      -0.16970852
C        1.04995590      -0.74051699       0.44543051
C        1.02994337       0.72208042       0.55739913
O        1.84163158       1.56688968       0.79519330
H       -1.46029910      -0.10056018       1.36359489
H       -2.18573239      -0.18472358      -0.29340341
H       -0.24675128      -0.50844299      -1.58158512
H        1.94652475      -1.34428495       0.37832318
11
Frame=5 idx=009085 GeodesicLength=0.46031274213705636 rxn_smarts="[O:1]=[C:2]1[C:3]([H:8])([H:9])[C:4]([H:10])=[C:5]([H:11])[C:6]1=[O:7]>>[O:1]([C:2]1=[C:6]([O-:7])[C:5]([H:11])=[C+:4][C:3]1([H:8])[H:9])[H:10]"
O       -0.27323791       0.91262072      -1.53269170
C       -0.28744994       0.84545290      -0.24113424
C       -1.27540756      -0.09667796       0.29423806
C       -0.13973880      -1.04541415      -0.16579721
C        1.04935183      -0.74253558       0.45091123
C        1.03108031       0.72107731       0.55483764
O        1.85297702       1.56358492       0.76745014
H       -1.46942342      -0.10733416       1.35948802
H       -2.18007038      -0.19481763      -0.29705506
H       -0.25344626      -0.50733984      -1.59371509
H        1.94536511      -1.34861653       0.40346819
11
Frame=6 idx=009085 GeodesicLength=0.5523180276862596 rxn_smarts="[O:1]=[C:2]1[C:3]([H:8])([H:9])[C:4]([H:10])=[C:5]([H:11])[C:6]1=[O:7]>>[O:1]([C:2]1=[C:6]([O-:7])[C:5]([H:11])=[C+:4][C:3]1([H:8])[H:9])[H:10]"
O       -0.27866904       0.94419979      -1.52181831
C       -0.29128568       0.85724402      -0.23384052
C       -1.27040312      -0.10323998       0.29237504
C       -0.13616861      -1.05532222      -0.16151794
C        1.04895817      -0.74455750       0.45626766
C        1.03247916       0.72005611       0.55171598
O        1.86397045       1.55985539       0.73975865
H       -1.47855372      -0.11404746       1.35502652
H       -2.17407647      -0.20474534      -0.30094932
H       -0.26041202      -0.50673449      -1.60599708
H        1.94416089      -1.35270830       0.42897932
11
Frame=7 idx=009085 GeodesicLength=0.6443062448922726 rxn_smarts="[O:1]=[C:2]1[C:3]([H:8])([H:9])[C:4]([H:10])=[C:5]([H:11])[C:6]1=[O:7]>>[O:1]([C:2]1=[C:6]([O-:7])[C:5]([H:11])=[C+:4][C:3]1([H:8])[H:9])[H:10]"
O       -0.28461045       0.97642447      -1.51032486
C       -0.29510772       0.86913723      -0.22628513
C       -1.26514415      -0.10969700       0.29036687
C       -0.13250739      -1.06555487      -0.15684418
C        1.04877602      -0.74659475       0.46150446
C        1.03413411       0.71899592       0.54803128
O        1.87465405       1.55571466       0.71204635
H       -1.48771507      -0.12072137       1.35018200
H       -2.16773736      -0.21450198      -0.30512096
H       -0.26764556      -0.50666185      -1.61843554
H        1.94290351      -1.35654046       0.45487970
11
Frame=8 idx=009085 GeodesicLength=0.7362769698867906 rxn_smarts="[O:1]=[C:2]1[C:3]([H:8])([H:9])[C:4]([H:10])=[C:5]([H:11])[C:6]1=[O:7]>>[O:1]([C:2]1=[C:6]([O-:7])[C:5]([H:11])=[C+:4][C:3]1([H:8])[H:9])[H:10]"
O       -0.29108794       1.00937314      -1.49813325
C       -0.29891370       0.88113395      -0.21843039
C       -1.25962977      -0.11605425       0.28820021
C       -0.12876008      -1.07612715      -0.15174813
C        1.04880744      -0.74865778       0.46662532
C        1.03604182       0.71787743       0.54377514
O        1.88506862       1.55116877       0.68423031
H       -1.49693189      -0.12737891       1.34492240
H       -2.16103651      -0.22408277      -0.30960803
H       -0.27513844      -0.50715875      -1.63103647
H        1.94158044      -1.36009367       0.48120290
11
Frame=9 idx=009085 GeodesicLength=0.8282307571393048 rxn_smarts="[O:1]=[C:2]1[C:3]([H:8])([H:9])[C:4]([H:10])=[C:5]([H:11])[C:6]1=[O:7]>>[O:1]([C:2]1=[C:6]([O-:7])[C:5]([H:11])=[C+:4][C:3]1([H:8])[H:9])[H:10]"
O       -0.29812688       1.04312901      -1.48515366
C       -0.30269967       0.89323502      -0.21023611
C       -1.25385884      -0.12231619       0.28586023
C       -0.12493207      -1.08705567      -0.14619635
C        1.04905489      -0.75075828       0.47163486
C        1.03820034       0.71668015       0.53893285
O        1.89525011       1.54621922       0.65622451
H       -1.50623086      -0.13404071       1.33921213
H       -2.15395553      -0.23348008      -0.31445336
H       -0.28288303      -0.50826973      -1.64380455
H        1.94018155      -1.36334275       0.50797945
11
Frame=10 idx=009085 GeodesicLength=0.9201690684880109 rxn_smarts="[O:1]=[C:2]1[C:3]([H:8])([H:9])[C:4]([H:10])=[C:5]([H:11])[C:6]1=[O:7]>>[O:1]([C:2]1=[C:6]([O-:7])[C:5]([H:11])=[C+:4][C:3]1([H:8])[H:9])[H:10]"
O       -0.30575793       1.07778479      -1.47128058
C       -0.30646109       0.90544070      -0.20165697
C       -1.24782721      -0.12848787       0.28333068
C       -0.12102976      -1.09835754      -0.14015338
C        1.04952132      -0.75290761       0.47653623
C        1.04061068       0.71538332       0.53348213
O        1.90522999       1.54086171       0.62793206
H       -1.51563773      -0.14072790       1.33301076
H       -2.14646958      -0.24268577      -0.31970388
H       -0.29087077      -0.51004396      -1.65674753
H        1.93869207      -1.36625986       0.53525049
11
Frame=11 idx=009085 GeodesicLength=1.0120952637623761 rxn_smarts="[O:1]=[C:2]1[C:3]([H:8])([H:9])[C:4]([H:10])=[C:5]([H:11])[C:6]1=[O:7]>>[O:1]([C:2]1=[C:6]([O-:7])[C:5]([H:11])=[C+:4][C:3]1([H:8])[H:9])[H:10]"
O       -0.31402407       1.11344592      -1.45639188
C       -0.31019339       0.91775392      -0.19264136
C       -1.24153036      -0.13457548       0.28059272
C       -0.11705821      -1.11005044      -0.13358238
C        1.05021122      -0.75511692       0.48133202
C        1.04327723       0.71396731       0.52739255
O        1.91504424       1.53508571       0.59923797
H       -1.52517943      -0.14746733       1.32627306
H       -2.13855277      -0.25169239      -0.32541256
H       -0.29908664      -0.51253224      -1.66987535
H        1.93709219      -1.36881805       0.56307521
11
Frame=12 idx=009085 GeodesicLength=1.1040071924937604 rxn_smarts="[O:1]=[C:2]1[C:3]([H:8])([H:9])[C:4]([H:10])=[C:5]([H:11])[C:6]1=[O:7]>>[O:1]([C:2]1=[C:6]([O-:7])[C:5]([H:11])=[C+:4][C:3]1([H:8])[H:9])[H:10]"
O       -0.32295417       1.15021615      -1.44035109
C       -0.31388796       0.93017479      -0.18313413
C       -1.23496741      -0.14057673       0.27762562
C       -0.11302650      -1.12215071      -0.12641779
C        1.05112197      -0.75739866       0.48604824
C        1.04619809       0.71240579       0.52063420
O        1.92471540       1.52886971       0.57003099
H       -1.53490022      -0.15427268       1.31894514
H       -2.13017244      -0.26048473      -0.33164511
H       -0.30750152      -0.51581565      -1.68317747
H        1.93537475      -1.37096729       0.59144141
11
Frame=13 idx=009085 GeodesicLength=1.195890114595593 rxn_smarts="[O:1]=[C:2]1[C:3]([H:8])([H:9])[C:4]([H:10])=[C:5]([H:11])[C:6]1=[O:7]>>[O:1]([C:2]1=[C:6]([O-:7])[C:5]([H:11])=[C+:4][C:3]1([H:8])[H:9])[H:10]"
O       -0.33268312       1.18828900      -1.42292985
C       -0.31755511       0.94271136      -0.17303595
C       -1.22811264      -0.14652822       0.27439901
C       -0.10891289      -1.13466414      -0.11869635
C        1.05227776      -0.75975412       0.49062152
C        1.04940269       0.71068164       0.51311632
O        1.93432133       1.52215710       0.54001262
H       -1.54479681      -0.16125039       1.31095837
H       -2.12128105      -0.26907401      -0.33846231
H       -0.31610168      -0.51985773      -1.69671133
H        1.93344150      -1.37271048       0.62072795
11
Frame=14 idx=009085 GeodesicLength=1.2877718117715349 rxn_smarts="[O:1]=[C:2]1[C:3]([H:8])([H:9])[C:4]([H:10])=[C:5]([H:11])[C:6]1=[O:7]>>[O:1]([C:2]1=[C:6]([O-:7])[C:5]([H:11])=[C+:4][C:3]1([H:8])[H:9])[H:10]"
O       -0.34325082       1.22779579      -1.40393110
C       -0.32117914       0.95536486      -0.16227046
C       -1.22096094      -0.15242847       0.27088684
C       -0.10473073      -1.14761730      -0.11033891
C        1.05367685      -0.76220301       0.49508522
C        1.05289762       0.70876717       0.50478832
O        1.94387964       1.51491603       0.50902747
H       -1.55492084      -0.16841794       1.30224695
H       -2.11183050      -0.27743862      -0.34595429
H       -0.32484877      -0.52476302      -1.71047594
H        1.93126763      -1.37397549       0.65093590
11
Frame=15 idx=009085 GeodesicLength=1.3796465625866396 rxn_smarts="[O:1]=[C:2]1[C:3]([H:8])([H:9])[C:4]([H:10])=[C:5]([H:11])[C:6]1=[O:7]>>[O:1]([C:2]1=[C:6]([O-:7])[C:5]([H:11])=[C+:4][C:3]1([H:8])[H:9])[H:10]"
O       -0.35471599       1.26887939      -1.38310247
C       -0.32474590       0.96813132      -0.15074574
C       -1.21350221      -0.15827795       0.26705708
C       -0.10048969      -1.16103237      -0.10126969
C        1.05532269      -0.76476215       0.49945796
C        1.05669266       0.70662733       0.49557559
O        1.95339975       1.50709280       0.47687638
H       -1.56532510      -0.17579682       1.29272412
H       -2.10176208      -0.28554933      -0.35421840
H       -0.33369527      -0.53063043      -1.72447237
H        1.92882113      -1.37468178       0.68211753
11
Frame=16 idx=009085 GeodesicLength=1.4715122363650484 rxn_smarts="[O:1]=[C:2]1[C:3]([H:8])([H:9])[C:4]([H:10])=[C:5]([H:11])[C:6]1=[O:7]>>[O:1]([C:2]1=[C:6]([O-:7])[C:5]([H:11])=[C+:4][C:3]1([H:8])[H:9])[H:10]"
O       -0.36714501       1.31169949      -1.36013889
C       -0.32823860       0.98100672      -0.13835068
C       -1.20572562      -0.16407678       0.26287217
C       -0.09620310      -1.17493230      -0.09139739
C        1.05721415      -0.76744781       0.50377350
C        1.06079772       0.70422435       0.48539206
O        1.96288905       1.49861714       0.44331365
H       -1.57607429      -0.18341129       1.28228619
H       -2.09100426      -0.29337212      -0.36337361
H       -0.34257707      -0.53757412      -1.73870039
H        1.92606703      -1.37473328       0.71432340
