14
Frame=0 idx=003564 GeodesicLength=0.0 rxn_smarts="[C:1]([C@@:2]1([H:10])[O:3][C:4]([H:11])([H:12])[C@:5]1([O:6][H:14])[H:13])([H:7])([H:8])[H:9]>>[C:1](=[C:2]([O:3][C:4]([C:5](=[O:6])[H:13])([H:11])[H:12])[H:10])([H:7])[H:8].[H:9][H:14]"
C        1.55866961       0.50544125       0.27480776
C        0.74025600      -0.58730577       0.39697541
O       -0.21641850      -0.62395542       1.41641121
C       -1.42619703      -0.52905196       0.67946962
C       -0.91867971      -0.34970761      -0.75322348
O       -1.01239196       0.75124634      -1.34544032
H        1.52835139       1.27527671       1.03645643
H        2.46818390       0.42582756      -0.30667765
H        0.91904279       1.53839836      -0.73540194
H        1.06249345      -1.55249276       0.01685147
H       -2.00528992       0.34153237       0.99779506
H       -2.03286902      -1.43428936       0.79410183
H       -0.81302368      -1.25333549      -1.36605291
H        0.14787270       1.49241575      -1.10607250
14
Frame=1 idx=003564 GeodesicLength=0.08110263481504003 rxn_smarts="[C:1]([C@@:2]1([H:10])[O:3][C:4]([H:11])([H:12])[C@:5]1([O:6][H:14])[H:13])([H:7])([H:8])[H:9]>>[C:1](=[C:2]([O:3][C:4]([C:5](=[O:6])[H:13])([H:11])[H:12])[H:10])([H:7])[H:8].[H:9][H:14]"
C        1.54969578       0.50983810       0.28049187
C        0.74617231      -0.59906182       0.38628833
O       -0.20592458      -0.67365527       1.40706132
C       -1.41929298      -0.52586990       0.68575498
C       -0.92309797      -0.34872653      -0.75001372
O       -1.02701998       0.75082060      -1.34852623
H        1.47821692       1.28040930       1.03926580
H        2.49047121       0.43027728      -0.24906541
H        0.92687137       1.54182676      -0.76616074
H        1.08877669      -1.55495569       0.00019369
H       -1.96449971       0.35956121       1.02298184
H       -2.05400018      -1.41165501       0.79837006
H       -0.82703284      -1.25205817      -1.36495609
H        0.14066396       1.49324913      -1.14168569
14
Frame=2 idx=003564 GeodesicLength=0.16195879774782865 rxn_smarts="[C:1]([C@@:2]1([H:10])[O:3][C:4]([H:11])([H:12])[C@:5]1([O:6][H:14])[H:13])([H:7])([H:8])[H:9]>>[C:1](=[C:2]([O:3][C:4]([C:5](=[O:6])[H:13])([H:11])[H:12])[H:10])([H:7])[H:8].[H:9][H:14]"
C        1.54074046       0.51361073       0.28569295
C        0.75201998      -0.61074876       0.37581743
O       -0.19626723      -0.72177355       1.39606766
C       -1.41198967      -0.52262376       0.69191280
C       -0.92741140      -0.34745565      -0.74698048
O       -1.04150190       0.75079146      -1.35142934
H        1.42903177       1.28388062       1.04057439
H        2.50997426       0.43467801      -0.19020317
H        0.93472818       1.54528295      -0.79635518
H        1.11499543      -1.55727849      -0.01524931
H       -1.92306519       0.37618224       1.04728028
H       -2.07346031      -1.38846572       0.80359399
H       -0.84058366      -1.25040577      -1.36395716
H        0.13278929       1.49432571      -1.17676485
14
Frame=3 idx=003564 GeodesicLength=0.24257862054009477 rxn_smarts="[C:1]([C@@:2]1([H:10])[O:3][C:4]([H:11])([H:12])[C@:5]1([O:6][H:14])[H:13])([H:7])([H:8])[H:9]>>[C:1](=[C:2]([O:3][C:4]([C:5](=[O:6])[H:13])([H:11])[H:12])[H:10])([H:7])[H:8].[H:9][H:14]"
C        1.53195689       0.51672810       0.29033782
C        0.75778414      -0.62233447       0.36560698
O       -0.18748373      -0.76803199       1.38363841
C       -1.40434782      -0.51933601       0.69787792
C       -0.93157197      -0.34590374      -0.74413840
O       -1.05584282       0.75113724      -1.35418782
H        1.38126880       1.28570214       1.04045181
H        2.52656838       0.43881060      -0.13052867
H        0.94252726       1.54894103      -0.82586155
H        1.14109197      -1.55955143      -0.02915262
H       -1.88132135       0.39135000       1.07052376
H       -2.09115256      -1.36495021       0.80965804
H       -0.85358283      -1.24838639      -1.36307765
H        0.12410562       1.49582514      -1.21114803
14
Frame=4 idx=003564 GeodesicLength=0.32296612374960554 rxn_smarts="[C:1]([C@@:2]1([H:10])[O:3][C:4]([H:11])([H:12])[C@:5]1([O:6][H:14])[H:13])([H:7])([H:8])[H:9]>>[C:1](=[C:2]([O:3][C:4]([C:5](=[O:6])[H:13])([H:11])[H:12])[H:10])([H:7])[H:8].[H:9][H:14]"
C        1.52348672       0.51916932       0.29437453
C        0.76346229      -0.63380865       0.35568146
O       -0.17958270      -0.81226474       1.36998062
C       -1.39641790      -0.51602551       0.70360522
C       -0.93554345      -0.34407773      -0.74149406
O       -1.07006614       0.75183200      -1.35682837
H        1.33528725       1.28593965       1.03895629
H        2.54017247       0.44250047      -0.07035756
H        0.95021979       1.55293222      -0.85463984
H        1.16705404      -1.56186158      -0.04126943
H       -1.83954170       0.40506266       1.09260942
H       -2.10703891      -1.34129675       0.81644197
H       -0.86597963      -1.24600431      -1.36234003
H        0.11448787       1.49790295      -1.24472021
14
Frame=5 idx=003564 GeodesicLength=0.40332919165309583 rxn_smarts="[C:1]([C@@:2]1([H:10])[O:3][C:4]([H:11])([H:12])[C@:5]1([O:6][H:14])[H:13])([H:7])([H:8])[H:9]>>[C:1](=[C:2]([O:3][C:4]([C:5](=[O:6])[H:13])([H:11])[H:12])[H:10])([H:7])[H:8].[H:9][H:14]"
C        1.51538823       0.52095313       0.29778968
C        0.76904037      -0.64516766       0.34599797
O       -0.17249849      -0.85450626       1.35524742
C       -1.38824082      -0.51274538       0.70910152
C       -0.93934461      -0.34196807      -0.73901336
O       -1.08429157       0.75288062      -1.35930521
H        1.29115274       1.28473646       1.03617814
H        2.55121375       0.44565707      -0.00973861
H        0.95785129       1.55729022      -0.88282598
H        1.19284659      -1.56423087      -0.05152059
H       -1.79793090       0.41734367       1.11351831
H       -2.12121282      -1.31765028       0.82388003
H       -0.87780845      -1.24323732      -1.36174787
H        0.10383469       1.50064466      -1.27756146
14
Frame=6 idx=003564 GeodesicLength=0.48357008260345097 rxn_smarts="[C:1]([C@@:2]1([H:10])[O:3][C:4]([H:11])([H:12])[C@:5]1([O:6][H:14])[H:13])([H:7])([H:8])[H:9]>>[C:1](=[C:2]([O:3][C:4]([C:5](=[O:6])[H:13])([H:11])[H:12])[H:10])([H:7])[H:8].[H:9][H:14]"
C        1.50778257       0.52208682       0.30058350
C        0.77453702      -0.65642047       0.33657525
O       -0.16621400      -0.89471367       1.33964639
C       -1.37984805      -0.50949565       0.71433716
C       -0.94292892      -0.33957132      -0.73669525
O       -1.09851611       0.75427664      -1.36161803
H        1.24906462       1.28222711       1.03217754
H        2.55945222       0.44814353       0.05108818
H        0.96543953       1.56205453      -0.91048261
H        1.21848802      -1.56673926      -0.05975983
H       -1.75665411       0.42823308       1.13326498
H       -2.13365844      -1.29416626       0.83182435
H       -0.88903267      -1.24007528      -1.36131973
H        0.09208833       1.50416020      -1.30962189
14
Frame=7 idx=003564 GeodesicLength=0.5636974674299525 rxn_smarts="[C:1]([C@@:2]1([H:10])[O:3][C:4]([H:11])([H:12])[C@:5]1([O:6][H:14])[H:13])([H:7])([H:8])[H:9]>>[C:1](=[C:2]([O:3][C:4]([C:5](=[O:6])[H:13])([H:11])[H:12])[H:10])([H:7])[H:8].[H:9][H:14]"
C        1.50075782       0.52257776       0.30279247
C        0.77996711      -0.66759050       0.32740934
O       -0.16067448      -0.93295364       1.32333723
C       -1.37125986      -0.50629262       0.71931248
C       -0.94627241      -0.33687942      -0.73452041
O       -1.11277369       0.75602265      -1.36373161
H        1.20905500       1.27855976       1.02702007
H        2.56487171       0.44990620       0.11198020
H        0.97303606       1.56723299      -0.93772395
H        1.24400256      -1.56943155      -0.06592251
H       -1.71582005       0.43779538       1.15190072
H       -2.14445071      -1.27095568       0.84016540
H       -0.89966315      -1.23650331      -1.36106752
H        0.07922410       1.50851197      -1.34095190
14
Frame=8 idx=003564 GeodesicLength=0.643746502025619 rxn_smarts="[C:1]([C@@:2]1([H:10])[O:3][C:4]([H:11])([H:12])[C@:5]1([O:6][H:14])[H:13])([H:7])([H:8])[H:9]>>[C:1](=[C:2]([O:3][C:4]([C:5](=[O:6])[H:13])([H:11])[H:12])[H:10])([H:7])[H:8].[H:9][H:14]"
C        1.49436883       0.52244420       0.30445854
C        0.78534686      -0.67870239       0.31848572
O       -0.15583274      -0.96932041       1.30643950
C       -1.36248794      -0.50315119       0.72403346
C       -0.94936185      -0.33387838      -0.73246962
O       -1.12709891       0.75812675      -1.36560648
H        1.17111695       1.27387789       1.02075790
H        2.56750496       0.45091308       0.17284583
H        0.98070440       1.57281037      -0.96466775
H        1.26941146      -1.57234152      -0.06996394
H       -1.67550247       0.44608695       1.16948696
H       -2.15365609      -1.24809852       0.84881685
H       -0.90971977      -1.23249576      -1.36100150
H        0.06520632       1.51372893      -1.37161546
14
Frame=9 idx=003564 GeodesicLength=0.7239152651686527 rxn_smarts="[C:1]([C@@:2]1([H:10])[O:3][C:4]([H:11])([H:12])[C@:5]1([O:6][H:14])[H:13])([H:7])([H:8])[H:9]>>[C:1](=[C:2]([O:3][C:4]([C:5](=[O:6])[H:13])([H:11])[H:12])[H:10])([H:7])[H:8].[H:9][H:14]"
C        1.48860401       0.52171904       0.30563175
C        0.79067904      -0.68977624       0.30974586
O       -0.15158996      -1.00401170       1.28903208
C       -1.35355388      -0.50012141       0.72852841
C       -0.95221007      -0.33055866      -0.73049903
O       -1.14159083       0.76059547      -1.36717279
H        1.13509975       1.26831423       1.01347247
H        2.56778984       0.45119962       0.23373413
H        0.98855782       1.57871906      -0.99149927
H        1.29471367      -1.57543554      -0.07190990
H       -1.63574154       0.45317485       1.18608810
H       -2.16147005      -1.22562398       0.85772652
H       -0.91925340      -1.22803235      -1.36111008
H        0.04996560       1.51983761      -1.40176825
14
Frame=10 idx=003564 GeodesicLength=0.8040490124014932 rxn_smarts="[C:1]([C@@:2]1([H:10])[O:3][C:4]([H:11])([H:12])[C@:5]1([O:6][H:14])[H:13])([H:7])([H:8])[H:9]>>[C:1](=[C:2]([O:3][C:4]([C:5](=[O:6])[H:13])([H:11])[H:12])[H:10])([H:7])[H:8].[H:9][H:14]"
C        1.48353134       0.52041526       0.30639641
C        0.79599383      -0.70084300       0.30121609
O       -0.14793599      -1.03709709       1.27122758
C       -1.34445389      -0.49718270       0.73279160
C       -0.95477105      -0.32690654      -0.72860510
O       -1.15619473       0.76344289      -1.36840539
H        1.10102093       1.26199716       1.00521111
H        2.56537199       0.45075553       0.29439764
H        0.99664185       1.58493861      -1.01827329
H        1.31994302      -1.57878272      -0.07171749
H       -1.59654952       0.45912097       1.20180047
H       -2.16788789      -1.20360329       0.86679459
H       -0.92824510      -1.22309014      -1.36140691
H        0.03353521       1.52683505      -1.43142731
14
Frame=11 idx=003564 GeodesicLength=0.8841932036324842 rxn_smarts="[C:1]([C@@:2]1([H:10])[O:3][C:4]([H:11])([H:12])[C@:5]1([O:6][H:14])[H:13])([H:7])([H:8])[H:9]>>[C:1](=[C:2]([O:3][C:4]([C:5](=[O:6])[H:13])([H:11])[H:12])[H:10])([H:7])[H:8].[H:9][H:14]"
C        1.47917202       0.51855123       0.30685159
C        0.80131077      -0.71193291       0.29289538
O       -0.14482310      -1.06871990       1.25310198
C       -1.33519296      -0.49435345       0.73683421
C       -0.95701689      -0.32291151      -0.72676516
O       -1.17091736       0.76668121      -1.36925156
H        1.06878368       1.25503734       0.99603987
H        2.56025874       0.44963050       0.35464613
H        1.00506218       1.59140616      -1.04508774
H        1.34510747      -1.58239403      -0.06935599
H       -1.55793160       0.46397873       1.21671023
H       -2.17301889      -1.18206279       0.87594222
H       -0.93669606      -1.21764875      -1.36189509
H        0.01590200       1.53473816      -1.46066607
14
Frame=12 idx=003564 GeodesicLength=0.9643420923124347 rxn_smarts="[C:1]([C@@:2]1([H:10])[O:3][C:4]([H:11])([H:12])[C@:5]1([O:6][H:14])[H:13])([H:7])([H:8])[H:9]>>[C:1](=[C:2]([O:3][C:4]([C:5](=[O:6])[H:13])([H:11])[H:12])[H:10])([H:7])[H:8].[H:9][H:14]"
C        1.47552203       0.51614351       0.30708169
C        0.80664121      -0.72307152       0.28478666
O       -0.14222336      -1.09898914       1.23470713
C       -1.32577994      -0.49164636       0.74066206
C       -0.95893131      -0.31856265      -0.72496592
O       -1.18575737       0.77031950      -1.36967470
H        1.03831404       1.24752990       0.98602435
H        2.55250125       0.44786109       0.41430685
H        1.01389868       1.59806465      -1.07202056
H        1.37021800      -1.58627283      -0.06479531
H       -1.51989144       0.46779654       1.23088217
H       -2.17693901      -1.16103288       0.88511333
H       -0.94461089      -1.21168693      -1.36258038
H       -0.00296190       1.54354712      -1.48952737
14
Frame=13 idx=003564 GeodesicLength=1.044562502825886 rxn_smarts="[C:1]([C@@:2]1([H:10])[O:3][C:4]([H:11])([H:12])[C@:5]1([O:6][H:14])[H:13])([H:7])([H:8])[H:9]>>[C:1](=[C:2]([O:3][C:4]([C:5](=[O:6])[H:13])([H:11])[H:12])[H:10])([H:7])[H:8].[H:9][H:14]"
C        1.47253240       0.51322112       0.30714301
C        0.81199657      -0.73427908       0.27684882
O       -0.14007962      -1.12805880       1.21605482
C       -1.31622370      -0.48908715       0.74428721
C       -0.96051243      -0.31386133      -0.72318832
O       -1.20076280       0.77434564      -1.36964059
H        1.00950593       1.23953806       0.97525276
H        2.54245174       0.44546938       0.47337242
H        1.02321197       1.60487358      -1.09916610
H        1.39525102      -1.59033615      -0.05803515
H       -1.48241851       0.47063337       1.24436975
H       -2.17980674      -1.14050698       0.89427580
H       -0.95200970      -1.20520617      -1.36345363
H       -0.02313612       1.55325452      -1.51812081
14
Frame=14 idx=003564 GeodesicLength=1.1247946189694922 rxn_smarts="[C:1]([C@@:2]1([H:10])[O:3][C:4]([H:11])([H:12])[C@:5]1([O:6][H:14])[H:13])([H:7])([H:8])[H:9]>>[C:1](=[C:2]([O:3][C:4]([C:5](=[O:6])[H:13])([H:11])[H:12])[H:10])([H:7])[H:8].[H:9][H:14]"
C        1.47022520       0.50980018       0.30716483
C        0.81740231      -0.74558063       0.26911572
O       -0.13839045      -1.15602213       1.19720731
C       -1.30652015      -0.48667210       0.74771039
C       -0.96171798      -0.30879192      -0.72142476
O       -1.21588150       0.77878050      -1.36910763
H        0.98228456       1.23116313       0.96377882
H        2.52987359       0.44252942       0.53152304
H        1.03311151       1.61175328      -1.12657354
H        1.42020852      -1.59465623      -0.04903773
H       -1.44547613       0.47251409       1.25727095
H       -2.18164453      -1.12051231       0.90335601
H       -0.95886220      -1.19817503      -1.36452750
H       -0.04461276       1.56386974      -1.54645589
14
Frame=15 idx=003564 GeodesicLength=1.205022574299246 rxn_smarts="[C:1]([C@@:2]1([H:10])[O:3][C:4]([H:11])([H:12])[C@:5]1([O:6][H:14])[H:13])([H:7])([H:8])[H:9]>>[C:1](=[C:2]([O:3][C:4]([C:5](=[O:6])[H:13])([H:11])[H:12])[H:10])([H:7])[H:8].[H:9][H:14]"
C        1.46857060       0.50590067       0.30724226
C        0.82286965      -0.75699270       0.26159934
O       -0.13713428      -1.18297459       1.17818886
C       -1.29667966      -0.48441213       0.75093128
C       -0.96252313      -0.30335100      -0.71966896
O       -1.23110860       0.78361731      -1.36805340
H        0.95656851       1.22246100       0.95168844
H        2.51491554       0.43908033       0.58854085
H        1.04366712       1.61865776      -1.15429162
H        1.44505013      -1.59921919      -0.03774979
H       -1.40905878       0.47347894       1.26963948
H       -2.18254088      -1.10106798       0.91230113
H       -0.96514604      -1.19058622      -1.36580588
H       -0.06745018       1.57540778      -1.57456197
14
Frame=16 idx=003564 GeodesicLength=1.285250152861757 rxn_smarts="[C:1]([C@@:2]1([H:10])[O:3][C:4]([H:11])([H:12])[C@:5]1([O:6][H:14])[H:13])([H:7])([H:8])[H:9]>>[C:1](=[C:2]([O:3][C:4]([C:5](=[O:6])[H:13])([H:11])[H:12])[H:10])([H:7])[H:8].[H:9][H:14]"
C        1.46753124       0.50154673       0.30743521
C        0.82841562      -0.76852954       0.25428152
O       -0.13628025      -1.20902473       1.15899615
C       -1.28670538      -0.48231770       0.75395412
C       -0.96291802      -0.29753569      -0.71791501
O       -1.24645919       0.78885142      -1.36644812
H        0.93227103       1.21348503       0.93903801
H        2.49776670       0.43516384       0.64440008
H        1.05494683       1.62553475      -1.18238957
H        1.46973199      -1.60398855      -0.02417347
H       -1.37312161       0.47355543       1.28153668
H       -2.18258482      -1.08216442       0.92108344
H       -0.97086528      -1.18243253      -1.36729191
H       -0.09172887       1.58785596      -1.60250714
