15
Frame=0 idx=011907 GeodesicLength=0.0 rxn_smarts="[O:1]([C@@:2]1([H:9])[C:3]([H:10])([H:11])[C@:4]2([H:12])[C:5]([H:13])([H:14])[C@@:6]1([H:15])[O:7]2)[H:8]>>[H:8][H:9].[O:1]=[C:2]1[C:3]([H:10])([H:11])[C@:4]2([H:12])[C:5]([H:13])([H:14])[C@@:6]1([H:15])[O:7]2"
O        2.08203026      -1.00062927      -0.51606426
C        0.99577549      -0.43578512      -0.05332209
C        0.64373961       1.04973809      -0.29359994
C       -0.84497044       0.82579825      -0.56401054
C       -1.31756971      -0.08417746       0.57987636
C       -0.41800853      -1.03915074      -0.21038153
O       -0.79958229      -0.35099130      -1.42425504
H        1.83979057      -0.89181759       0.83491346
H        1.13576376      -0.50427865       1.39221247
H        0.87025337       1.70630908       0.54497346
H        1.18007865       1.38256838      -1.18171185
H       -1.43944975       1.64507165      -0.96072471
H       -1.05825508       0.17081310       1.60808502
H       -2.36730623      -0.35151961       0.48466604
H       -0.50228968      -2.12194886      -0.24065687
15
Frame=1 idx=011907 GeodesicLength=0.1071746728328432 rxn_smarts="[O:1]([C@@:2]1([H:9])[C:3]([H:10])([H:11])[C@:4]2([H:12])[C:5]([H:13])([H:14])[C@@:6]1([H:15])[O:7]2)[H:8]>>[H:8][H:9].[O:1]=[C:2]1[C:3]([H:10])([H:11])[C@:4]2([H:12])[C:5]([H:13])([H:14])[C@@:6]1([H:15])[O:7]2"
O        2.08264366      -0.98005285      -0.52210939
C        0.99463203      -0.42837907      -0.04882231
C        0.63874772       1.05514459      -0.29516079
C       -0.84851238       0.82668697      -0.57057179
C       -1.32096719      -0.07805162       0.57743601
C       -0.41722116      -1.03476025      -0.20612066
O       -0.79900558      -0.35445737      -1.42468353
H        1.86059989      -0.93717946       0.83645170
H        1.15428309      -0.53649344       1.40858061
H        0.86057438       1.71458341       0.54248882
H        1.17354237       1.39281154      -1.18248969
H       -1.44413122       1.64200129      -0.97371921
H       -1.06466044       0.18481523       1.60441641
H       -2.36984467      -0.34882668       0.48226984
H       -0.50068048      -2.11784230      -0.22796602
15
Frame=2 idx=011907 GeodesicLength=0.21438431995648904 rxn_smarts="[O:1]([C@@:2]1([H:9])[C:3]([H:10])([H:11])[C@:4]2([H:12])[C:5]([H:13])([H:14])[C@@:6]1([H:15])[O:7]2)[H:8]>>[H:8][H:9].[O:1]=[C:2]1[C:3]([H:10])([H:11])[C@:4]2([H:12])[C:5]([H:13])([H:14])[C@@:6]1([H:15])[O:7]2"
O        2.08346011      -0.95879924      -0.52636250
C        0.99348200      -0.42020761      -0.04366996
C        0.63346325       1.06110480      -0.29687754
C       -0.85222915       0.82762756      -0.57731185
C       -1.32443824      -0.07164449       0.57501525
C       -0.41623005      -1.03006373      -0.20150225
O       -0.79812418      -0.35804101      -1.42495644
H        1.88144285      -0.98495442       0.83634102
H        1.17351388      -0.57049408       1.42454564
H        0.85033389       1.72371376       0.53965379
H        1.16680032       1.40327154      -1.18347275
H       -1.44913361       1.63867745      -0.98716938
H       -1.07121918       0.19931171       1.60068473
H       -2.37237869      -0.34610779       0.47988258
H       -0.49874321      -2.11339444      -0.21480032
15
Frame=3 idx=011907 GeodesicLength=0.32183426332298193 rxn_smarts="[O:1]([C@@:2]1([H:9])[C:3]([H:10])([H:11])[C@:4]2([H:12])[C:5]([H:13])([H:14])[C@@:6]1([H:15])[O:7]2)[H:8]>>[H:8][H:9].[O:1]=[C:2]1[C:3]([H:10])([H:11])[C@:4]2([H:12])[C:5]([H:13])([H:14])[C@@:6]1([H:15])[O:7]2"
O        2.08451958      -0.93686885      -0.52857627
C        0.99229053      -0.41120855      -0.03778251
C        0.62786097       1.06765280      -0.29874661
C       -0.85613412       0.82861566      -0.58424300
C       -1.32801296      -0.06492590       0.57261010
C       -0.41502877      -1.02502848      -0.19647191
O       -0.79690603      -0.36175955      -1.42504194
H        1.90241695      -1.03518121       0.83433937
H        1.19353382      -0.60651826       1.43999601
H        0.83946967       1.73377671       0.53643846
H        1.15985322       1.41392971      -1.18466852
H       -1.45447250       1.63506509      -1.00112053
H       -1.07799837       0.21436202       1.59687459
H       -2.37492992      -0.34335438       0.47748626
H       -0.49646208      -2.10855681      -0.20109349
15
Frame=4 idx=011907 GeodesicLength=0.4296155929384156 rxn_smarts="[O:1]([C@@:2]1([H:9])[C:3]([H:10])([H:11])[C@:4]2([H:12])[C:5]([H:13])([H:14])[C@@:6]1([H:15])[O:7]2)[H:8]>>[H:8][H:9].[O:1]=[C:2]1[C:3]([H:10])([H:11])[C@:4]2([H:12])[C:5]([H:13])([H:14])[C@@:6]1([H:15])[O:7]2"
O        2.08586813      -0.91426088      -0.52846998
C        0.99102486      -0.40131383      -0.03103804
C        0.62192103       1.07482139      -0.30075742
C       -0.86024202       0.82964184      -0.59138201
C       -1.33173821      -0.05785337       0.57022324
C       -0.41359587      -1.01960732      -0.19095169
O       -0.79529467      -0.36563593      -1.42489923
H        1.92362829      -1.08788789       0.83009562
H        1.21441582      -0.64486520       1.45479468
H        0.82790559       1.74485787       0.53281194
H        1.15271960       1.42475253      -1.18607958
H       -1.46017021       1.63110567      -1.01563857
H       -1.08510128       0.23004885       1.59298047
H       -2.37754456      -0.34054718       0.47506043
H       -0.49379651      -2.10325654      -0.18674986
15
Frame=5 idx=011907 GeodesicLength=0.5367243127186462 rxn_smarts="[O:1]([C@@:2]1([H:9])[C:3]([H:10])([H:11])[C@:4]2([H:12])[C:5]([H:13])([H:14])[C@@:6]1([H:15])[O:7]2)[H:8]>>[H:8][H:9].[O:1]=[C:2]1[C:3]([H:10])([H:11])[C@:4]2([H:12])[C:5]([H:13])([H:14])[C@@:6]1([H:15])[O:7]2"
O        2.08737590      -0.89078872      -0.52644385
C        0.98978377      -0.39049540      -0.02306898
C        0.61566853       1.08258825      -0.30279176
C       -0.86443280       0.83064455      -0.59871595
C       -1.33562066      -0.05044074       0.56784411
C       -0.41190905      -1.01383943      -0.18476521
O       -0.79310628      -0.36978533      -1.42439673
H        1.94479003      -1.14306968       0.82327938
H        1.23612266      -0.68546704       1.46872078
H        0.81556784       1.75707468       0.52877562
H        1.14545173       1.43573944      -1.18755115
H       -1.46600714       1.62671234      -1.03081960
H       -1.09267264       0.24644834       1.58897149
H       -2.38016557      -0.33773608       0.47251253
H       -0.49084632      -2.09758517      -0.17155068
15
Frame=6 idx=011907 GeodesicLength=0.6439996622594026 rxn_smarts="[O:1]([C@@:2]1([H:9])[C:3]([H:10])([H:11])[C@:4]2([H:12])[C:5]([H:13])([H:14])[C@@:6]1([H:15])[O:7]2)[H:8]>>[H:8][H:9].[O:1]=[C:2]1[C:3]([H:10])([H:11])[C@:4]2([H:12])[C:5]([H:13])([H:14])[C@@:6]1([H:15])[O:7]2"
O        2.08914461      -0.86661236      -0.52175072
C        0.98842723      -0.37865854      -0.01386180
C        0.60905789       1.09100518      -0.30488044
C       -0.86878313       0.83163817      -0.60628363
C       -1.33974978      -0.04260584       0.56547886
C       -0.40997277      -1.00764190      -0.17786338
O       -0.79034675      -0.37419676      -1.42353487
H        1.96635611      -1.20059739       0.81343731
H        1.25879424      -0.72888204       1.48158433
H        0.80237154       1.77047619       0.52430269
H        1.13807186       1.44681498      -1.18915108
H       -1.47210359       1.62184492      -1.04673895
H       -1.10083111       0.26366768       1.58485316
H       -2.38291219      -0.33484611       0.46983932
H       -0.48752416      -2.09140618      -0.15543081
15
Frame=7 idx=011907 GeodesicLength=0.7515403320966298 rxn_smarts="[O:1]([C@@:2]1([H:9])[C:3]([H:10])([H:11])[C@:4]2([H:12])[C:5]([H:13])([H:14])[C@@:6]1([H:15])[O:7]2)[H:8]>>[H:8][H:9].[O:1]=[C:2]1[C:3]([H:10])([H:11])[C@:4]2([H:12])[C:5]([H:13])([H:14])[C@@:6]1([H:15])[O:7]2"
O        2.09113440      -0.84174385      -0.51416276
C        0.98690684      -0.36574578      -0.00322144
C        0.60207267       1.10007851      -0.30697426
C       -0.87326786       0.83259514      -0.61410110
C       -1.34418771      -0.03430539       0.56310967
C       -0.40780771      -1.00098715      -0.17011958
O       -0.78693962      -0.37893236      -1.42222335
H        1.98857451      -1.26028529       0.80014634
H        1.28246670      -0.77544024       1.49314108
H        0.78823574       1.78513113       0.51938230
H        1.13062361       1.45792266      -1.19081934
H       -1.47838489       1.61643303      -1.06349297
H       -1.10972864       0.28181600       1.58057589
H       -2.38582176      -0.33185403       0.46697592
H       -0.48387628      -2.08468237      -0.13821640
15
Frame=8 idx=011907 GeodesicLength=0.8592583825279237 rxn_smarts="[O:1]([C@@:2]1([H:9])[C:3]([H:10])([H:11])[C@:4]2([H:12])[C:5]([H:13])([H:14])[C@@:6]1([H:15])[O:7]2)[H:8]>>[H:8][H:9].[O:1]=[C:2]1[C:3]([H:10])([H:11])[C@:4]2([H:12])[C:5]([H:13])([H:14])[C@@:6]1([H:15])[O:7]2"
O        2.09330615      -0.81626233      -0.50335229
C        0.98516405      -0.35170103       0.00910525
C        0.59471389       1.10979598      -0.30901208
C       -0.87786374       0.83347327      -0.62218497
C       -1.34902998      -0.02547691       0.56072892
C       -0.40540607      -0.99381377      -0.16137215
O       -0.78276416      -0.38404287      -1.42035527
H        2.01170968      -1.32183125       0.78276716
H        1.30715789      -0.82555007       1.50310127
H        0.77306317       1.80108824       0.51399082
H        1.12319688       1.46895333      -1.19248982
H       -1.48479540       1.61036227      -1.08119908
H       -1.11957861       0.30102389       1.57611232
H       -2.38898829      -0.32870924       0.46385406
H       -0.47988545      -2.07730951      -0.11969414
15
Frame=9 idx=011907 GeodesicLength=0.9659300603864173 rxn_smarts="[O:1]([C@@:2]1([H:9])[C:3]([H:10])([H:11])[C@:4]2([H:12])[C:5]([H:13])([H:14])[C@@:6]1([H:15])[O:7]2)[H:8]>>[H:8][H:9].[O:1]=[C:2]1[C:3]([H:10])([H:11])[C@:4]2([H:12])[C:5]([H:13])([H:14])[C@@:6]1([H:15])[O:7]2"
O        2.09549013      -0.78988309      -0.48999194
C        0.98335458      -0.33656794       0.02348062
C        0.58707363       1.12005032      -0.31079703
C       -0.88235674       0.83414549      -0.63048809
C       -1.35423567      -0.01619194       0.55831655
C       -0.40276363      -0.98622540      -0.15141073
O       -0.77763810      -0.38972000      -1.41775358
H        2.03505235      -1.38515808       0.76099225
H        1.33272224      -0.87856688       1.51110406
H        0.75686912       1.81835883       0.50819887
H        1.11588156       1.47991482      -1.19387710
H       -1.49095564       1.60349741      -1.09991424
H       -1.13048440       0.32134511       1.57138483
H       -2.39229133      -0.32552583       0.46035556
H       -0.47571811      -2.06947284      -0.09960004
15
Frame=10 idx=011907 GeodesicLength=1.0726154911263275 rxn_smarts="[O:1]([C@@:2]1([H:9])[C:3]([H:10])([H:11])[C@:4]2([H:12])[C:5]([H:13])([H:14])[C@@:6]1([H:15])[O:7]2)[H:8]>>[H:8][H:9].[O:1]=[C:2]1[C:3]([H:10])([H:11])[C@:4]2([H:12])[C:5]([H:13])([H:14])[C@@:6]1([H:15])[O:7]2"
O        2.09767795      -0.76301979      -0.47293281
C        0.98120044      -0.32022095       0.04011820
C        0.57909460       1.13087417      -0.31234522
C       -0.88682331       0.83462760      -0.63908647
C       -1.36002399      -0.00628276       0.55586683
C       -0.39994279      -0.97809090      -0.14006450
O       -0.77149422      -0.39596874      -1.41434181
H        2.05976621      -1.44954229       0.73385980
H        1.35927626      -0.93565646       1.51673489
H        0.73949644       1.83699986       0.50194864
H        1.10880596       1.49058308      -1.19504672
H       -1.49693689       1.59576325      -1.11984203
H       -1.14278473       0.34299507       1.56638487
H       -2.39598689      -0.32211150       0.45642726
H       -0.47132504      -2.06094962      -0.07768094
15
Frame=11 idx=011907 GeodesicLength=1.1794802349954692 rxn_smarts="[O:1]([C@@:2]1([H:9])[C:3]([H:10])([H:11])[C@:4]2([H:12])[C:5]([H:13])([H:14])[C@@:6]1([H:15])[O:7]2)[H:8]>>[H:8][H:9].[O:1]=[C:2]1[C:3]([H:10])([H:11])[C@:4]2([H:12])[C:5]([H:13])([H:14])[C@@:6]1([H:15])[O:7]2"
O        2.09970785      -0.73579134      -0.45195999
C        0.97861330      -0.30264040       0.05930884
C        0.57080576       1.14219269      -0.31355030
C       -0.89117584       0.83484093      -0.64797605
C       -1.36648211       0.00429778       0.55334091
C       -0.39702404      -0.96939037      -0.12713330
O       -0.76424789      -0.40289727      -1.40994263
H        2.08628381      -1.51439194       0.70076266
H        1.38670295      -0.99705001       1.51955267
H        0.72091342       1.85699595       0.49523544
H        1.10209413       1.50080356      -1.19584109
H       -1.50253115       1.58702451      -1.14108564
H       -1.15668319       0.36612122       1.56100473
H       -2.40013897      -0.31841776       0.45194317
H       -0.46683804      -2.05169755      -0.05365942
15
Frame=12 idx=011907 GeodesicLength=1.2864316542025596 rxn_smarts="[O:1]([C@@:2]1([H:9])[C:3]([H:10])([H:11])[C@:4]2([H:12])[C:5]([H:13])([H:14])[C@@:6]1([H:15])[O:7]2)[H:8]>>[H:8][H:9].[O:1]=[C:2]1[C:3]([H:10])([H:11])[C@:4]2([H:12])[C:5]([H:13])([H:14])[C@@:6]1([H:15])[O:7]2"
O        2.10141419      -0.70837075      -0.42681946
C        0.97550232      -0.28384456       0.08140065
C        0.56226993       1.15388197      -0.31427964
C       -0.89529816       0.83467854      -0.65715044
C       -1.37371945       0.01560473       0.55070968
C       -0.39406486      -0.96008812      -0.11236791
O       -0.75576212      -0.41062470      -1.40434223
H        2.11492934      -1.57894980       0.66086989
H        1.41482706      -1.06289014       1.51902414
H        0.70109602       1.87828011       0.48805971
H        1.09593037       1.51036335      -1.19607570
H       -1.50749292       1.57709928      -1.16376509
H       -1.17244768       0.39087795       1.55514039
H       -2.40484028      -0.31438122       0.44679023
H       -0.46234376      -2.04163662      -0.02719421
15
Frame=13 idx=011907 GeodesicLength=1.3921949884234823 rxn_smarts="[O:1]([C@@:2]1([H:9])[C:3]([H:10])([H:11])[C@:4]2([H:12])[C:5]([H:13])([H:14])[C@@:6]1([H:15])[O:7]2)[H:8]>>[H:8][H:9].[O:1]=[C:2]1[C:3]([H:10])([H:11])[C@:4]2([H:12])[C:5]([H:13])([H:14])[C@@:6]1([H:15])[O:7]2"
O        2.10266410      -0.68074730      -0.39787021
C        0.97192621      -0.26396179       0.10661972
C        0.55366001       1.16571260      -0.31433275
C       -0.89894617       0.83397243      -0.66652662
C       -1.38170790       0.02753715       0.54796867
C       -0.39110880      -0.95029752      -0.09558675
O       -0.74589068      -0.41931637      -1.39734888
H        2.14486667      -1.64241078       0.61379352
H        1.44339667      -1.13227592       1.51453888
H        0.68018919       1.90062682       0.48049867
H        1.09052924       1.51910902      -1.19545513
H       -1.51139509       1.56581158      -1.18785893
H       -1.19015643       0.41722629       1.54871082
H       -2.41003597      -0.31008424       0.44090148
H       -0.45799106      -2.03090196       0.00194750
15
Frame=14 idx=011907 GeodesicLength=1.498258918519319 rxn_smarts="[O:1]([C@@:2]1([H:9])[C:3]([H:10])([H:11])[C@:4]2([H:12])[C:5]([H:13])([H:14])[C@@:6]1([H:15])[O:7]2)[H:8]>>[H:8][H:9].[O:1]=[C:2]1[C:3]([H:10])([H:11])[C@:4]2([H:12])[C:5]([H:13])([H:14])[C@@:6]1([H:15])[O:7]2"
O        2.10317646      -0.65353023      -0.36415942
C        0.96753466      -0.24295999       0.13538110
C        0.54498487       1.17758551      -0.31365026
C       -0.90207944       0.83268049      -0.67616424
C       -1.39069851       0.04029023       0.54508374
C       -0.38836141      -0.93995624      -0.07648353
O       -0.73458148      -0.42909991      -1.38874315
H        2.17778127      -1.70338782       0.55832340
H        1.47218235      -1.20621804       1.50548878
H        0.65813957       1.92402217       0.47248068
H        1.08613060       1.52666276      -1.19391331
H       -1.51404197       1.55305678      -1.21362531
H       -1.21022120       0.44548756       1.54162215
H       -2.41598875      -0.30526004       0.43413495
H       -0.45395702      -2.01937322       0.03422443
15
Frame=15 idx=011907 GeodesicLength=1.6045810533488638 rxn_smarts="[O:1]([C@@:2]1([H:9])[C:3]([H:10])([H:11])[C@:4]2([H:12])[C:5]([H:13])([H:14])[C@@:6]1([H:15])[O:7]2)[H:8]>>[H:8][H:9].[O:1]=[C:2]1[C:3]([H:10])([H:11])[C@:4]2([H:12])[C:5]([H:13])([H:14])[C@@:6]1([H:15])[O:7]2"
O        2.10270260      -0.62708055      -0.32561787
C        0.96219103      -0.22099422       0.16788588
C        0.53639695       1.18923303      -0.31209065
C       -0.90451191       0.83065846      -0.68600658
C       -1.40073601       0.05385530       0.54202750
C       -0.38598673      -0.92913416      -0.05486714
O       -0.72181354      -0.44011674      -1.37831014
H        2.21389330      -1.76049174       0.49395614
H        1.50075445      -1.28430392       1.49124182
H        0.63513871       1.94818810       0.46401404
H        1.08298228       1.53270103      -1.19122618
H       -1.51505742       1.53869956      -1.24106179
H       -1.23274858       0.47571142       1.53374928
H       -2.42274411      -0.29983761       0.42640967
H       -0.45046104      -2.00708796       0.06989601
15
Frame=16 idx=011907 GeodesicLength=1.7108904939321259 rxn_smarts="[O:1]([C@@:2]1([H:9])[C:3]([H:10])([H:11])[C@:4]2([H:12])[C:5]([H:13])([H:14])[C@@:6]1([H:15])[O:7]2)[H:8]>>[H:8][H:9].[O:1]=[C:2]1[C:3]([H:10])([H:11])[C@:4]2([H:12])[C:5]([H:13])([H:14])[C@@:6]1([H:15])[O:7]2"
O        2.10095819      -0.60193814      -0.28219675
C        0.95572374      -0.19830843       0.20424737
C        0.52808852       1.20033325      -0.30953586
C       -0.90603887       0.82778070      -0.69597480
C       -1.41184976       0.06820374       0.53879159
C       -0.38419964      -0.91795652      -0.03060039
O       -0.70762204      -0.45249993      -1.36586011
H        2.25340482      -1.81184221       0.42037563
H        1.52860865      -1.36601192       1.47112448
H        0.61147875       1.97276065       0.45509951
H        1.08138043       1.53683199      -1.18720916
H       -1.51401709       1.52264720      -1.27010726
H       -1.25778640       0.50787905       1.52498722
H       -2.43034747      -0.29372430       0.41769888
H       -0.44778182      -1.99415513       0.10915965
