15
Frame=0 idx=010349 GeodesicLength=0.0 rxn_smarts="[C:1]([C@@:2]1([C:5](=[O:6])[N:7]([H:14])[H:15])[C:3]([H:11])([H:12])[N:4]1[H:13])([H:8])([H:9])[H:10]>>[C:1]([C@@:2]12[C@@:3]([H:12])([N:4]1[H:13])[C@@:5]2([O:6][H:11])[N:7]([H:14])[H:15])([H:8])([H:9])[H:10]"
C       -1.06345854      -1.08539054       0.60360486
C       -0.35047205       0.08874382      -0.01334255
C       -0.81472333       1.04133466      -1.05071095
N       -0.56451706       1.45262123       0.41554749
C        1.08019151      -0.08771306      -0.33960622
O        1.42080709      -0.60209436      -1.48699591
N        2.03080464       0.26990511       0.47640288
H       -2.12692050      -0.84743700       0.66640601
H       -0.96385306      -1.98338493      -0.01235746
H       -0.70191577      -1.32267366       1.60992655
H        0.65050958      -0.36653013      -2.05472293
H       -1.88820227       0.89278795      -1.22049801
H       -1.44045542       1.46528826       0.93314572
H        1.74245418       0.77437963       1.30097003
H        2.98975100       0.31016298       0.17223053
15
Frame=1 idx=010349 GeodesicLength=0.11410828505053956 rxn_smarts="[C:1]([C@@:2]1([C:5](=[O:6])[N:7]([H:14])[H:15])[C:3]([H:11])([H:12])[N:4]1[H:13])([H:8])([H:9])[H:10]>>[C:1]([C@@:2]12[C@@:3]([H:12])([N:4]1[H:13])[C@@:5]2([O:6][H:11])[N:7]([H:14])[H:15])([H:8])([H:9])[H:10]"
C       -1.08066341      -1.09759003       0.60746818
C       -0.35050803       0.07428701       0.01145264
C       -0.77947594       1.03296265      -1.03398499
N       -0.55732462       1.44254499       0.43252356
C        1.07647348      -0.10733277      -0.32749340
O        1.40211879      -0.64624872      -1.46789611
N        2.03853590       0.28372457       0.46691865
H       -2.14288664      -0.85113451       0.65924180
H       -0.97937857      -1.99093933      -0.01461576
H       -0.73075135      -1.34483710       1.61529568
H        0.65374352      -0.32488181      -2.06334665
H       -1.84885343       0.90337448      -1.23734975
H       -1.44331170       1.46511645       0.93232853
H        1.75474353       0.80696959       1.28140865
H        2.98753847       0.35398453       0.13804897
15
Frame=2 idx=010349 GeodesicLength=0.22834738909955526 rxn_smarts="[C:1]([C@@:2]1([C:5](=[O:6])[N:7]([H:14])[H:15])[C:3]([H:11])([H:12])[N:4]1[H:13])([H:8])([H:9])[H:10]>>[C:1]([C@@:2]12[C@@:3]([H:12])([N:4]1[H:13])[C@@:5]2([O:6][H:11])[N:7]([H:14])[H:15])([H:8])([H:9])[H:10]"
C       -1.09762529      -1.10927017       0.61133921
C       -0.35066330       0.05996441       0.03600378
C       -0.74519931       1.02362856      -1.01703081
N       -0.55024758       1.43265159       0.44881448
C        1.07279653      -0.12678083      -0.31493727
O        1.38286731      -0.68629023      -1.44978991
N        2.04583150       0.29700134       0.45688593
H       -2.15844222      -0.85447317       0.65221221
H       -0.99427232      -1.99811957      -0.01648368
H       -0.75954078      -1.36604818       1.62061168
H        0.66018042      -0.28410203      -2.06963112
H       -1.80917866       0.91280859      -1.25326005
H       -1.44558934       1.46532215       0.93103385
H        1.76603926       0.83755522       1.26158569
H        2.98304381       0.39615232       0.10264601
15
Frame=3 idx=010349 GeodesicLength=0.34250857393683803 rxn_smarts="[C:1]([C@@:2]1([C:5](=[O:6])[N:7]([H:14])[H:15])[C:3]([H:11])([H:12])[N:4]1[H:13])([H:8])([H:9])[H:10]>>[C:1]([C@@:2]12[C@@:3]([H:12])([N:4]1[H:13])[C@@:5]2([O:6][H:11])[N:7]([H:14])[H:15])([H:8])([H:9])[H:10]"
C       -1.11415252      -1.12038763       0.61520139
C       -0.35087892       0.04589481       0.06021865
C       -0.71194815       1.01345043      -0.99990173
N       -0.54328540       1.42298455       0.46438648
C        1.06921101      -0.14574569      -0.30222866
O        1.36326943      -0.72288005      -1.43260089
N        2.05250006       0.30966842       0.44635548
H       -2.17341784      -0.85750097       0.64537634
H       -1.00833105      -2.00487217      -0.01796236
H       -0.78795877      -1.38624444       1.62581620
H        0.66918853      -0.24390139      -2.07384773
H       -1.76930148       0.92111913      -1.26821495
H       -1.44728931       1.46582357       0.92929334
H        1.77606394       0.86619307       1.24144559
H        2.97633048       0.43639834       0.06666285
15
Frame=4 idx=010349 GeodesicLength=0.4564387199864151 rxn_smarts="[C:1]([C@@:2]1([C:5](=[O:6])[N:7]([H:14])[H:15])[C:3]([H:11])([H:12])[N:4]1[H:13])([H:8])([H:9])[H:10]>>[C:1]([C@@:2]12[C@@:3]([H:12])([N:4]1[H:13])[C@@:5]2([O:6][H:11])[N:7]([H:14])[H:15])([H:8])([H:9])[H:10]"
C       -1.13010870      -1.13096485       0.61903914
C       -0.35112733       0.03216028       0.08401328
C       -0.67986527       1.00258016      -0.98272991
N       -0.53646727       1.41364290       0.47919444
C        1.06574938      -0.16399348      -0.28960374
O        1.34351118      -0.75638567      -1.41632000
N        2.05850820       0.32174461       0.43545602
H       -2.18772018      -0.86030808       0.63877051
H       -1.02143761      -2.01124925      -0.01907903
H       -0.81572499      -1.40543375       1.63089001
H        0.68009571      -0.20419160      -2.07628046
H       -1.72945260       0.92837043      -1.28228381
H       -1.44844553       1.46662576       0.92713107
H        1.78479314       0.89305896       1.22106700
H        2.96769188       0.47434359       0.03073549
15
Frame=5 idx=010349 GeodesicLength=0.569277868410137 rxn_smarts="[C:1]([C@@:2]1([C:5](=[O:6])[N:7]([H:14])[H:15])[C:3]([H:11])([H:12])[N:4]1[H:13])([H:8])([H:9])[H:10]>>[C:1]([C@@:2]12[C@@:3]([H:12])([N:4]1[H:13])[C@@:5]2([O:6][H:11])[N:7]([H:14])[H:15])([H:8])([H:9])[H:10]"
C       -1.14541048      -1.14105152       0.62282935
C       -0.35140658       0.01881268       0.10738282
C       -0.64903480       0.99114604      -0.96562874
N       -0.52985128       1.40470026       0.49320143
C        1.06241204      -0.18138665      -0.27713501
O        1.32383089      -0.78666794      -1.40113834
N        2.06389665       0.33333247       0.42438004
H       -2.20130300      -0.86301193       0.63236147
H       -1.03345491      -2.01729688      -0.01988634
H       -0.84271239      -1.42366902       1.63582320
H        0.69199490      -0.16523585      -2.07725436
H       -1.68983425       0.93463474      -1.29553346
H       -1.44913979       1.46772218       0.92454607
H        1.79236696       0.91862024       1.20055204
H        2.95764605       0.50935120      -0.00450017
15
Frame=6 idx=010349 GeodesicLength=0.6816871634340698 rxn_smarts="[C:1]([C@@:2]1([C:5](=[O:6])[N:7]([H:14])[H:15])[C:3]([H:11])([H:12])[N:4]1[H:13])([H:8])([H:9])[H:10]>>[C:1]([C@@:2]12[C@@:3]([H:12])([N:4]1[H:13])[C@@:5]2([O:6][H:11])[N:7]([H:14])[H:15])([H:8])([H:9])[H:10]"
C       -1.16003436      -1.15064319       0.62658944
C       -0.35168943       0.00585114       0.13023995
C       -0.61944701       0.97920558      -0.94867290
N       -0.52337343       1.39613304       0.50637845
C        1.05921061      -0.19788491      -0.26503762
O        1.30420745      -0.81460306      -1.38678636
N        2.06864432       0.34434350       0.41316493
H       -2.21415344      -0.86558925       0.62622958
H       -1.04449354      -2.02303694      -0.02034513
H       -0.86879414      -1.44094905       1.64060736
H        0.70477282      -0.12653240      -2.07696353
H       -1.65049186       0.93999567      -1.30802224
H       -1.44932890       1.46907608       0.92154484
H        1.79870453       0.94261326       1.18002778
H        2.94626638       0.54202053      -0.03895456
15
Frame=7 idx=010349 GeodesicLength=0.7943196147593179 rxn_smarts="[C:1]([C@@:2]1([C:5](=[O:6])[N:7]([H:14])[H:15])[C:3]([H:11])([H:12])[N:4]1[H:13])([H:8])([H:9])[H:10]>>[C:1]([C@@:2]12[C@@:3]([H:12])([N:4]1[H:13])[C@@:5]2([O:6][H:11])[N:7]([H:14])[H:15])([H:8])([H:9])[H:10]"
C       -1.17396928      -1.15976424       0.63032309
C       -0.35197188      -0.00674032       0.15253093
C       -0.59113175       0.96682634      -0.93195873
N       -0.51702453       1.38793219       0.51869948
C        1.05613792      -0.21347080      -0.25344826
O        1.28473380      -0.84065630      -1.37309664
N        2.07279553       0.35478680       0.40189832
H       -2.22627685      -0.86806054       0.62041156
H       -1.05461627      -2.02851017      -0.02045720
H       -0.89389327      -1.45729756       1.64523538
H        0.71806292      -0.08782110      -2.07566797
H       -1.61153205       0.94452494      -1.31981764
H       -1.44902804       1.47066372       0.91813892
H        1.80389215       0.96510283       1.15961129
H        2.93382159       0.57248422      -0.07240253
15
Frame=8 idx=010349 GeodesicLength=0.9071217137093162 rxn_smarts="[C:1]([C@@:2]1([C:5](=[O:6])[N:7]([H:14])[H:15])[C:3]([H:11])([H:12])[N:4]1[H:13])([H:8])([H:9])[H:10]>>[C:1]([C@@:2]12[C@@:3]([H:12])([N:4]1[H:13])[C@@:5]2([O:6][H:11])[N:7]([H:14])[H:15])([H:8])([H:9])[H:10]"
C       -1.18721882      -1.16843643       0.63403246
C       -0.35225680      -0.01897801       0.17423935
C       -0.56409035       0.95405008      -0.91555222
N       -0.51081439       1.38007850       0.53016367
C        1.05318273      -0.22815518      -0.24242261
O        1.26548943      -0.86508521      -1.35999624
N        2.07639186       0.36470447       0.39064235
H       -2.23768953      -0.87045085       0.61491736
H       -1.06386131      -2.03374078      -0.02023209
H       -0.91799000      -1.47273392       1.64970592
H        0.73155044      -0.04896063      -2.07354952
H       -1.57300771       0.94828262      -1.33097132
H       -1.44827054       1.47244944       0.91433840
H        1.80800813       0.98621973       1.13937352
H        2.92057687       0.60075616      -0.10468902
15
Frame=9 idx=010349 GeodesicLength=1.0190336624279077 rxn_smarts="[C:1]([C@@:2]1([C:5](=[O:6])[N:7]([H:14])[H:15])[C:3]([H:11])([H:12])[N:4]1[H:13])([H:8])([H:9])[H:10]>>[C:1]([C@@:2]12[C@@:3]([H:12])([N:4]1[H:13])[C@@:5]2([O:6][H:11])[N:7]([H:14])[H:15])([H:8])([H:9])[H:10]"
C       -1.19980930      -1.17671155       0.63770401
C       -0.35254782      -0.03086111       0.19541837
C       -0.53824697       0.94091370      -0.89947215
N       -0.50475521       1.37256985       0.54075934
C        1.05032504      -0.24202359      -0.23187493
O        1.24651247      -0.88781199      -1.34761856
N        2.07950654       0.37418423       0.37950032
H       -2.24842937      -0.87280840       0.60969360
H       -1.07220728      -2.03874882      -0.01970660
H       -0.94115358      -1.48736107       1.65404054
H        0.74483213      -0.01010196      -2.07078306
H       -1.53500504       0.95135669      -1.34150301
H       -1.44712960       1.47441415       0.91011814
H        1.81122291       1.00630861       1.11937270
H        2.90688507       0.62668123      -0.13564870
15
Frame=10 idx=010349 GeodesicLength=1.130974719912967 rxn_smarts="[C:1]([C@@:2]1([C:5](=[O:6])[N:7]([H:14])[H:15])[C:3]([H:11])([H:12])[N:4]1[H:13])([H:8])([H:9])[H:10]>>[C:1]([C@@:2]12[C@@:3]([H:12])([N:4]1[H:13])[C@@:5]2([O:6][H:11])[N:7]([H:14])[H:15])([H:8])([H:9])[H:10]"
C       -1.21176488      -1.18459022       0.64138278
C       -0.35284180      -0.04243073       0.21599578
C       -0.51361779       0.92743601      -0.88379507
N       -0.49881560       1.36534907       0.55049793
C        1.04753861      -0.25510063      -0.22197222
O        1.22778123      -0.90951522      -1.33566756
N        2.08213348       0.38316138       0.36843270
H       -2.25852850      -0.87511225       0.60482330
H       -1.07982107      -2.04357922      -0.01881412
H       -0.96333543      -1.50114669       1.65826210
H        0.75810921       0.02938120      -2.06738150
H       -1.49751012       0.95377604      -1.35150092
H       -1.44558761       1.47650251       0.90550641
H        1.81349207       1.02519468       1.09959720
H        2.89276821       0.65067407      -0.16536682
15
Frame=11 idx=010349 GeodesicLength=1.243338002954981 rxn_smarts="[C:1]([C@@:2]1([C:5](=[O:6])[N:7]([H:14])[H:15])[C:3]([H:11])([H:12])[N:4]1[H:13])([H:8])([H:9])[H:10]>>[C:1]([C@@:2]12[C@@:3]([H:12])([N:4]1[H:13])[C@@:5]2([O:6][H:11])[N:7]([H:14])[H:15])([H:8])([H:9])[H:10]"
C       -1.22311536      -1.19210563       0.64510061
C       -0.35314996      -0.05371632       0.23594752
C       -0.49019218       0.91363570      -0.86858272
N       -0.49300469       1.35838117       0.55936109
C        1.04478403      -0.26744145      -0.21278506
O        1.20928775      -0.93053558      -1.32400646
N        2.08430091       0.39163869       0.35745528
H       -2.26802861      -0.87738623       0.60035001
H       -1.08679390      -2.04828418      -0.01751496
H       -0.98452992      -1.51412101       1.66241193
H        0.77137793       0.06992827      -2.06341003
H       -1.46057584       0.95557127      -1.36103260
H       -1.44368859       1.47867322       0.90048838
H        1.81488820       1.04300062       1.08002826
H        2.87844023       0.67276146      -0.19381125
15
Frame=12 idx=010349 GeodesicLength=1.3559129604750297 rxn_smarts="[C:1]([C@@:2]1([C:5](=[O:6])[N:7]([H:14])[H:15])[C:3]([H:11])([H:12])[N:4]1[H:13])([H:8])([H:9])[H:10]>>[C:1]([C@@:2]12[C@@:3]([H:12])([N:4]1[H:13])[C@@:5]2([O:6][H:11])[N:7]([H:14])[H:15])([H:8])([H:9])[H:10]"
C       -1.23388857      -1.19928895       0.64888575
C       -0.35348129      -0.06473921       0.25527988
C       -0.46793774       0.89952536      -0.85387677
N       -0.48733405       1.35164192       0.56734228
C        1.04203376      -0.27910791      -0.20431952
O        1.19102079      -0.95102942      -1.31260188
N        2.08603648       0.39963133       0.34658568
H       -2.27697087      -0.87965878       0.59628869
H       -1.09317571      -2.05290109      -0.01578282
H       -1.00475422      -1.52631388       1.66653238
H        0.78459337       0.11179886      -2.05889538
H       -1.42423097       0.95677487      -1.37015955
H       -1.44148366       1.48089557       0.89504249
H        1.81547244       1.05984645       1.06064241
H        2.86410025       0.69292488      -0.22096363
15
Frame=13 idx=010349 GeodesicLength=1.4688948262023402 rxn_smarts="[C:1]([C@@:2]1([C:5](=[O:6])[N:7]([H:14])[H:15])[C:3]([H:11])([H:12])[N:4]1[H:13])([H:8])([H:9])[H:10]>>[C:1]([C@@:2]12[C@@:3]([H:12])([N:4]1[H:13])[C@@:5]2([O:6][H:11])[N:7]([H:14])[H:15])([H:8])([H:9])[H:10]"
C       -1.24412077      -1.20617626       0.65277643
C       -0.35384860      -0.07552509       0.27397302
C       -0.44683952       0.88510435      -0.83973638
N       -0.48182001       1.34510149       0.57441544
C        1.03925093      -0.29015999      -0.19662754
O        1.17296071      -0.97126008      -1.30135095
N        2.08736623       0.40713054       0.33582957
H       -2.28540541      -0.88196089       0.59268206
H       -1.09904854      -2.05748470      -0.01357170
H       -1.02401430      -1.53775317       1.67068624
H        0.79779664       0.15545753      -2.05381388
H       -1.38851845       0.95739971      -1.37894918
H       -1.43901997       1.48313668       0.88913405
H        1.81530175       1.07583553       1.04137027
H        2.84995933       0.71115435      -0.24681745
15
Frame=14 idx=010349 GeodesicLength=1.5819026092615982 rxn_smarts="[C:1]([C@@:2]1([C:5](=[O:6])[N:7]([H:14])[H:15])[C:3]([H:11])([H:12])[N:4]1[H:13])([H:8])([H:9])[H:10]>>[C:1]([C@@:2]12[C@@:3]([H:12])([N:4]1[H:13])[C@@:5]2([O:6][H:11])[N:7]([H:14])[H:15])([H:8])([H:9])[H:10]"
C       -1.25384221      -1.21279900       0.65680127
C       -0.35425548      -0.08608755       0.29203040
C       -0.42685694       0.87037327      -0.82620691
N       -0.47647171       1.33874324       0.58056110
C        1.03641325      -0.30065856      -0.18971360
O        1.15508252      -0.99133631      -1.29025431
N        2.08831311       0.41413759       0.32519437
H       -2.29337238      -0.88431902       0.58954306
H       -1.10445648      -2.06207383      -0.01085214
H       -1.04232825      -1.54846510       1.67492808
H        0.81096288       0.20116432      -2.04809029
H       -1.35345513       0.95746042      -1.38746145
H       -1.43634769       1.48537441       0.88272568
H        1.81442313       1.09105394       1.02217489
H        2.83619138       0.72743216      -0.27138015
15
Frame=15 idx=010349 GeodesicLength=1.694797725491394 rxn_smarts="[C:1]([C@@:2]1([C:5](=[O:6])[N:7]([H:14])[H:15])[C:3]([H:11])([H:12])[N:4]1[H:13])([H:8])([H:9])[H:10]>>[C:1]([C@@:2]12[C@@:3]([H:12])([N:4]1[H:13])[C@@:5]2([O:6][H:11])[N:7]([H:14])[H:15])([H:8])([H:9])[H:10]"
C       -1.26309408      -1.21919405       0.66099565
C       -0.35470663      -0.09644350       0.30944873
C       -0.40795441       0.85531991      -0.81333899
N       -0.47129986       1.33254701       0.58574738
C        1.03349545      -0.31067170      -0.18359678
O        1.13735898      -1.01141475      -1.27927643
N        2.08890931       0.42063777       0.31468560
H       -2.30092306      -0.88676304       0.58689924
H       -1.10946233      -2.06671648      -0.00758544
H       -1.05972629      -1.55848143       1.67932876
H        0.82409831       0.24930145      -2.04162135
H       -1.31906045       0.95695241      -1.39576345
H       -1.43351509       1.48758704       0.87576449
H        1.81289584       1.10558289       1.00298146
H        2.82298431       0.74175646      -0.29466887
15
Frame=16 idx=010349 GeodesicLength=1.807358103283856 rxn_smarts="[C:1]([C@@:2]1([C:5](=[O:6])[N:7]([H:14])[H:15])[C:3]([H:11])([H:12])[N:4]1[H:13])([H:8])([H:9])[H:10]>>[C:1]([C@@:2]12[C@@:3]([H:12])([N:4]1[H:13])[C@@:5]2([O:6][H:11])[N:7]([H:14])[H:15])([H:8])([H:9])[H:10]"
C       -1.27190643      -1.22539316       0.66539384
C       -0.35520590      -0.10660363       0.32622209
C       -0.39009664       0.83993251      -0.80118452
N       -0.46631798       1.32649816       0.58993544
C        1.03047346      -0.32026049      -0.17829492
O        1.11976412      -1.03162218      -1.26839546
N        2.08918436       0.42662218       0.30431174
H       -2.30810151      -0.88932348       0.58477603
H       -1.11411647      -2.07145520      -0.00373497
H       -1.07622831      -1.56783149       1.68395866
H        0.83719108       0.30023178      -2.03428492
H       -1.28535758       0.95586581      -1.40391556
H       -1.43057004       1.48975594       0.86818786
H        1.81076805       1.11949508       0.98371515
H        2.81051980       0.75408817      -0.31669048
