14
Frame=0 idx=007799 GeodesicLength=0.0 rxn_smarts="[C:1]([C:2]1=[C:3]([H:11])[N:4]([H:12])[C:5](=[O:6])[C:7]1([H:13])[H:14])([H:8])([H:9])[H:10]>>[C:1]([C:2]1=[C:3]([H:11])[N:4]=[C:5]([O:6][H:12])[C:7]1([H:13])[H:14])([H:8])([H:9])[H:10]"
C       -1.92793149       0.61276646      -0.34190260
C       -0.49872224       0.30203041      -0.05780156
C        0.46494161       1.13336828       0.35994756
N        1.69159028       0.45313085       0.51386394
C        1.51942013      -0.80278953       0.19793618
O        2.61484465      -1.43719163       0.32765852
C        0.10769188      -1.08266550      -0.20729059
H       -2.18519643       0.39589491      -1.38259317
H       -2.14059245       1.66599714      -0.15628078
H       -2.59825848       0.01865146       0.28564254
H        0.38775585       2.18935906       0.57180476
H        2.85431998      -0.14422115       0.66766617
H       -0.34864043      -1.82950974       0.44760642
H        0.05877719      -1.47482102      -1.22625733
14
Frame=1 idx=007799 GeodesicLength=0.031073622310694396 rxn_smarts="[C:1]([C:2]1=[C:3]([H:11])[N:4]([H:12])[C:5](=[O:6])[C:7]1([H:13])[H:14])([H:8])([H:9])[H:10]>>[C:1]([C:2]1=[C:3]([H:11])[N:4]=[C:5]([O:6][H:12])[C:7]1([H:13])[H:14])([H:8])([H:9])[H:10]"
C       -1.92894608       0.61308326      -0.34205460
C       -0.50006720       0.30158223      -0.05739240
C        0.46332537       1.13114885       0.36358664
N        1.69156614       0.45307960       0.51481543
C        1.51761813      -0.80459358       0.19962392
O        2.61207438      -1.43953309       0.33496759
C        0.10608887      -1.08221732      -0.20776680
H       -2.18543924       0.39766382      -1.38323183
H       -2.14168143       1.66606460      -0.15506880
H       -2.59979462       0.01803474       0.28404469
H        0.38853588       2.18849778       0.56983454
H        2.86632755      -0.13897387       0.65986646
H       -0.34964079      -1.83040346       0.44601007
H        0.06003304      -1.47343355      -1.22723491
14
Frame=2 idx=007799 GeodesicLength=0.06214719390736452 rxn_smarts="[C:1]([C:2]1=[C:3]([H:11])[N:4]([H:12])[C:5](=[O:6])[C:7]1([H:13])[H:14])([H:8])([H:9])[H:10]>>[C:1]([C:2]1=[C:3]([H:11])[N:4]=[C:5]([O:6][H:12])[C:7]1([H:13])[H:14])([H:8])([H:9])[H:10]"
C       -1.92994093       0.61342444      -0.34227007
C       -0.50138719       0.30114778      -0.05708733
C        0.46178592       1.12896195       0.36694604
N        1.69161894       0.45306147       0.51545172
C        1.51580155      -0.80642040       0.20121944
O        2.60941054      -1.44165647       0.34215220
C        0.10445190      -1.08179837      -0.20821009
H       -2.18572547       0.39933715      -1.38389087
H       -2.14270699       1.66618477      -0.15403973
H       -2.60129430       0.01754406       0.28249294
H        0.38918242       2.18744501       0.56850736
H        2.87826083      -0.13379947       0.65227215
H       -0.35064641      -1.83122777       0.44457445
H        0.06118920      -1.47220414      -1.22811821
14
Frame=3 idx=007799 GeodesicLength=0.09321544980091623 rxn_smarts="[C:1]([C:2]1=[C:3]([H:11])[N:4]([H:12])[C:5](=[O:6])[C:7]1([H:13])[H:14])([H:8])([H:9])[H:10]>>[C:1]([C:2]1=[C:3]([H:11])[N:4]=[C:5]([O:6][H:12])[C:7]1([H:13])[H:14])([H:8])([H:9])[H:10]"
C       -1.93094266       0.61376770      -0.34245113
C       -0.50269498       0.30071838      -0.05684265
C        0.46030567       1.12679622       0.37008903
N        1.69174545       0.45307951       0.51576958
C        1.51398894      -0.80825118       0.20265290
O        2.60689947      -1.44353763       0.34895952
C        0.10279779      -1.08139219      -0.20868932
H       -2.18610310       0.40095274      -1.38448025
H       -2.14371380       1.66631921      -0.15302364
H       -2.60275498       0.01710161       0.28106486
H        0.38984826       2.18634663       0.56717915
H        2.88998586      -0.12883382       0.64559302
H       -0.35161184      -1.83202519       0.44318407
H        0.06224990      -1.47104199      -1.22900513
14
Frame=4 idx=007799 GeodesicLength=0.12429949066108666 rxn_smarts="[C:1]([C:2]1=[C:3]([H:11])[N:4]([H:12])[C:5](=[O:6])[C:7]1([H:13])[H:14])([H:8])([H:9])[H:10]>>[C:1]([C:2]1=[C:3]([H:11])[N:4]=[C:5]([O:6][H:12])[C:7]1([H:13])[H:14])([H:8])([H:9])[H:10]"
C       -1.93194982       0.61411553      -0.34261477
C       -0.50398978       0.30029727      -0.05667090
C        0.45889289       1.12466298       0.37297260
N        1.69194628       0.45313962       0.51574891
C        1.51218103      -0.81008304       0.20392631
O        2.60453739      -1.44519910       0.35533854
C        0.10112251      -1.08100061      -0.20918926
H       -2.18657382       0.40249042      -1.38501202
H       -2.14469548       1.66647582      -0.15206078
H       -2.60417594       0.01672591       0.27975876
H        0.39049893       2.18518500       0.56596742
H        2.90154556      -0.12405677       0.63983283
H       -0.35254008      -1.83278097       0.44187437
H        0.06320033      -1.46997205      -1.22987201
14
Frame=5 idx=007799 GeodesicLength=0.1554050007500498 rxn_smarts="[C:1]([C:2]1=[C:3]([H:11])[N:4]([H:12])[C:5](=[O:6])[C:7]1([H:13])[H:14])([H:8])([H:9])[H:10]>>[C:1]([C:2]1=[C:3]([H:11])[N:4]=[C:5]([O:6][H:12])[C:7]1([H:13])[H:14])([H:8])([H:9])[H:10]"
C       -1.93295703       0.61447338      -0.34279077
C       -0.50527037       0.29988712      -0.05658401
C        0.45755348       1.12257008       0.37556817
N        1.69221794       0.45324230       0.51539371
C        1.51037348      -0.81191817       0.20506163
O        2.60231253      -1.44666450       0.36129874
C        0.09941982      -1.08062825      -0.20968542
H       -2.18712625       0.40393166      -1.38551305
H       -2.14564040       1.66666640      -0.15120814
H       -2.60556018       0.01644138       0.27855514
H        0.39108474       2.18393072       0.56505561
H        2.91300426      -0.11942672       0.63484556
H       -0.35344401      -1.83348049       0.44068831
H        0.06403197      -1.46902490      -1.23068547
14
Frame=6 idx=007799 GeodesicLength=0.186601328125344 rxn_smarts="[C:1]([C:2]1=[C:3]([H:11])[N:4]([H:12])[C:5](=[O:6])[C:7]1([H:13])[H:14])([H:8])([H:9])[H:10]>>[C:1]([C:2]1=[C:3]([H:11])[N:4]=[C:5]([O:6][H:12])[C:7]1([H:13])[H:14])([H:8])([H:9])[H:10]"
C       -1.93396907       0.61483847      -0.34297089
C       -0.50654275       0.29948518      -0.05656673
C        0.45627756       1.12051318       0.37790441
N        1.69252895       0.45336356       0.51481962
C        1.50856109      -0.81375922       0.20608221
O        2.60021158      -1.44796429       0.36683308
C        0.09769024      -1.08027279      -0.21018238
H       -2.18775867       0.40528215      -1.38597902
H       -2.14655605       1.66688658      -0.15044979
H       -2.60691473       0.01623772       0.27745349
H        0.39162852       2.18261258       0.56433546
H        2.92441504      -0.11491071       0.63058368
H       -0.35433206      -1.83413728       0.43959718
H        0.06476034      -1.46817511      -1.23146033
14
Frame=7 idx=007799 GeodesicLength=0.21788068763176857 rxn_smarts="[C:1]([C:2]1=[C:3]([H:11])[N:4]([H:12])[C:5](=[O:6])[C:7]1([H:13])[H:14])([H:8])([H:9])[H:10]>>[C:1]([C:2]1=[C:3]([H:11])[N:4]=[C:5]([O:6][H:12])[C:7]1([H:13])[H:14])([H:8])([H:9])[H:10]"
C       -1.93498954       0.61520836      -0.34314846
C       -0.50781001       0.29909036      -0.05661103
C        0.45506156       1.11849264       0.37999584
N        1.69286423       0.45349268       0.51408994
C        1.50674306      -0.81560546       0.20699519
O        2.59823360      -1.44911129       0.37192361
C        0.09593426      -1.07993243      -0.21068445
H       -2.18847345       0.40654195      -1.38640547
H       -2.14744682       1.66713370      -0.14977599
H       -2.60824353       0.01610851       0.27645889
H        0.39214623       2.18125016       0.56373504
H        2.93579624      -0.11050154       0.62704883
H       -0.35520714      -1.83475887       0.43858553
H        0.06539131      -1.46740877      -1.23220746
14
Frame=8 idx=007799 GeodesicLength=0.24871980870100244 rxn_smarts="[C:1]([C:2]1=[C:3]([H:11])[N:4]([H:12])[C:5](=[O:6])[C:7]1([H:13])[H:14])([H:8])([H:9])[H:10]>>[C:1]([C:2]1=[C:3]([H:11])[N:4]=[C:5]([O:6][H:12])[C:7]1([H:13])[H:14])([H:8])([H:9])[H:10]"
C       -1.93605000       0.61555573      -0.34317781
C       -0.50904192       0.29872290      -0.05683799
C        0.45400457       1.11657619       0.38146231
N        1.69339079       0.45375646       0.51248668
C        1.50501400      -0.81738527       0.20738518
O        2.59656367      -1.44995393       0.37581054
C        0.09417749      -1.07958678      -0.21132859
H       -2.18951380       0.40758816      -1.38657264
H       -2.14832267       1.66739331      -0.14909163
H       -2.60943666       0.01607060       0.27590762
H        0.39274162       2.17991489       0.56287552
H        2.94660997      -0.10658993       0.62645662
H       -0.35590342      -1.83528649       0.43765269
H        0.06576636      -1.46677583      -1.23302850
14
Frame=9 idx=007799 GeodesicLength=0.2796304303024028 rxn_smarts="[C:1]([C:2]1=[C:3]([H:11])[N:4]([H:12])[C:5](=[O:6])[C:7]1([H:13])[H:14])([H:8])([H:9])[H:10]>>[C:1]([C:2]1=[C:3]([H:11])[N:4]=[C:5]([O:6][H:12])[C:7]1([H:13])[H:14])([H:8])([H:9])[H:10]"
C       -1.93709770       0.61592583      -0.34329468
C       -0.51025717       0.29837248      -0.05717968
C        0.45303237       1.11471507       0.38258209
N        1.69394712       0.45402857       0.51070570
C        1.50327119      -0.81917903       0.20770113
O        2.59500453      -1.45067193       0.37929217
C        0.09237599      -1.07927306      -0.21190870
H       -2.19060749       0.40849475      -1.38677920
H       -2.14913493       1.66771564      -0.14865826
H       -2.61060186       0.01618242       0.27540887
H        0.39316778       2.17843330       0.56271487
H        2.95751004      -0.10268177       0.62619518
H       -0.35661694      -1.83572736       0.43693942
H        0.06600706      -1.46633492      -1.23371890
14
Frame=10 idx=007799 GeodesicLength=0.3107039313153 rxn_smarts="[C:1]([C:2]1=[C:3]([H:11])[N:4]([H:12])[C:5](=[O:6])[C:7]1([H:13])[H:14])([H:8])([H:9])[H:10]>>[C:1]([C:2]1=[C:3]([H:11])[N:4]=[C:5]([O:6][H:12])[C:7]1([H:13])[H:14])([H:8])([H:9])[H:10]"
C       -1.93812637       0.61632404      -0.34352172
C       -0.51147139       0.29802420      -0.05756955
C        0.45209695       1.11286562       0.38355960
N        1.69448756       0.45426704       0.50893877
C        1.50148110      -0.82101700       0.20808011
O        2.59350888      -1.45130348       0.38258124
C        0.09052133      -1.07900021      -0.21238815
H       -2.19165893       0.40935897      -1.38708887
H       -2.14989789       1.66808788      -0.14841871
H       -2.61178473       0.01639125       0.27482878
H        0.39345078       2.17682243       0.56316341
H        2.96862577      -0.09865219       0.62567825
H       -0.35739813      -1.83612097       0.43641963
H        0.06616506      -1.46604757      -1.23426277
14
Frame=11 idx=007799 GeodesicLength=0.3416368521883807 rxn_smarts="[C:1]([C:2]1=[C:3]([H:11])[N:4]([H:12])[C:5](=[O:6])[C:7]1([H:13])[H:14])([H:8])([H:9])[H:10]>>[C:1]([C:2]1=[C:3]([H:11])[N:4]=[C:5]([O:6][H:12])[C:7]1([H:13])[H:14])([H:8])([H:9])[H:10]"
C       -1.93917856       0.61671530      -0.34368226
C       -0.51268604       0.29767579      -0.05800885
C        0.45123705       1.11105535       0.38423042
N        1.69511993       0.45456231       0.50669461
C        1.49972162      -0.82283404       0.20818078
O        2.59219652      -1.45175962       0.38514783
C        0.08863996      -1.07874153      -0.21290339
H       -2.19281983       0.41019839      -1.38730574
H       -2.15066915       1.66845473      -0.14811088
H       -2.61293304       0.01660774       0.27438949
H        0.39378459       2.17522936       0.56342795
H        2.97954852      -0.09482535       0.62673903
H       -0.35809220      -1.83647464       0.43600054
H        0.06613064      -1.46586378      -1.23479954
14
Frame=12 idx=007799 GeodesicLength=0.37264919822303705 rxn_smarts="[C:1]([C:2]1=[C:3]([H:11])[N:4]([H:12])[C:5](=[O:6])[C:7]1([H:13])[H:14])([H:8])([H:9])[H:10]>>[C:1]([C:2]1=[C:3]([H:11])[N:4]=[C:5]([O:6][H:12])[C:7]1([H:13])[H:14])([H:8])([H:9])[H:10]"
C       -1.94024160       0.61711204      -0.34383608
C       -0.51392216       0.29731012      -0.05841440
C        0.45039274       1.10923789       0.38483711
N        1.69576216       0.45484762       0.50432453
C        1.49794266      -0.82467203       0.20821814
O        2.59098498      -1.45211165       0.38733659
C        0.08671831      -1.07850971      -0.21338985
H       -2.19395751       0.41110180      -1.38753632
H       -2.15145191       1.66881664      -0.14774081
H       -2.61411345       0.01680199       0.27390758
H        0.39415399       2.17363867       0.56357177
H        2.99052860      -0.09099914       0.62834544
H       -0.35878263      -1.83683206       0.43566640
H        0.06598583      -1.46574217      -1.23529010
14
Frame=13 idx=007799 GeodesicLength=0.4036692376139538 rxn_smarts="[C:1]([C:2]1=[C:3]([H:11])[N:4]([H:12])[C:5](=[O:6])[C:7]1([H:13])[H:14])([H:8])([H:9])[H:10]>>[C:1]([C:2]1=[C:3]([H:11])[N:4]=[C:5]([O:6][H:12])[C:7]1([H:13])[H:14])([H:8])([H:9])[H:10]"
C       -1.94131878       0.61751157      -0.34396550
C       -0.51516987       0.29693543      -0.05882387
C        0.44958784       1.10743100       0.38529067
N        1.69643382       0.45513560       0.50175041
C        1.49615413      -0.82652418       0.20814914
O        2.58987625      -1.45235484       0.38914764
C        0.08476304      -1.07829874      -0.21387657
H       -2.19512275       0.41203160      -1.38774378
H       -2.15224355       1.66917610      -0.14731405
H       -2.61529857       0.01698806       0.27344964
H        0.39455489       2.17204221       0.56361879
H        3.00151467      -0.08720824       0.63068101
H       -0.35945851      -1.83718119       0.43539667
H        0.06572738      -1.46568437      -1.23576019
14
Frame=14 idx=007799 GeodesicLength=0.43469682913831986 rxn_smarts="[C:1]([C:2]1=[C:3]([H:11])[N:4]([H:12])[C:5](=[O:6])[C:7]1([H:13])[H:14])([H:8])([H:9])[H:10]>>[C:1]([C:2]1=[C:3]([H:11])[N:4]=[C:5]([O:6][H:12])[C:7]1([H:13])[H:14])([H:8])([H:9])[H:10]"
C       -1.94242106       0.61790550      -0.34403189
C       -0.51642641       0.29655384      -0.05925549
C        0.44883082       1.10563893       0.38555439
N        1.69714595       0.45543333       0.49892111
C        1.49437135      -0.82837940       0.20790527
O        2.58888020      -1.45248702       0.39051461
C        0.08278179      -1.07810165      -0.21440511
H       -2.19637111       0.41296427      -1.38787555
H       -2.15305075       1.66952662      -0.14679906
H       -2.61646976       0.01716322       0.27309186
H        0.39502795       2.17047499       0.56341380
H        3.01245162      -0.08349792       0.63407225
H       -0.36009734      -1.83752332       0.43514976
H        0.06534674      -1.46567141      -1.23625595
14
Frame=15 idx=007799 GeodesicLength=0.46570797685879034 rxn_smarts="[C:1]([C:2]1=[C:3]([H:11])[N:4]([H:12])[C:5](=[O:6])[C:7]1([H:13])[H:14])([H:8])([H:9])[H:10]>>[C:1]([C:2]1=[C:3]([H:11])[N:4]=[C:5]([O:6][H:12])[C:7]1([H:13])[H:14])([H:8])([H:9])[H:10]"
C       -1.94355055       0.61829208      -0.34401932
C       -0.51769298       0.29616280      -0.05970001
C        0.44812266       1.10385864       0.38563781
N        1.69790211       0.45573829       0.49581860
C        1.49259157      -0.83024294       0.20749269
O        2.58799696      -1.45250690       0.39145485
C        0.08077664      -1.07791703      -0.21498784
H       -2.19770964       0.41390402      -1.38791539
H       -2.15387500       1.66986579      -0.14617500
H       -2.61762728       0.01732116       0.27284765
H        0.39559233       2.16894306       0.56288511
H        3.02331785      -0.07986505       0.63856103
H       -0.36069999      -1.83786932       0.43489654
H        0.06485531      -1.46568461      -1.23679673
14
Frame=16 idx=007799 GeodesicLength=0.49672121154586346 rxn_smarts="[C:1]([C:2]1=[C:3]([H:11])[N:4]([H:12])[C:5](=[O:6])[C:7]1([H:13])[H:14])([H:8])([H:9])[H:10]>>[C:1]([C:2]1=[C:3]([H:11])[N:4]=[C:5]([O:6][H:12])[C:7]1([H:13])[H:14])([H:8])([H:9])[H:10]"
C       -1.94470822       0.61867123      -0.34392611
C       -0.51896215       0.29576842      -0.06019062
C        0.44747431       1.10209646       0.38549846
N        1.69872378       0.45606862       0.49234891
C        1.49082436      -0.83210740       0.20687043
O        2.58723681      -1.45240815       0.39191682
C        0.07874818      -1.07774428      -0.21563482
H       -2.19917421       0.41481270      -1.38784593
H       -2.15470623       1.67020150      -0.14547201
H       -2.61875578       0.01748683       0.27276116
H        0.39623406       2.16743509       0.56209726
H        3.03408712      -0.07633102       0.64430998
H       -0.36125663      -1.83820329       0.43465045
H        0.06423460      -1.46574672      -1.23738397
