11
Frame=0 idx=005086 GeodesicLength=0.0 rxn_smarts="[N:1]#[C:2][C:3]([C@@:4]1([H:9])[C:5]([H:10])([H:11])[O:6]1)([H:7])[H:8]>>[N:1]#[C:2][C:3]([C-:4]=[O+:6][C:5]([H:9])([H:10])[H:11])([H:7])[H:8]"
N        2.92270995       0.44753990       0.35933110
C        1.96800433      -0.14486936       0.13032073
C        0.72892607      -0.84738303      -0.17412132
C       -0.40637360      -0.49033279       0.80115375
C       -1.34748064       0.79742260      -0.05982095
O       -1.61480358      -0.57350750       0.09577351
H        0.87640274      -1.91772289       0.00556234
H        0.47934782      -0.72785457      -1.23364469
H       -0.49581125       0.96402309       0.76958676
H       -2.14437808       1.41686543       0.34435764
H       -0.96654379       1.07581917      -1.03849885
11
Frame=1 idx=005086 GeodesicLength=0.0604755622151459 rxn_smarts="[N:1]#[C:2][C:3]([C@@:4]1([H:9])[C:5]([H:10])([H:11])[O:6]1)([H:7])[H:8]>>[N:1]#[C:2][C:3]([C-:4]=[O+:6][C:5]([H:9])([H:10])[H:11])([H:7])[H:8]"
N        2.93956245       0.43038110       0.35656497
C        1.97897730      -0.15300940       0.12914531
C        0.73664699      -0.85070116      -0.17378377
C       -0.40068061      -0.47679579       0.78962776
C       -1.35792979       0.80464493      -0.05948400
O       -1.60598153      -0.57224737       0.08801454
H        0.87828923      -1.92037251       0.01456981
H        0.49154720      -0.73793286      -1.23496705
H       -0.50400945       0.97745287       0.78569371
H       -2.16740137       1.40719428       0.34507306
H       -0.98902042       1.09138590      -1.04045434
11
Frame=2 idx=005086 GeodesicLength=0.12092386077415943 rxn_smarts="[N:1]#[C:2][C:3]([C@@:4]1([H:9])[C:5]([H:10])([H:11])[O:6]1)([H:7])[H:8]>>[N:1]#[C:2][C:3]([C-:4]=[O+:6][C:5]([H:9])([H:10])[H:11])([H:7])[H:8]"
N        2.95645940       0.41311931       0.35363333
C        1.99015198      -0.16132500       0.12784108
C        0.74454751      -0.85415104      -0.17346902
C       -0.39474655      -0.46276759       0.77747184
C       -1.36851941       0.81209197      -0.05916689
O       -1.59689753      -0.57054526       0.07977258
H        0.88012423      -1.92296857       0.02415098
H        0.50406655      -0.74867387      -1.23633378
H       -0.51269070       0.99065962       0.80251026
H       -2.19039901       1.39715048       0.34589284
H       -1.01209648       1.10740995      -1.04230321
11
Frame=3 idx=005086 GeodesicLength=0.18130624634084053 rxn_smarts="[N:1]#[C:2][C:3]([C@@:4]1([H:9])[C:5]([H:10])([H:11])[O:6]1)([H:7])[H:8]>>[N:1]#[C:2][C:3]([C-:4]=[O+:6][C:5]([H:9])([H:10])[H:11])([H:7])[H:8]"
N        2.97334705       0.39589791       0.35051542
C        2.00155149      -0.16984849       0.12640481
C        0.75262504      -0.85776291      -0.17317939
C       -0.38856763      -0.44822398       0.76465817
C       -1.37923265       0.81978348      -0.05886815
O       -1.58755642      -0.56835388       0.07102320
H        0.88184993      -1.92554984       0.03433217
H        0.51692815      -0.76013974      -1.23776429
H       -0.52187590       1.00354247       0.82009647
H       -2.21331888       1.38676024       0.34682194
H       -1.03575019       1.12389472      -1.04404037
11
Frame=4 idx=005086 GeodesicLength=0.24160496254979374 rxn_smarts="[N:1]#[C:2][C:3]([C@@:4]1([H:9])[C:5]([H:10])([H:11])[O:6]1)([H:7])[H:8]>>[N:1]#[C:2][C:3]([C-:4]=[O+:6][C:5]([H:9])([H:10])[H:11])([H:7])[H:8]"
N        2.99001396       0.37888630       0.34713993
C        2.01314322      -0.17868265       0.12480312
C        0.76086942      -0.86158935      -0.17289708
C       -0.38211369      -0.43319058       0.75105231
C       -1.39001274       0.82775005      -0.05858424
O       -1.57792072      -0.56564426       0.06164998
H        0.88350513      -1.92805026       0.04520183
H        0.53008664      -0.77246897      -1.23916291
H       -0.53156056       1.01599953       0.83852552
H       -2.23608613       1.37604668       0.34785386
H       -1.05992451       1.14094351      -1.04558231
11
Frame=5 idx=005086 GeodesicLength=0.3018505295456166 rxn_smarts="[N:1]#[C:2][C:3]([C@@:4]1([H:9])[C:5]([H:10])([H:11])[O:6]1)([H:7])[H:8]>>[N:1]#[C:2][C:3]([C-:4]=[O+:6][C:5]([H:9])([H:10])[H:11])([H:7])[H:8]"
N        3.00670465       0.36189912       0.34352830
C        2.02497362      -0.18775040       0.12303762
C        0.76929543      -0.86557260      -0.17262643
C       -0.37534927      -0.41754447       0.73664915
C       -1.40092374       0.83599547      -0.05832811
O       -1.56797871      -0.56238066       0.05166935
H        0.88502201      -1.93043679       0.05679693
H        0.54358084      -0.78563827      -1.24057499
H       -0.54183027       1.02796179       0.85783677
H       -2.25876543       1.36494836       0.34898262
H       -1.08472913       1.15851846      -1.04697121
11
Frame=6 idx=005086 GeodesicLength=0.36207073057074196 rxn_smarts="[N:1]#[C:2][C:3]([C@@:4]1([H:9])[C:5]([H:10])([H:11])[O:6]1)([H:7])[H:8]>>[N:1]#[C:2][C:3]([C-:4]=[O+:6][C:5]([H:9])([H:10])[H:11])([H:7])[H:8]"
N        3.02346783       0.34491493       0.33965422
C        2.03707342      -0.19706085       0.12107878
C        0.77792029      -0.86972010      -0.17236406
C       -0.36825342      -0.40121899       0.72136755
C       -1.41198690       0.84455381      -0.05809396
O       -1.55771868      -0.55853783       0.04103143
H        0.88639657      -1.93267992       0.06919112
H        0.55744694      -0.79973618      -1.24198402
H       -0.55275514       1.03934826       0.87808835
H       -2.28138839       1.35346129       0.35021268
H       -1.11020251       1.17667557      -1.04818208
11
Frame=7 idx=005086 GeodesicLength=0.42225594531849636 rxn_smarts="[N:1]#[C:2][C:3]([C@@:4]1([H:9])[C:5]([H:10])([H:11])[O:6]1)([H:7])[H:8]>>[N:1]#[C:2][C:3]([C-:4]=[O+:6][C:5]([H:9])([H:10])[H:11])([H:7])[H:8]"
N        3.04028190       0.32789801       0.33550065
C        2.04942994      -0.20662493       0.11891622
C        0.78673528      -0.87399664      -0.17209580
C       -0.36076432      -0.38413177       0.70512534
C       -1.42319700       0.85342602      -0.05789962
O       -1.54708335      -0.55403953       0.02969751
H        0.88757797      -1.93468847       0.08245714
H        0.57167010      -0.81477099      -1.24335155
H       -0.56434219       1.04999070       0.89933578
H       -2.30389870       1.34154077       0.35152551
H       -1.13640965       1.19539682      -1.04921118
11
Frame=8 idx=005086 GeodesicLength=0.48220744264136045 rxn_smarts="[N:1]#[C:2][C:3]([C@@:4]1([H:9])[C:5]([H:10])([H:11])[O:6]1)([H:7])[H:8]>>[N:1]#[C:2][C:3]([C-:4]=[O+:6][C:5]([H:9])([H:10])[H:11])([H:7])[H:8]"
N        3.05711857       0.31100092       0.33100447
C        2.06208360      -0.21650761       0.11653511
C        0.79574276      -0.87845006      -0.17180766
C       -0.35286761      -0.36620714       0.68780145
C       -1.43454216       0.86265646      -0.05770139
O       -1.53607414      -0.54881558       0.01755462
H        0.88853583      -1.93644424       0.09670308
H        0.58627205      -0.83092932      -1.24464039
H       -0.57664941       1.05970965       0.92155691
H       -2.32628949       1.32917840       0.35293132
H       -1.16332999       1.21480853      -1.04993753
11
Frame=9 idx=005086 GeodesicLength=0.5422857833482666 rxn_smarts="[N:1]#[C:2][C:3]([C@@:4]1([H:9])[C:5]([H:10])([H:11])[O:6]1)([H:7])[H:8]>>[N:1]#[C:2][C:3]([C-:4]=[O+:6][C:5]([H:9])([H:10])[H:11])([H:7])[H:8]"
N        3.07411471       0.29406022       0.32609865
C        2.07504898      -0.22666113       0.11390795
C        0.80495832      -0.88303085      -0.17148116
C       -0.34451995      -0.34737237       0.66928235
C       -1.44607252       0.87227513      -0.05755650
O       -1.52464418      -0.54286672       0.00453433
H        0.88922914      -1.93781672       0.11204386
H        0.60127535      -0.84824045      -1.24579739
H       -0.58976086       1.06837519       0.94496782
H       -2.34858940       1.31636411       0.35444420
H       -1.19103960       1.23491360      -1.05044411
11
Frame=10 idx=005086 GeodesicLength=0.602134313938415 rxn_smarts="[N:1]#[C:2][C:3]([C@@:4]1([H:9])[C:5]([H:10])([H:11])[O:6]1)([H:7])[H:8]>>[N:1]#[C:2][C:3]([C-:4]=[O+:6][C:5]([H:9])([H:10])[H:11])([H:7])[H:8]"
N        3.09125727       0.27711453       0.32076176
C        2.08836119      -0.23716083       0.11102868
C        0.81437495      -0.88773011      -0.17109409
C       -0.33563231      -0.32743322       0.64941341
C       -1.45777867       0.88231335      -0.05741665
O       -1.51273802      -0.53605242      -0.00944994
H        0.88959872      -1.93871838       0.12861364
H        0.61667297      -0.86685240      -1.24677274
H       -0.60371678       1.07570122       0.96944622
H       -2.37078194       1.30298487       0.35605403
H       -1.21961737       1.25583339      -1.05058431
11
Frame=11 idx=005086 GeodesicLength=0.66203268979935 rxn_smarts="[N:1]#[C:2][C:3]([C@@:4]1([H:9])[C:5]([H:10])([H:11])[O:6]1)([H:7])[H:8]>>[N:1]#[C:2][C:3]([C-:4]=[O+:6][C:5]([H:9])([H:10])[H:11])([H:7])[H:8]"
N        3.10872674       0.25999722       0.31492815
C        2.10208052      -0.24796128       0.10785858
C        0.82402172      -0.89250689      -0.17062361
C       -0.32615579      -0.30624759       0.62803308
C       -1.46973226       0.89282347      -0.05730667
O       -1.50031079      -0.52830385      -0.02452749
H        0.88958222      -1.93900618       0.14658345
H        0.63251839      -0.88687879      -1.24750944
H       -0.61860300       1.08146920       0.99515339
H       -2.39293817       1.28900071       0.35779914
H       -1.24918956       1.27761399      -1.05038858
11
Frame=12 idx=005086 GeodesicLength=0.7218385620627658 rxn_smarts="[N:1]#[C:2][C:3]([C@@:4]1([H:9])[C:5]([H:10])([H:11])[O:6]1)([H:7])[H:8]>>[N:1]#[C:2][C:3]([C-:4]=[O+:6][C:5]([H:9])([H:10])[H:11])([H:7])[H:8]"
N        3.12660273       0.24245488       0.30850214
C        2.11616478      -0.25903996       0.10437008
C        0.83389323      -0.89726204      -0.17000902
C       -0.31597221      -0.28360075       0.60487695
C       -1.48197421       0.90382609      -0.05722076
O       -1.48721857      -0.51951871      -0.04086265
H        0.88913698      -1.93838744       0.16622837
H        0.64879656      -0.90842011      -1.24785506
H       -0.63448409       1.08527463       1.02202337
H       -2.41501782       1.27424740       0.35967670
H       -1.27992739       1.30042601      -1.04973011
11
Frame=13 idx=005086 GeodesicLength=0.7817486913355871 rxn_smarts="[N:1]#[C:2][C:3]([C@@:4]1([H:9])[C:5]([H:10])([H:11])[O:6]1)([H:7])[H:8]>>[N:1]#[C:2][C:3]([C-:4]=[O+:6][C:5]([H:9])([H:10])[H:11])([H:7])[H:8]"
N        3.14519124       0.22442048       0.30147435
C        2.13081531      -0.27042053       0.10054088
C        0.84402988      -0.90198747      -0.16923724
C       -0.30504120      -0.25922278       0.57969030
C       -1.49462166       0.91540438      -0.05712947
O       -1.47349941      -0.50959824      -0.05862991
H        0.88811756      -1.93673420       0.18773310
H        0.66562302      -0.93174473      -1.24777394
H       -0.65142204       1.08685018       1.05009783
H       -2.43717852       1.25866342       0.36180606
H       -1.31201417       1.32436950      -1.04857196
11
Frame=14 idx=005086 GeodesicLength=0.8416675939757836 rxn_smarts="[N:1]#[C:2][C:3]([C@@:4]1([H:9])[C:5]([H:10])([H:11])[O:6]1)([H:7])[H:8]>>[N:1]#[C:2][C:3]([C-:4]=[O+:6][C:5]([H:9])([H:10])[H:11])([H:7])[H:8]"
N        3.16432649       0.20576812       0.29387259
C        2.14597346      -0.28215755       0.09626971
C        0.85440042      -0.90657973      -0.16824542
C       -0.29315923      -0.23280618       0.55203488
C       -1.50765475       0.92760549      -0.05702030
O       -1.45891371      -0.49827889      -0.07814047
H        0.88638855      -1.93363205       0.21150051
H        0.68292141      -0.95707859      -1.24705134
H       -0.66927793       1.08557151       1.07927256
H       -2.45926427       1.24197222       0.36429217
H       -1.34574044       1.34961565      -1.04678489
11
Frame=15 idx=005086 GeodesicLength=0.9014061978473443 rxn_smarts="[N:1]#[C:2][C:3]([C@@:4]1([H:9])[C:5]([H:10])([H:11])[O:6]1)([H:7])[H:8]>>[N:1]#[C:2][C:3]([C-:4]=[O+:6][C:5]([H:9])([H:10])[H:11])([H:7])[H:8]"
N        3.18418038       0.18621969       0.28550055
C        2.16165096      -0.29431115       0.09173850
C        0.86498240      -0.91086853      -0.16689323
C       -0.28020897      -0.20403173       0.52150497
C       -1.52119804       0.94040352      -0.05688684
O       -1.44335826      -0.48539207      -0.09960004
H        0.88379743      -1.92864749       0.23777087
H        0.70072884      -0.98445278      -1.24537375
H       -0.68792803       1.08075530       1.10921925
H       -2.48121371       1.22403407       0.36717887
H       -1.38143300       1.37629119      -1.04415917
11
Frame=16 idx=005086 GeodesicLength=0.9612127769302439 rxn_smarts="[N:1]#[C:2][C:3]([C@@:4]1([H:9])[C:5]([H:10])([H:11])[O:6]1)([H:7])[H:8]>>[N:1]#[C:2][C:3]([C-:4]=[O+:6][C:5]([H:9])([H:10])[H:11])([H:7])[H:8]"
N        3.20498993       0.16571076       0.27644766
C        2.17803959      -0.30693202       0.08686519
C        0.87577761      -0.91480056      -0.16512796
C       -0.26607579      -0.17243912       0.48744735
C       -1.53538336       0.95391783      -0.05665726
O       -1.42676835      -0.47071020      -0.12353950
H        0.88003180      -1.92134636       0.26704977
H        0.71914375      -1.01443429      -1.24255584
H       -0.70715332       1.07177133       1.13978061
H       -2.50311158       1.20454999       0.37080316
H       -1.41949028       1.40471264      -1.04051318
