11
Frame=0 idx=005936 GeodesicLength=0.0 rxn_smarts="[N:1]([C@@:2]1([H:9])[C:3]([H:10])([H:11])[O:4][C:5]1=[O:6])([H:7])[H:8]>>[N:1]([O:6][C:5]1=[C:2]([H:9])[C:3]([H:10])([H:11])[O:4]1)([H:7])[H:8]"
N        1.76366960       0.48377332       0.68456460
C       -0.28851648      -0.47688334      -0.77731455
C       -1.43934669      -0.79928173       0.11403299
O       -1.41528280       0.57280107       0.59397120
C       -0.34781331       0.81570950      -0.25395635
O        0.38017212       1.80242866      -0.25424948
H        2.65423554       0.62353556       1.18936129
H        2.04878330       0.49364530      -0.29468164
H        0.25367713      -0.97386914      -1.56411546
H       -2.38443141      -1.05401270      -0.37058172
H       -1.22514699      -1.48784652       0.93296908
11
Frame=1 idx=005936 GeodesicLength=0.07005107113419341 rxn_smarts="[N:1]([C@@:2]1([H:9])[C:3]([H:10])([H:11])[O:4][C:5]1=[O:6])([H:7])[H:8]>>[N:1]([O:6][C:5]1=[C:2]([H:9])[C:3]([H:10])([H:11])[O:4]1)([H:7])[H:8]"
N        1.76246384       0.44177314       0.64518513
C       -0.26366039      -0.48085906      -0.74877245
C       -1.43514661      -0.79898507       0.11944870
O       -1.43315834       0.58070566       0.58033638
C       -0.35393760       0.82213600      -0.25016707
O        0.38478480       1.80310267      -0.22685820
H        2.61489502       0.62782310       1.19528156
H        2.07656224       0.50738175      -0.32221714
H        0.25006216      -0.96317330      -1.56324949
H       -2.36770327      -1.06603399      -0.38211534
H       -1.23516185      -1.47387089       0.95312792
11
Frame=2 idx=005936 GeodesicLength=0.14003181589206415 rxn_smarts="[N:1]([C@@:2]1([H:9])[C:3]([H:10])([H:11])[O:4][C:5]1=[O:6])([H:7])[H:8]>>[N:1]([O:6][C:5]1=[C:2]([H:9])[C:3]([H:10])([H:11])[O:4]1)([H:7])[H:8]"
N        1.76116852       0.40554195       0.60520652
C       -0.24036202      -0.48336307      -0.72256497
C       -1.42975867      -0.79853899       0.12497140
O       -1.44879992       0.58806456       0.56700731
C       -0.35968665       0.82877731      -0.24779206
O        0.38901592       1.80396603      -0.20133139
H        2.57145321       0.62562754       1.20133701
H        2.10315516       0.52085470      -0.34722851
H        0.24669542      -0.95295199      -1.56062352
H       -2.35052839      -1.07793536      -0.39106319
H       -1.24235258      -1.46004268       0.97208142
11
Frame=3 idx=005936 GeodesicLength=0.21009903609048683 rxn_smarts="[N:1]([C@@:2]1([H:9])[C:3]([H:10])([H:11])[O:4][C:5]1=[O:6])([H:7])[H:8]>>[N:1]([O:6][C:5]1=[C:2]([H:9])[C:3]([H:10])([H:11])[O:4]1)([H:7])[H:8]"
N        1.75866815       0.37412771       0.56557960
C       -0.21879288      -0.48411867      -0.69939243
C       -1.42289265      -0.79782075       0.13077613
O       -1.46208518       0.59504317       0.55414049
C       -0.36541761       0.83600347      -0.24743680
O        0.39291180       1.80509375      -0.17808049
H        2.52399899       0.61726536       1.20755452
H        2.12851455       0.53349792      -0.36917604
H        0.24365514      -0.94311007      -1.55721801
H       -2.33294023      -1.08982752      -0.39681136
H       -1.24562008      -1.44615437       0.99006440
11
Frame=4 idx=005936 GeodesicLength=0.28017512805133055 rxn_smarts="[N:1]([C@@:2]1([H:9])[C:3]([H:10])([H:11])[O:4][C:5]1=[O:6])([H:7])[H:8]>>[N:1]([O:6][C:5]1=[C:2]([H:9])[C:3]([H:10])([H:11])[O:4]1)([H:7])[H:8]"
N        1.75574483       0.34709876       0.52651668
C       -0.19847764      -0.48370755      -0.67816603
C       -1.41536218      -0.79693678       0.13661171
O       -1.47395904       0.60155357       0.54163946
C       -0.37104695       0.84338171      -0.24810487
O        0.39630583       1.80631664      -0.15623234
H        2.47462321       0.60449271       1.21259543
H        2.15314614       0.54554718      -0.38853003
H        0.24128519      -0.93388426      -1.55269031
H       -2.31533842      -1.10143000      -0.40073670
H       -1.24692097      -1.43243199       1.00709698
11
Frame=5 idx=005936 GeodesicLength=0.3502909794784802 rxn_smarts="[N:1]([C@@:2]1([H:9])[C:3]([H:10])([H:11])[O:4][C:5]1=[O:6])([H:7])[H:8]>>[N:1]([O:6][C:5]1=[C:2]([H:9])[C:3]([H:10])([H:11])[O:4]1)([H:7])[H:8]"
N        1.75222092       0.32407326       0.48835373
C       -0.17925456      -0.48228196      -0.65871730
C       -1.40728882      -0.79591068       0.14248826
O       -1.48468866       0.60765043       0.52933225
C       -0.37651511       0.85086127      -0.24967600
O        0.39935209       1.80754514      -0.13551065
H        2.42399182       0.58797907       1.21615790
H        2.17710395       0.55690288      -0.40524503
H        0.23936619      -0.92516419      -1.54751899
H       -2.29778864      -1.11294430      -0.40312093
H       -1.24649919      -1.41871091       1.02345675
11
Frame=6 idx=005936 GeodesicLength=0.42083969791763054 rxn_smarts="[N:1]([C@@:2]1([H:9])[C:3]([H:10])([H:11])[O:4][C:5]1=[O:6])([H:7])[H:8]>>[N:1]([O:6][C:5]1=[C:2]([H:9])[C:3]([H:10])([H:11])[O:4]1)([H:7])[H:8]"
N        1.74828635       0.30450506       0.45102869
C       -0.16082456      -0.48009574      -0.64045485
C       -1.39889466      -0.79475474       0.14835010
O       -1.49477955       0.61350657       0.51711395
C       -0.38194345       0.85843806      -0.25171753
O        0.40170600       1.80892103      -0.11553912
H        2.37285699       0.56826747       1.21766180
H        2.20059698       0.56758801      -0.41968839
H        0.23827479      -0.91703971      -1.54146023
H       -2.28013607      -1.12424898      -0.40443627
H       -1.24514280      -1.40508704       1.03914186
11
Frame=7 idx=005936 GeodesicLength=0.49122809090084973 rxn_smarts="[N:1]([C@@:2]1([H:9])[C:3]([H:10])([H:11])[O:4][C:5]1=[O:6])([H:7])[H:8]>>[N:1]([O:6][C:5]1=[C:2]([H:9])[C:3]([H:10])([H:11])[O:4]1)([H:7])[H:8]"
N        1.74421322       0.28808720       0.41478910
C       -0.14318956      -0.47730148      -0.62303633
C       -1.39039807      -0.79344992       0.15405530
O       -1.50418422       0.61878290       0.50501988
C       -0.38728845       0.86572732      -0.25403692
O        0.40347953       1.80993345      -0.09616981
H        2.32210306       0.54664957       1.21698586
H        2.22355296       0.57750075      -0.43195224
H        0.23761817      -0.90933812      -1.53452079
H       -2.26264538      -1.13505020      -0.40523719
H       -1.24326126      -1.39154146       1.05410315
11
Frame=8 idx=005936 GeodesicLength=0.5616619178274941 rxn_smarts="[N:1]([C@@:2]1([H:9])[C:3]([H:10])([H:11])[O:4][C:5]1=[O:6])([H:7])[H:8]>>[N:1]([O:6][C:5]1=[C:2]([H:9])[C:3]([H:10])([H:11])[O:4]1)([H:7])[H:8]"
N        1.74011401       0.27450591       0.37950391
C       -0.12619366      -0.47404074      -0.60627761
C       -1.38202080      -0.79211515       0.15965118
O       -1.51361038       0.62376275       0.49253510
C       -0.39251320       0.87289157      -0.25644641
O        0.40477599       1.81086443      -0.07675799
H        2.27234908       0.52320319       1.21391795
H        2.24628376       0.58682778      -0.44229118
H        0.23748371      -0.90208362      -1.52689820
H       -2.24529650      -1.14595360      -0.40560539
H       -1.24137200      -1.37786252       1.06866864
11
Frame=9 idx=005936 GeodesicLength=0.6321448293930418 rxn_smarts="[N:1]([C@@:2]1([H:9])[C:3]([H:10])([H:11])[O:4][C:5]1=[O:6])([H:7])[H:8]>>[N:1]([O:6][C:5]1=[C:2]([H:9])[C:3]([H:10])([H:11])[O:4]1)([H:7])[H:8]"
N        1.73566883       0.26330012       0.34549071
C       -0.10987489      -0.47028715      -0.59040750
C       -1.37361186      -0.79070012       0.16515442
O       -1.52254766       0.62835400       0.48029450
C       -0.39774557       0.87998834      -0.25911853
O        0.40559067       1.81166191      -0.05780785
H        2.22326877       0.49890776       1.20879053
H        2.26875131       0.59485197      -0.45055224
H        0.23768579      -0.89513634      -1.51903541
H       -2.22816630      -1.15652315      -0.40541370
H       -1.23901909      -1.36441733       1.08260506
11
Frame=10 idx=005936 GeodesicLength=0.7028284810056542 rxn_smarts="[N:1]([C@@:2]1([H:9])[C:3]([H:10])([H:11])[O:4][C:5]1=[O:6])([H:7])[H:8]>>[N:1]([O:6][C:5]1=[C:2]([H:9])[C:3]([H:10])([H:11])[O:4]1)([H:7])[H:8]"
N        1.73104676       0.25430142       0.31248787
C       -0.09409207      -0.46612081      -0.57502470
C       -1.36531409      -0.78922195       0.17055872
O       -1.53159515       0.63264747       0.46756610
C       -0.40289396       0.88696279      -0.26180101
O        0.40588047       1.81225285      -0.03859209
H        2.17555910       0.47364570       1.20132459
H        2.29089990       0.60188422      -0.45713509
H        0.23828866      -0.88839229      -1.51069210
H       -2.21100680      -1.16714895      -0.40494116
H       -1.23677282      -1.35081045       1.09624888
11
Frame=11 idx=005936 GeodesicLength=0.7735059248669581 rxn_smarts="[N:1]([C@@:2]1([H:9])[C:3]([H:10])([H:11])[O:4][C:5]1=[O:6])([H:7])[H:8]>>[N:1]([O:6][C:5]1=[C:2]([H:9])[C:3]([H:10])([H:11])[O:4]1)([H:7])[H:8]"
N        1.72631299       0.24725277       0.28054961
C       -0.07886553      -0.46161964      -0.56014706
C       -1.35717344      -0.78770106       0.17581494
O       -1.54064155       0.63657904       0.45456799
C       -0.40801680       0.89378063      -0.26446654
O        0.40568290       1.81256826      -0.01914052
H        2.12940458       0.44814561       1.19170966
H        2.31280256       0.60769650      -0.46205177
H        0.23911952      -0.88185912      -1.50204711
H       -2.19400246      -1.17770397      -0.40425563
H       -1.23462277      -1.33713902       1.10946644
11
Frame=12 idx=005936 GeodesicLength=0.8442698064651611 rxn_smarts="[N:1]([C@@:2]1([H:9])[C:3]([H:10])([H:11])[O:4][C:5]1=[O:6])([H:7])[H:8]>>[N:1]([O:6][C:5]1=[C:2]([H:9])[C:3]([H:10])([H:11])[O:4]1)([H:7])[H:8]"
N        1.72135794       0.24194627       0.24969568
C       -0.06415497      -0.45678875      -0.54578537
C       -1.34917270      -0.78614346       0.18094235
O       -1.54965340       0.64016115       0.44139460
C       -0.41313577       0.90049806      -0.26711799
O        0.40498672       1.81263425       0.00051851
H        2.08483441       0.42276614       1.18010510
H        2.33443884       0.61202518      -0.46541757
H        0.24017025      -0.87544270      -1.49324513
H       -2.17711699      -1.18815282      -0.40335066
H       -1.23255432      -1.32350331       1.12226048
11
Frame=13 idx=005936 GeodesicLength=0.9150888468143874 rxn_smarts="[N:1]([C@@:2]1([H:9])[C:3]([H:10])([H:11])[O:4][C:5]1=[O:6])([H:7])[H:8]>>[N:1]([O:6][C:5]1=[C:2]([H:9])[C:3]([H:10])([H:11])[O:4]1)([H:7])[H:8]"
N        1.71614436       0.23822123       0.21993635
C       -0.04995871      -0.45165764      -0.53193719
C       -1.34132984      -0.78457628       0.18591904
O       -1.55857628       0.64336796       0.42812032
C       -0.41823412       0.90712297      -0.26971065
O        0.40386012       1.81244362       0.02042801
H        2.04195985       0.39799724       1.16667642
H        2.35578016       0.61463650      -0.46734575
H        0.24133886      -0.86908734      -1.48439580
H       -2.16038809      -1.19849925      -0.40227097
H       -1.23059631      -1.30996902       1.13458022
11
Frame=14 idx=005936 GeodesicLength=0.9859562571546518 rxn_smarts="[N:1]([C@@:2]1([H:9])[C:3]([H:10])([H:11])[O:4][C:5]1=[O:6])([H:7])[H:8]>>[N:1]([O:6][C:5]1=[C:2]([H:9])[C:3]([H:10])([H:11])[O:4]1)([H:7])[H:8]"
N        1.71070177       0.23592607       0.19117365
C       -0.03624110      -0.44622444      -0.51850111
C       -1.33361260      -0.78295871       0.19072609
O       -1.56751446       0.64616449       0.41459087
C       -0.42337747       0.91359555      -0.27220404
O        0.40217865       1.81183584       0.04067543
H        2.00102137       0.37393179       1.15151854
H        2.37672360       0.61550806      -0.46793540
H        0.24259037      -0.86268821      -1.47542389
H       -2.14372809      -1.20869047      -0.40108276
H       -1.22874203      -1.29639996       1.14646261
11
Frame=15 idx=005936 GeodesicLength=1.0568147728001 rxn_smarts="[N:1]([C@@:2]1([H:9])[C:3]([H:10])([H:11])[O:4][C:5]1=[O:6])([H:7])[H:8]>>[N:1]([O:6][C:5]1=[C:2]([H:9])[C:3]([H:10])([H:11])[O:4]1)([H:7])[H:8]"
N        1.70494521       0.23495645       0.16352396
C       -0.02298346      -0.44053594      -0.50557561
C       -1.32607597      -0.78139194       0.19535305
O       -1.57619576       0.64854480       0.40141026
C       -0.42855826       0.92001143      -0.27458646
O        0.40008530       1.81104365       0.06087454
H        1.96187730       0.35131803       1.13499674
H        2.39732819       0.61418540      -0.46732535
H        0.24394746      -0.85625479      -1.46656954
H       -2.12734396      -1.21856866      -0.39983306
H       -1.22702605      -1.28330842       1.15773148
11
Frame=16 idx=005936 GeodesicLength=1.1276383631503681 rxn_smarts="[N:1]([C@@:2]1([H:9])[C:3]([H:10])([H:11])[O:4][C:5]1=[O:6])([H:7])[H:8]>>[N:1]([O:6][C:5]1=[C:2]([H:9])[C:3]([H:10])([H:11])[O:4]1)([H:7])[H:8]"
N        1.69882842       0.23524511       0.13699616
C       -0.01018740      -0.43457483      -0.49311359
C       -1.31866035      -0.77985824       0.19974818
O       -1.58449867       0.65042366       0.38870816
C       -0.43381568       0.92628520      -0.27681682
O        0.39757396       1.80996669       0.08088667
H        1.92456947       0.33052498       1.11732741
H        2.41744741       0.61040406      -0.46558744
H        0.24528863      -0.84967684      -1.45779084
H       -2.11123327      -1.22800428      -0.39860288
H       -1.22531253      -1.27073550       1.16824498
