15
Frame=0 idx=009279 GeodesicLength=0.0 rxn_smarts="[C:1]([C:2]([C:3]([H:12])([H:13])[H:14])([C:4](=[O:5])[C:6]#[C:7][H:15])[H:11])([H:8])([H:9])[H:10]>>[C-:1]([O+:5]=[C:4]([C:2]([C:3]([H:12])([H:13])[H:14])([H:9])[H:11])[C:6]#[C:7][H:15])([H:8])[H:10]"
C       -2.17558548       0.97220721      -1.72704820
C       -0.08895774      -0.52870876      -0.45092198
C       -0.74875790      -1.13597507       0.78407540
C        0.76427268       0.66618666      -0.11570553
O        0.49589359       1.79514865      -0.44264892
C        1.96345345       0.37961295       0.66882082
C        2.94232584       0.12159497       1.30910210
H       -2.33603320       1.50381674      -0.76819078
H       -0.86603316      -0.22901998      -1.18428351
H       -1.54318281       1.69366689      -2.27892435
H        0.53547039      -1.27462581      -0.95166324
H       -1.38097237      -0.40338560       1.28804420
H       -1.37643127      -1.97790185       0.49418446
H       -0.00256217      -1.49261045       1.49586905
H        3.81710021      -0.09000658       1.87929048
15
Frame=1 idx=009279 GeodesicLength=0.14177398197821367 rxn_smarts="[C:1]([C:2]([C:3]([H:12])([H:13])[H:14])([C:4](=[O:5])[C:6]#[C:7][H:15])[H:11])([H:8])([H:9])[H:10]>>[C-:1]([O+:5]=[C:4]([C:2]([C:3]([H:12])([H:13])[H:14])([H:9])[H:11])[C:6]#[C:7][H:15])([H:8])[H:10]"
C       -2.09076575       0.99070591      -1.69248642
C       -0.09743300      -0.54098950      -0.45392276
C       -0.76599012      -1.13808629       0.78187686
C        0.75096254       0.65698219      -0.11991297
O        0.46798067       1.78175006      -0.45972677
C        1.95046206       0.39025687       0.66666375
C        2.94352808       0.14323689       1.28956826
H       -2.31337947       1.47813201      -0.72573245
H       -0.87398909      -0.28440488      -1.22738318
H       -1.51549868       1.74139767      -2.26226718
H        0.54054581      -1.29032262      -0.93269050
H       -1.39929399      -0.40192274       1.27923565
H       -1.39327502      -1.98138323       0.49492766
H       -0.02432643      -1.48939311       1.50102643
H        3.82047239      -0.05595922       1.86082361
15
Frame=2 idx=009279 GeodesicLength=0.2834685284955938 rxn_smarts="[C:1]([C:2]([C:3]([H:12])([H:13])[H:14])([C:4](=[O:5])[C:6]#[C:7][H:15])[H:11])([H:8])([H:9])[H:10]>>[C-:1]([O+:5]=[C:4]([C:2]([C:3]([H:12])([H:13])[H:14])([H:9])[H:11])[C:6]#[C:7][H:15])([H:8])[H:10]"
C       -2.00764408       1.00582576      -1.66038437
C       -0.10652989      -0.54896721      -0.45620047
C       -0.78208842      -1.13870081       0.78000488
C        0.73883717       0.65038236      -0.12111012
O        0.44122753       1.77207915      -0.46925978
C        1.94028439       0.39980110       0.66337106
C        2.94589985       0.16171830       1.26981787
H       -2.29440188       1.44767057      -0.69155273
H       -0.88402621      -0.33230792      -1.26459377
H       -1.48882560       1.77970736      -2.24824908
H        0.54286049      -1.30057940      -0.91633931
H       -1.41617562      -0.39990624       1.27249189
H       -1.40936507      -1.98271065       0.49488534
H       -0.04419382      -1.48629280       1.50479771
H        3.82414116      -0.02771957       1.84232090
15
Frame=3 idx=009279 GeodesicLength=0.42513588158914256 rxn_smarts="[C:1]([C:2]([C:3]([H:12])([H:13])[H:14])([C:4](=[O:5])[C:6]#[C:7][H:15])[H:11])([H:8])([H:9])[H:10]>>[C-:1]([O+:5]=[C:4]([C:2]([C:3]([H:12])([H:13])[H:14])([H:9])[H:11])[C:6]#[C:7][H:15])([H:8])[H:10]"
C       -1.92689229       1.01830088      -1.63014573
C       -0.11595936      -0.55339756      -0.45772256
C       -0.79754131      -1.13818218       0.77831298
C        0.72769191       0.64595961      -0.11919028
O        0.41550499       1.76561233      -0.47189094
C        1.93228685       0.40833408       0.66003945
C        2.94920131       0.17754103       1.25069704
H       -2.27830004       1.41346369      -0.66519329
H       -0.89590537      -0.37318104      -1.29691717
H       -1.46251890       1.80903207      -2.23652329
H        0.54308116      -1.30637640      -0.90222176
H       -1.43240895      -0.39754421       1.26711652
H       -1.42497592      -1.98238661       0.49380658
H       -0.06303518      -1.48341714       1.50761993
H        3.82977108      -0.00375856       1.82221253
15
Frame=4 idx=009279 GeodesicLength=0.5668090556163121 rxn_smarts="[C:1]([C:2]([C:3]([H:12])([H:13])[H:14])([C:4](=[O:5])[C:6]#[C:7][H:15])[H:11])([H:8])([H:9])[H:10]>>[C-:1]([O+:5]=[C:4]([C:2]([C:3]([H:12])([H:13])[H:14])([H:9])[H:11])[C:6]#[C:7][H:15])([H:8])[H:10]"
C       -1.84911704       1.02861929      -1.60108868
C       -0.12548680      -0.55494666      -0.45853338
C       -0.81257273      -1.13681070       0.77668422
C        0.71738815       0.64329671      -0.11435031
O        0.39072896       1.76175906      -0.46854770
C        1.92604612       0.41595552       0.65714910
C        2.95361272       0.19122073       1.23190887
H       -2.26423386       1.37654463      -0.64588666
H       -0.90944067      -0.40751043      -1.32524079
H       -1.43618164       1.82995069      -2.22660025
H        0.54170028      -1.30856703      -0.89005888
H       -1.44834367      -0.39497432       1.26262343
H       -1.44022553      -1.98077133       0.49160911
H       -0.08129745      -1.48083087       1.50974230
H        3.83742316       0.01706470       1.80058963
15
Frame=5 idx=009279 GeodesicLength=0.7085010211607283 rxn_smarts="[C:1]([C:2]([C:3]([H:12])([H:13])[H:14])([C:4](=[O:5])[C:6]#[C:7][H:15])[H:11])([H:8])([H:9])[H:10]>>[C-:1]([O+:5]=[C:4]([C:2]([C:3]([H:12])([H:13])[H:14])([H:9])[H:11])[C:6]#[C:7][H:15])([H:8])[H:10]"
C       -1.77491459       1.03714982      -1.57245901
C       -0.13495798      -0.55424238      -0.45887347
C       -0.82708428      -1.13476463       0.77500521
C        0.70794102       0.64188321      -0.10727890
O        0.36698462       1.75979186      -0.46058461
C        1.92149484       0.42258864       0.65428371
C        2.95897197       0.20313117       1.21346931
H       -2.25133875       1.33799021      -0.63246593
H       -0.92469527      -0.43579525      -1.35034191
H       -1.40984927       1.84321097      -2.21791491
H        0.53892262      -1.30797715      -0.87990656
H       -1.46375593      -0.39219926       1.25875747
H       -1.45508872      -1.97802872       0.48841512
H       -0.09888254      -1.47857115       1.51114937
H        3.84625227       0.03583266       1.77874509
15
Frame=6 idx=009279 GeodesicLength=0.850238504780513 rxn_smarts="[C:1]([C:2]([C:3]([H:12])([H:13])[H:14])([C:4](=[O:5])[C:6]#[C:7][H:15])[H:11])([H:8])([H:9])[H:10]>>[C-:1]([O+:5]=[C:4]([C:2]([C:3]([H:12])([H:13])[H:14])([H:9])[H:11])[C:6]#[C:7][H:15])([H:8])[H:10]"
C       -1.70418206       1.04403361      -1.54414644
C       -0.14418343      -0.55178324      -0.45853264
C       -0.84153484      -1.13234547       0.77324774
C        0.69904963       0.64153771      -0.09770838
O        0.34403403       1.75936852      -0.44848576
C        1.91792066       0.42863455       0.65251062
C        2.96530697       0.21398806       1.19524071
H       -2.23907050       1.29855085      -0.62447959
H       -0.94115861      -0.45861316      -1.37289851
H       -1.38291762       1.84956144      -2.21015581
H        0.53537043      -1.30516884      -0.87105836
H       -1.47940583      -0.38947402       1.25508646
H       -1.46979407      -1.97460981       0.48405376
H       -0.11658212      -1.47670372       1.51225187
H        3.85714737       0.05302351       1.75507432
15
Frame=7 idx=009279 GeodesicLength=0.9920442397593686 rxn_smarts="[C:1]([C:2]([C:3]([H:12])([H:13])[H:14])([C:4](=[O:5])[C:6]#[C:7][H:15])[H:11])([H:8])([H:9])[H:10]>>[C-:1]([O+:5]=[C:4]([C:2]([C:3]([H:12])([H:13])[H:14])([H:9])[H:11])[C:6]#[C:7][H:15])([H:8])[H:10]"
C       -1.63694649       1.04939120      -1.51587843
C       -0.15304709      -0.54803547      -0.45754291
C       -0.85602781      -1.12972627       0.77136208
C        0.69061798       0.64195338      -0.08591623
O        0.32185646       1.76000385      -0.43317086
C        1.91505856       0.43422968       0.65192006
C        2.97245959       0.22426266       1.17720288
H       -2.22685618       1.25897724      -0.62109110
H       -0.95862950      -0.47650858      -1.39348685
H       -1.35529387       1.84981001      -2.20286633
H        0.53133121      -1.30070454      -0.86323450
H       -1.49541636      -0.38687700       1.25137552
H       -1.48441552      -1.97072911       0.47855669
H       -0.13460113      -1.47524576       1.51316355
H        3.86991014       0.06919872       1.72960644
15
Frame=8 idx=009279 GeodesicLength=1.1337535032473873 rxn_smarts="[C:1]([C:2]([C:3]([H:12])([H:13])[H:14])([C:4](=[O:5])[C:6]#[C:7][H:15])[H:11])([H:8])([H:9])[H:10]>>[C-:1]([O+:5]=[C:4]([C:2]([C:3]([H:12])([H:13])[H:14])([H:9])[H:11])[C:6]#[C:7][H:15])([H:8])[H:10]"
C       -1.57266319       1.05346514      -1.48800622
C       -0.16137881      -0.54344403      -0.45552143
C       -0.87126363      -1.12729942       0.76946006
C        0.68227343       0.64297066      -0.07122109
O        0.30001540       1.76158713      -0.41452456
C        1.91213370       0.43954564       0.65410142
C        2.98073770       0.23444297       1.15873885
H       -2.21455710       1.21988296      -0.62235388
H       -0.97628530      -0.49001504      -1.41276522
H       -1.32615390       1.84491870      -2.19586805
H        0.52753142      -1.29512859      -0.85548256
H       -1.51296006      -0.38471810       1.24730089
H       -1.49933013      -1.96693480       0.47172013
H       -0.15408223      -1.47448349       1.51458387
H        3.88598268       0.08521026       1.69983781
15
Frame=9 idx=009279 GeodesicLength=1.275850711576631 rxn_smarts="[C:1]([C:2]([C:3]([H:12])([H:13])[H:14])([C:4](=[O:5])[C:6]#[C:7][H:15])[H:11])([H:8])([H:9])[H:10]>>[C-:1]([O+:5]=[C:4]([C:2]([C:3]([H:12])([H:13])[H:14])([H:9])[H:11])[C:6]#[C:7][H:15])([H:8])[H:10]"
C       -1.51294932       1.05579140      -1.45882669
C       -0.16931386      -0.53821808      -0.45402817
C       -0.88496887      -1.12426059       0.76712406
C        0.67508660       0.64399487      -0.05735757
O        0.27990029       1.76278537      -0.39658478
C        1.91120709       0.44441811       0.65334809
C        2.98874436       0.24456249       1.14126879
H       -2.20079970       1.18172460      -0.62449626
H       -0.99622788      -0.49951672      -1.43064188
H       -1.29882872       1.83531016      -2.18814779
H        0.52257015      -1.28873760      -0.85013588
H       -1.52813916      -0.38200480       1.24340377
H       -1.51336478      -1.96202066       0.46466371
H       -0.17143343      -1.47343020       1.51461280
H        3.89851723       0.09960165       1.67579779
15
Frame=10 idx=009279 GeodesicLength=1.417826294073866 rxn_smarts="[C:1]([C:2]([C:3]([H:12])([H:13])[H:14])([C:4](=[O:5])[C:6]#[C:7][H:15])[H:11])([H:8])([H:9])[H:10]>>[C-:1]([O+:5]=[C:4]([C:2]([C:3]([H:12])([H:13])[H:14])([H:9])[H:11])[C:6]#[C:7][H:15])([H:8])[H:10]"
C       -1.45585163       1.05688120      -1.43001711
C       -0.17663750      -0.53282501      -0.45159757
C       -0.89955542      -1.12163090       0.76469422
C        0.66792906       0.64506980      -0.04111030
O        0.26033942       1.76419345      -0.37686819
C        1.90993493       0.44894523       0.65531984
C        2.99740172       0.25486008       1.12367725
H       -2.18619240       1.14513592      -0.62970994
H       -1.01612635      -0.50549975      -1.44795461
H       -1.27018561       1.82206107      -2.17996813
H        0.51809924      -1.28206256      -0.84449452
H       -1.54486959      -0.37976935       1.23891230
H       -1.52790739      -1.95737196       0.45634012
H       -0.19048811      -1.47319001       1.51519452
H        3.91410963       0.11520279       1.64758212
15
Frame=11 idx=009279 GeodesicLength=1.5598562118334096 rxn_smarts="[C:1]([C:2]([C:3]([H:12])([H:13])[H:14])([C:4](=[O:5])[C:6]#[C:7][H:15])[H:11])([H:8])([H:9])[H:10]>>[C-:1]([O+:5]=[C:4]([C:2]([C:3]([H:12])([H:13])[H:14])([H:9])[H:11])[C:6]#[C:7][H:15])([H:8])[H:10]"
C       -1.40170972       1.05649478      -1.40117856
C       -0.18330779      -0.52739465      -0.44869538
C       -0.91424757      -1.11913521       0.76206587
C        0.66108064       0.64605402      -0.02374004
O        0.24162043       1.76536467      -0.35686956
C        1.90888746       0.45332852       0.65823713
C        3.00620942       0.26575014       1.10638535
H       -2.17037432       1.11025571      -0.63650072
H       -1.03648342      -0.50833225      -1.46479479
H       -1.24144571       1.80568489      -2.17101324
H        0.51388145      -1.27524291      -0.83908848
H       -1.56192284      -0.37767760       1.23393115
H       -1.54244884      -1.95264784       0.44717260
H       -0.21007850      -1.47330525       1.51582720
H        3.93033931       0.13080299       1.61826147
15
Frame=12 idx=009279 GeodesicLength=1.7019227673951567 rxn_smarts="[C:1]([C:2]([C:3]([H:12])([H:13])[H:14])([C:4](=[O:5])[C:6]#[C:7][H:15])[H:11])([H:8])([H:9])[H:10]>>[C-:1]([O+:5]=[C:4]([C:2]([C:3]([H:12])([H:13])[H:14])([H:9])[H:11])[C:6]#[C:7][H:15])([H:8])[H:10]"
C       -1.35028458       1.05460267      -1.37244706
C       -0.18927183      -0.52210860      -0.44532866
C       -0.92905087      -1.11680499       0.75924421
C        0.65450613       0.64685179      -0.00540986
O        0.22371643       1.76615196      -0.33700698
C        1.90796936       0.45765788       0.66211052
C        3.01500239       0.27740795       1.08950225
H       -2.15327541       1.07723973      -0.64433159
H       -1.05715400      -0.50834523      -1.48138686
H       -1.21276752       1.78679218      -2.16117207
H        0.51007098      -1.26849315      -0.83371804
H       -1.57929029      -0.37570725       1.22839849
H       -1.55698670      -1.94789050       0.43722212
H       -0.23024628      -1.47373909       1.51657215
H        3.94706218       0.14638464       1.58775137
15
Frame=13 idx=009279 GeodesicLength=1.8440258830825067 rxn_smarts="[C:1]([C:2]([C:3]([H:12])([H:13])[H:14])([C:4](=[O:5])[C:6]#[C:7][H:15])[H:11])([H:8])([H:9])[H:10]>>[C-:1]([O+:5]=[C:4]([C:2]([C:3]([H:12])([H:13])[H:14])([H:9])[H:11])[C:6]#[C:7][H:15])([H:8])[H:10]"
C       -1.30139877       1.05120805      -1.34391497
C       -0.19451502      -0.51712537      -0.44158879
C       -0.94386111      -1.11464143       0.75623669
C        0.64825371       0.64734817       0.01353875
O        0.20666599       1.76642312      -0.31774108
C        1.90725049       0.46192049       0.66659275
C        3.02367978       0.28986057       1.07304562
H       -2.13490053       1.04622699      -0.65260010
H       -1.07818265      -0.50579939      -1.49787853
H       -1.18440898       1.76591201      -2.15032806
H        0.50668965      -1.26202313      -0.82838302
H       -1.59675551      -0.37379007       1.22234959
H       -1.57148554      -1.94308345       0.42662542
H       -0.25083513      -1.47446212       1.51738544
H        3.96380361       0.16202557       1.55666029
15
Frame=14 idx=009279 GeodesicLength=1.9861472082983198 rxn_smarts="[C:1]([C:2]([C:3]([H:12])([H:13])[H:14])([C:4](=[O:5])[C:6]#[C:7][H:15])[H:11])([H:8])([H:9])[H:10]>>[C-:1]([O+:5]=[C:4]([C:2]([C:3]([H:12])([H:13])[H:14])([H:9])[H:11])[C:6]#[C:7][H:15])([H:8])[H:10]"
C       -1.25478296       1.04630606      -1.31572597
C       -0.19902002      -0.51257523      -0.43746961
C       -0.95870738      -1.11266942       0.75304662
C        0.64229972       0.64746599       0.03300918
O        0.19045487       1.76608562      -0.29927842
C        1.90665023       0.46612976       0.67173529
C        3.03209012       0.30309877       1.05720298
H       -2.11527321       1.01725555      -0.66092293
H       -1.09948521      -0.50090630      -1.51440572
H       -1.15644085       1.74352350      -2.13849061
H        0.50382364      -1.25599125      -0.82292140
H       -1.61431724      -0.37190505       1.21575204
H       -1.58598192      -1.93824166       0.41541276
H       -0.27190967      -1.47547410       1.51830119
H        3.98059988       0.17789775       1.52475460
15
Frame=15 idx=009279 GeodesicLength=2.1282803724580086 rxn_smarts="[C:1]([C:2]([C:3]([H:12])([H:13])[H:14])([C:4](=[O:5])[C:6]#[C:7][H:15])[H:11])([H:8])([H:9])[H:10]>>[C-:1]([O+:5]=[C:4]([C:2]([C:3]([H:12])([H:13])[H:14])([H:9])[H:11])[C:6]#[C:7][H:15])([H:8])[H:10]"
C       -1.21025203       1.03991992      -1.28797599
C       -0.20279633      -0.50856757      -0.43304794
C       -0.97350416      -1.11088622       0.74968440
C        0.63669386       0.64712222       0.05272673
O        0.17511753       1.76506123      -0.28190421
C        1.90623310       0.47023770       0.67725597
C        3.04016217       0.31702938       1.04205148
H       -2.09447958       0.99035402      -0.66885771
H       -1.12116087      -0.49380586      -1.53103780
H       -1.12904974       1.72002336      -2.12566650
H        0.50145553      -1.25054874      -0.81736045
H       -1.63177771      -0.36999110       1.20866896
H       -1.60046291      -1.93333298       0.40369396
H       -0.29333132      -1.47677363       1.51926542
H        3.99715245       0.19415827       1.49250368
15
Frame=16 idx=009279 GeodesicLength=2.270420036446622 rxn_smarts="[C:1]([C:2]([C:3]([H:12])([H:13])[H:14])([C:4](=[O:5])[C:6]#[C:7][H:15])[H:11])([H:8])([H:9])[H:10]>>[C-:1]([O+:5]=[C:4]([C:2]([C:3]([H:12])([H:13])[H:14])([H:9])[H:11])[C:6]#[C:7][H:15])([H:8])[H:10]"
C       -1.16763498       1.03203850      -1.26079776
C       -0.20580854      -0.50514189      -0.42834127
C       -0.98815141      -1.10927395       0.74617551
C        0.63141868       0.64637105       0.07253339
O        0.16055830       1.76336568      -0.26580518
C        1.90596594       0.47442026       0.68307468
C        3.04781706       0.33187655       1.02770532
H       -2.07267345       0.96540521      -0.67613574
H       -1.14321065      -0.48462007      -1.54781825
H       -1.10240245       1.69570058      -2.11196080
H        0.49968958      -1.24572424      -0.81162387
H       -1.64901437      -0.36802064       1.20113025
H       -1.61481593      -1.92836060       0.39155483
H       -0.31496866      -1.47828677       1.52028804
H        4.01323087       0.21025032       1.46002085
