10
Frame=0 idx=000961 GeodesicLength=0.0 rxn_smarts="[O:1]=[C:2]1[C:3]([H:6])([H:7])[N:4]([H:8])[C:5]1([H:9])[H:10]>>[H:9][H:10].[O-:1][C:2]1=[C+:5][N:4]([H:8])[C:3]1([H:6])[H:7]"
O        2.11808453      -0.53009093       0.29049890
C        0.96629349      -0.24978256       0.24133713
C        0.17357420       1.08277093       0.28384949
N       -0.99503645       0.21189524       0.16864482
C       -0.37885460      -0.99948100       0.19713729
H        0.25378202       1.64866888       1.21424828
H        0.34345004       1.73519577      -0.57760209
H       -1.95125543       0.40344084       0.40516571
H       -0.47872044      -1.85304634      -0.77024573
H       -0.05131735      -1.44957082      -1.45303381
10
Frame=1 idx=000961 GeodesicLength=0.05933703097933447 rxn_smarts="[O:1]=[C:2]1[C:3]([H:6])([H:7])[N:4]([H:8])[C:5]1([H:9])[H:10]>>[H:9][H:10].[O-:1][C:2]1=[C+:5][N:4]([H:8])[C:3]1([H:6])[H:7]"
O        2.12674317      -0.51493267       0.28988956
C        0.97451161      -0.23758886       0.23506181
C        0.17687815       1.09104382       0.29113250
N       -0.98825377       0.21899448       0.14703673
C       -0.36713963      -0.99144451       0.18287512
H        0.24517383       1.64136315       1.23188964
H        0.35351242       1.75959444      -0.55630039
H       -1.94478876       0.40065019       0.39107866
H       -0.49255452      -1.88848025      -0.75611448
H       -0.08408251      -1.47919979      -1.45654915
10
Frame=2 idx=000961 GeodesicLength=0.11857751346752032 rxn_smarts="[O:1]=[C:2]1[C:3]([H:6])([H:7])[N:4]([H:8])[C:5]1([H:9])[H:10]>>[H:9][H:10].[O-:1][C:2]1=[C+:5][N:4]([H:8])[C:3]1([H:6])[H:7]"
O        2.13587336      -0.49916661       0.28898040
C        0.98319413      -0.22494484       0.22860043
C        0.18018209       1.09930240       0.29875721
N       -0.98082103       0.22629961       0.12490462
C       -0.35473570      -0.98320059       0.16695559
H        0.23611224       1.63317891       1.24986610
H        0.36339178       1.78434659      -0.53379291
H       -1.93783517       0.39764267       0.37557981
H       -0.50703593      -1.92343191      -0.74052967
H       -0.11832575      -1.51002622      -1.45932158
10
Frame=3 idx=000961 GeodesicLength=0.1776397254701602 rxn_smarts="[O:1]=[C:2]1[C:3]([H:6])([H:7])[N:4]([H:8])[C:5]1([H:9])[H:10]>>[H:9][H:10].[O-:1][C:2]1=[C+:5][N:4]([H:8])[C:3]1([H:6])[H:7]"
O        2.14546925      -0.48287329       0.28834206
C        0.99235266      -0.21192966       0.22229277
C        0.18346501       1.10744773       0.30653889
N       -0.97274027       0.23369092       0.10251232
C       -0.34155557      -0.97483888       0.14916239
H        0.22662510       1.62433435       1.26775471
H        0.37298753       1.80901736      -0.51050478
H       -1.93033153       0.39420926       0.35922731
H       -0.52222077      -1.95752681      -0.72382792
H       -0.15405141      -1.54153098      -1.46149775
10
Frame=4 idx=000961 GeodesicLength=0.2365341942032177 rxn_smarts="[O:1]=[C:2]1[C:3]([H:6])([H:7])[N:4]([H:8])[C:5]1([H:9])[H:10]>>[H:9][H:10].[O-:1][C:2]1=[C+:5][N:4]([H:8])[C:3]1([H:6])[H:7]"
O        2.15553415      -0.46603911       0.28796849
C        1.00198306      -0.19853615       0.21619850
C        0.18671687       1.11546809       0.31449249
N       -0.96400420       0.24122589       0.07973345
C       -0.32754273      -0.96630767       0.12921525
H        0.21663915       1.61476139       1.28556678
H        0.38233200       1.83360361      -0.48637457
H       -1.92223254       0.39033389       0.34207299
H       -0.53795886      -1.99077759      -0.70585262
H       -0.19146690      -1.57373233      -1.46302075
10
Frame=5 idx=000961 GeodesicLength=0.2951927025724174 rxn_smarts="[O:1]=[C:2]1[C:3]([H:6])([H:7])[N:4]([H:8])[C:5]1([H:9])[H:10]>>[H:9][H:10].[O-:1][C:2]1=[C+:5][N:4]([H:8])[C:3]1([H:6])[H:7]"
O        2.16611197      -0.44864070       0.28814973
C        1.01214604      -0.18476218       0.21040127
C        0.18992990       1.12331704       0.32256113
N       -0.95457635       0.24885571       0.05661652
C       -0.31253570      -0.95760712       0.10679992
H        0.20613421       1.60446806       1.30317453
H        0.39136223       1.85798720      -0.46149887
H       -1.91347430       0.38585157       0.32425347
H       -0.55432618      -2.02296029      -0.68661033
H       -0.23077182      -1.60650929      -1.46384736
10
Frame=6 idx=000961 GeodesicLength=0.353653445541915 rxn_smarts="[O:1]=[C:2]1[C:3]([H:6])([H:7])[N:4]([H:8])[C:5]1([H:9])[H:10]>>[H:9][H:10].[O-:1][C:2]1=[C+:5][N:4]([H:8])[C:3]1([H:6])[H:7]"
O        2.17725239      -0.43059673       0.28874719
C        1.02286385      -0.17060093       0.20491708
C        0.19309662       1.13096273       0.33078677
N       -0.94440449       0.25661972       0.03297885
C       -0.29639427      -0.94865079       0.08160901
H        0.19498805       1.59325847       1.32065570
H        0.40011815       1.88224491      -0.43568447
H       -1.90400210       0.38071022       0.30557613
H       -0.57127131      -2.05399535      -0.66580529
H       -0.27224690      -1.63995226      -1.46378096
10
Frame=7 idx=000961 GeodesicLength=0.41192783041071795 rxn_smarts="[O:1]=[C:2]1[C:3]([H:6])([H:7])[N:4]([H:8])[C:5]1([H:9])[H:10]>>[H:9][H:10].[O-:1][C:2]1=[C+:5][N:4]([H:8])[C:3]1([H:6])[H:7]"
O        2.18905779      -0.41174946       0.28953042
C        1.03423305      -0.15596305       0.19950230
C        0.19621221       1.13837493       0.33929779
N       -0.93337144       0.26460513       0.00847717
C       -0.27890617      -0.93928299       0.05315334
H        0.18305507       1.58069372       1.33826312
H        0.40860068       1.90663206      -0.40845450
H       -1.89373861       0.37488432       0.28549592
H       -0.58879598      -2.08378469      -0.64285726
H       -0.31634660      -1.67440997      -1.46240830
10
Frame=8 idx=000961 GeodesicLength=0.47002531170802464 rxn_smarts="[O:1]=[C:2]1[C:3]([H:6])([H:7])[N:4]([H:8])[C:5]1([H:9])[H:10]>>[H:9][H:10].[O-:1][C:2]1=[C+:5][N:4]([H:8])[C:3]1([H:6])[H:7]"
O        2.20163354      -0.39190882       0.29004976
C        1.04631887      -0.14075282       0.19393181
C        0.19925370       1.14548866       0.34828437
N       -0.92133430       0.27296598      -0.01735942
C       -0.25982558      -0.92930916       0.02071661
H        0.17010046       1.56618019       1.35630270
H        0.41684694       1.93139898      -0.37914484
H       -1.88259541       0.36841043       0.26332530
H       -0.60687578      -2.11212191      -0.61698053
H       -0.36352244      -1.71035154      -1.45912576
10
Frame=9 idx=000961 GeodesicLength=0.5278362855480003 rxn_smarts="[O:1]=[C:2]1[C:3]([H:6])([H:7])[N:4]([H:8])[C:5]1([H:9])[H:10]>>[H:9][H:10].[O-:1][C:2]1=[C+:5][N:4]([H:8])[C:3]1([H:6])[H:7]"
O        2.21493275      -0.37117957       0.29092753
C        1.05913378      -0.12507610       0.18828451
C        0.20218036       1.15215145       0.35758662
N       -0.90827944       0.28166718      -0.04449877
C       -0.23892484      -0.91854838      -0.01660179
H        0.15607060       1.54957290       1.37446489
H        0.42472553       1.95626571      -0.34791300
H       -1.87042996       0.36096013       0.23942091
H       -0.62508334      -2.13842813      -0.58799890
H       -0.41432545      -1.74738519      -1.45367200
10
Frame=10 idx=000961 GeodesicLength=0.5853730841037198 rxn_smarts="[O:1]=[C:2]1[C:3]([H:6])([H:7])[N:4]([H:8])[C:5]1([H:9])[H:10]>>[H:9][H:10].[O-:1][C:2]1=[C+:5][N:4]([H:8])[C:3]1([H:6])[H:7]"
O        2.22904584      -0.34938588       0.29159074
C        1.07272567      -0.10886897       0.18218150
C        0.20493406       1.15819041       0.36746700
N       -0.89402865       0.29096737      -0.07364422
C       -0.21582146      -0.90659426      -0.06022634
H        0.14061411       1.52986517       1.39314351
H        0.43225577       1.98150042      -0.31374412
H       -1.85713127       0.35254721       0.21279061
H       -0.64320111      -2.16208063      -0.55463182
H       -0.46939295      -1.78614084      -1.44492686
10
Frame=11 idx=000961 GeodesicLength=0.6424346923482116 rxn_smarts="[O:1]=[C:2]1[C:3]([H:6])([H:7])[N:4]([H:8])[C:5]1([H:9])[H:10]>>[H:9][H:10].[O-:1][C:2]1=[C+:5][N:4]([H:8])[C:3]1([H:6])[H:7]"
O        2.24394490      -0.32659123       0.29174981
C        1.08713067      -0.09207540       0.17483423
C        0.20741396       1.16332295       0.37817313
N       -0.87844494       0.30126131      -0.10567451
C       -0.19024170      -0.89287876      -0.11232563
H        0.12339588       1.50559302       1.41271560
H        0.43931028       2.00740753      -0.27533605
H       -1.84252792       0.34328804       0.18227942
H       -0.66022290      -2.18206488      -0.51517963
H       -0.52975823      -1.82726257      -1.43123637
10
Frame=12 idx=000961 GeodesicLength=0.6986605092773771 rxn_smarts="[O:1]=[C:2]1[C:3]([H:6])([H:7])[N:4]([H:8])[C:5]1([H:9])[H:10]>>[H:9][H:10].[O-:1][C:2]1=[C+:5][N:4]([H:8])[C:3]1([H:6])[H:7]"
O        2.25935604      -0.30294072       0.29108626
C        1.10201115      -0.07539314       0.16644302
C        0.20940725       1.16675863       0.38949982
N       -0.86147404       0.31238033      -0.14076271
C       -0.16177260      -0.87678490      -0.17441490
H        0.10397117       1.47569762       1.43261026
H        0.44573130       2.03290209      -0.23252796
H       -1.82655056       0.33266477       0.14760282
H       -0.67553237      -2.19592820      -0.46873760
H       -0.59514734      -1.86935649      -1.41079901
10
Frame=13 idx=000961 GeodesicLength=0.7541252270867567 rxn_smarts="[O:1]=[C:2]1[C:3]([H:6])([H:7])[N:4]([H:8])[C:5]1([H:9])[H:10]>>[H:9][H:10].[O-:1][C:2]1=[C+:5][N:4]([H:8])[C:3]1([H:6])[H:7]"
O        2.27459430      -0.27974376       0.28978051
C        1.11666369      -0.05979580       0.15652687
C        0.21067117       1.16789192       0.40123606
N       -0.84378245       0.32458205      -0.17899100
C       -0.13101873      -0.85770482      -0.24836304
H        0.08244643       1.43931185       1.45230570
H        0.45128101       2.05717175      -0.18524909
H       -1.80966173       0.32077901       0.10898368
H       -0.68642349      -2.20140377      -0.41463102
H       -0.66477020      -1.91108840      -1.38159868
10
Frame=14 idx=000961 GeodesicLength=0.8074754369806639 rxn_smarts="[O:1]=[C:2]1[C:3]([H:6])([H:7])[N:4]([H:8])[C:5]1([H:9])[H:10]>>[H:9][H:10].[O-:1][C:2]1=[C+:5][N:4]([H:8])[C:3]1([H:6])[H:7]"
O        2.28756594      -0.25918133       0.28658959
C        1.12927840      -0.04687531       0.14436965
C        0.21083065       1.16558946       0.41270108
N       -0.82645712       0.33766565      -0.21934973
C       -0.10043292      -0.83596075      -0.33121572
H        0.05943352       1.39589602       1.47050777
H        0.45557849       2.07805025      -0.13491026
H       -1.79264029       0.30883949       0.06735558
H       -0.69059113      -2.19554599      -0.35401902
H       -0.73256555      -1.94847749      -1.34202894
10
Frame=15 idx=000961 GeodesicLength=0.8609950509229877 rxn_smarts="[O:1]=[C:2]1[C:3]([H:6])([H:7])[N:4]([H:8])[C:5]1([H:9])[H:10]>>[H:9][H:10].[O-:1][C:2]1=[C+:5][N:4]([H:8])[C:3]1([H:6])[H:7]"
O        2.29802729      -0.24221858       0.28147860
C        1.13921163      -0.03789996       0.13094337
C        0.20993690       1.16006358       0.42273713
N       -0.81085801       0.35007742      -0.25859580
C       -0.07296345      -0.81456474      -0.41235985
H        0.03679274       1.34956018       1.48537896
H        0.45817224       2.09364345      -0.08603665
H       -1.77721312       0.29780488       0.02576687
H       -0.68936769      -2.18046762      -0.29306946
H       -0.79173853      -1.97599862      -1.29624317
10
Frame=16 idx=000961 GeodesicLength=0.9151435569756863 rxn_smarts="[O:1]=[C:2]1[C:3]([H:6])([H:7])[N:4]([H:8])[C:5]1([H:9])[H:10]>>[H:9][H:10].[O-:1][C:2]1=[C+:5][N:4]([H:8])[C:3]1([H:6])[H:7]"
O        2.30589182      -0.22851504       0.27493645
C        1.14668404      -0.03208687       0.11633407
C        0.20820958       1.15201268       0.43100573
N       -0.79710236       0.36125630      -0.29523732
C       -0.04970110      -0.79539739      -0.48582272
H        0.01566578       1.30254832       1.49657007
H        0.45883170       2.10409065      -0.04060194
H       -1.76345698       0.28838677      -0.01408421
H       -0.68547928      -2.15926510      -0.23479647
H       -0.83954319      -1.99303031      -1.24830365
