14
Frame=0 idx=005799 GeodesicLength=0.0 rxn_smarts="[C:1]([C@:2]12[C:3]([H:10])([H:11])[C:4]([H:12])([H:13])[C@@:5]1([H:14])[O:6]2)([H:7])([H:8])[H:9]>>[C:1]([C@@:2]1([H:14])[C:3]([H:10])([H:11])[C:4]([H:12])([H:13])[C-:5]=[O+:6]1)([H:7])([H:8])[H:9]"
C       -1.85339915       0.42738628       0.20161532
C       -0.43634121       0.10555773      -0.16128376
C        0.63458306      -0.48488183       0.74535345
C        1.72799576      -0.29774317      -0.31851358
C        0.83737949       0.35687699      -1.40667996
O       -0.28030475      -0.52098025      -1.40050722
H       -1.89550983       1.01426459       1.11891507
H       -2.39181630      -0.51054544       0.35642401
H       -2.34248677       0.97422379      -0.60345432
H        0.81711943       0.12763638       1.62854526
H        0.40567802      -1.50494274       1.05880055
H        2.54582045       0.35104026      -0.01031974
H        2.14011825      -1.22236139      -0.72628398
H        0.09116355       1.18446875      -0.48261108
14
Frame=1 idx=005799 GeodesicLength=0.05336177995143676 rxn_smarts="[C:1]([C@:2]12[C:3]([H:10])([H:11])[C:4]([H:12])([H:13])[C@@:5]1([H:14])[O:6]2)([H:7])([H:8])[H:9]>>[C:1]([C@@:2]1([H:14])[C:3]([H:10])([H:11])[C:4]([H:12])([H:13])[C-:5]=[O+:6]1)([H:7])([H:8])[H:9]"
C       -1.85366845       0.42441779       0.20452728
C       -0.43471893       0.11599897      -0.16155547
C        0.63227181      -0.48289125       0.74463818
C        1.72895595      -0.30371258      -0.31785629
C        0.84207986       0.34965353      -1.40640923
O       -0.28138201      -0.51293313      -1.40402261
H       -1.89844951       1.00904623       1.12323984
H       -2.38597003      -0.51705447       0.35885700
H       -2.34825811       0.96974237      -0.59828087
H        0.81792576       0.12580941       1.62974996
H        0.39793493      -1.50266962       1.05482055
H        2.54463788       0.34896642      -0.01114498
H        2.14488513      -1.22958668      -0.71838056
H        0.09375573       1.20521301      -0.49818280
14
Frame=2 idx=005799 GeodesicLength=0.10670749014728914 rxn_smarts="[C:1]([C@:2]12[C:3]([H:10])([H:11])[C:4]([H:12])([H:13])[C@@:5]1([H:14])[O:6]2)([H:7])([H:8])[H:9]>>[C:1]([C@@:2]1([H:14])[C:3]([H:10])([H:11])[C:4]([H:12])([H:13])[C-:5]=[O+:6]1)([H:7])([H:8])[H:9]"
C       -1.85383063       0.42147372       0.20745970
C       -0.43308818       0.12641027      -0.16172345
C        0.62994548      -0.48099684       0.74395670
C        1.72984284      -0.30964178      -0.31714234
C        0.84657740       0.34246759      -1.40598975
O       -0.28243853      -0.50491817      -1.40746341
H       -1.90126700       1.00383033       1.12758478
H       -2.38007830      -0.52346035       0.36125533
H       -2.35387421       0.96529167      -0.59306558
H        0.81866557       0.12378901       1.63103566
H        0.39023506      -1.50049393       1.05078169
H        2.54333536       0.34697154      -0.01193181
H        2.14967803      -1.23665307      -0.71042032
H        0.09629710       1.22593000      -0.51433720
14
Frame=3 idx=005799 GeodesicLength=0.16004129754126023 rxn_smarts="[C:1]([C@:2]12[C:3]([H:10])([H:11])[C:4]([H:12])([H:13])[C@@:5]1([H:14])[O:6]2)([H:7])([H:8])[H:9]>>[C:1]([C@@:2]1([H:14])[C:3]([H:10])([H:11])[C:4]([H:12])([H:13])[C-:5]=[O+:6]1)([H:7])([H:8])[H:9]"
C       -1.85388630       0.41855723       0.21041451
C       -0.43144779       0.13678934      -0.16178334
C        0.62760451      -0.47920339       0.74331057
C        1.73065829      -0.31552774      -0.31637123
C        0.85087222       0.33532173      -1.40542094
O       -0.28347414      -0.49693752      -1.41082598
H       -1.90396229       0.99861738       1.13195341
H       -2.37414729      -0.52975931       0.36361754
H       -2.35933030       0.96088077      -0.58780666
H        0.81933798       0.12156637       1.63240571
H        0.38257969      -1.49842201       1.04668119
H        2.54191083       0.34506060      -0.01267701
H        2.15450379      -1.24355422      -0.70240363
H        0.09878083       1.24661078      -0.53109414
14
Frame=4 idx=005799 GeodesicLength=0.21337011597861075 rxn_smarts="[C:1]([C@:2]12[C:3]([H:10])([H:11])[C:4]([H:12])([H:13])[C@@:5]1([H:14])[O:6]2)([H:7])([H:8])[H:9]>>[C:1]([C@@:2]1([H:14])[C:3]([H:10])([H:11])[C:4]([H:12])([H:13])[C-:5]=[O+:6]1)([H:7])([H:8])[H:9]"
C       -1.85383617       0.41567152       0.21339356
C       -0.42979680       0.14713318      -0.16173081
C        0.62524927      -0.47751606       0.74270138
C        1.73140441      -0.32136727      -0.31554271
C        0.85496431       0.32821844      -1.40470237
O       -0.28448857      -0.48899340      -1.41410691
H       -1.90653562       0.99340805       1.13634918
H       -2.36818381      -0.53594735       0.36594218
H       -2.36462205       0.95651912      -0.58250235
H        0.81994199       0.11913255       1.63386343
H        0.37497027      -1.49646035       1.04251646
H        2.54036242       0.34323858      -0.01337759
H        2.15936968      -1.25028335      -0.69433087
H        0.10120068       1.26724634      -0.54847258
14
Frame=5 idx=005799 GeodesicLength=0.26670208099280907 rxn_smarts="[C:1]([C@:2]12[C:3]([H:10])([H:11])[C:4]([H:12])([H:13])[C@@:5]1([H:14])[O:6]2)([H:7])([H:8])[H:9]>>[C:1]([C@@:2]1([H:14])[C:3]([H:10])([H:11])[C:4]([H:12])([H:13])[C-:5]=[O+:6]1)([H:7])([H:8])[H:9]"
C       -1.85368052       0.41282010       0.21639857
C       -0.42813391       0.15743938      -0.16156190
C        0.62288008      -0.47593964       0.74213043
C        1.73208330      -0.32715750      -0.31465606
C        0.85885380       0.32115958      -1.40383349
O       -0.28548145      -0.48108782      -1.41730311
H       -1.90898677       0.98820271       1.14077558
H       -2.36219348      -0.54202085       0.36822801
H       -2.36974489       0.95221591      -0.57715080
H        0.82047623       0.11647834       1.63541194
H        0.36740796      -1.49461507       1.03828429
H        2.53868792       0.34151107      -0.01403017
H        2.16428211      -1.25683441      -0.68620243
H        0.10354963       1.28782821      -0.56649086
14
Frame=6 idx=005799 GeodesicLength=0.32003585726661016 rxn_smarts="[C:1]([C@:2]12[C:3]([H:10])([H:11])[C:4]([H:12])([H:13])[C@@:5]1([H:14])[O:6]2)([H:7])([H:8])[H:9]>>[C:1]([C@@:2]1([H:14])[C:3]([H:10])([H:11])[C:4]([H:12])([H:13])[C-:5]=[O+:6]1)([H:7])([H:8])[H:9]"
C       -1.85342086       0.41000545       0.21943208
C       -0.42645813       0.16770603      -0.16127189
C        0.62049715      -0.47447845       0.74159951
C        1.73269739      -0.33289555      -0.31371076
C        0.86254257       0.31415184      -1.40281299
O       -0.28645198      -0.47322099      -1.42041141
H       -1.91131684       0.98300196       1.14523643
H       -2.35618294      -0.54797714       0.37047448
H       -2.37469628       0.94798013      -0.57174996
H        0.82093975       0.11359536       1.63705450
H        0.35989315      -1.49289190       1.03398209
H        2.53688727       0.33988044      -0.01463053
H        2.16924707      -1.26320071      -0.67801995
H        0.10582267       1.30834353      -0.58517160
14
Frame=7 idx=005799 GeodesicLength=0.37337613430332994 rxn_smarts="[C:1]([C@:2]12[C:3]([H:10])([H:11])[C:4]([H:12])([H:13])[C@@:5]1([H:14])[O:6]2)([H:7])([H:8])[H:9]>>[C:1]([C@@:2]1([H:14])[C:3]([H:10])([H:11])[C:4]([H:12])([H:13])[C-:5]=[O+:6]1)([H:7])([H:8])[H:9]"
C       -1.85305837       0.40723073       0.22249625
C       -0.42476809       0.17793124      -0.16085657
C        0.61810075      -0.47313668       0.74110990
C        1.73324922      -0.33857850      -0.31270655
C        0.86603199       0.30719919      -1.40164048
O       -0.28739939      -0.46539364      -1.42342908
H       -1.91352666       0.97780565       1.14973567
H       -2.35015828      -0.55381306       0.37268032
H       -2.37947303       0.94382069      -0.56629768
H        0.82133148       0.11047490       1.63879404
H        0.35242617      -1.49129613       1.02960675
H        2.53495980       0.33835012      -0.01517513
H        2.17427060      -1.26937599      -0.66978388
H        0.10801382       1.32878148      -0.60453356
14
Frame=8 idx=005799 GeodesicLength=0.426727500494143 rxn_smarts="[C:1]([C@:2]12[C:3]([H:10])([H:11])[C:4]([H:12])([H:13])[C@@:5]1([H:14])[O:6]2)([H:7])([H:8])[H:9]>>[C:1]([C@@:2]1([H:14])[C:3]([H:10])([H:11])[C:4]([H:12])([H:13])[C-:5]=[O+:6]1)([H:7])([H:8])[H:9]"
C       -1.85259333       0.40449887       0.22559341
C       -0.42306184       0.18811392      -0.16031185
C        0.61569073      -0.47191908       0.74066295
C        1.73374112      -0.34420437      -0.31164211
C        0.86932422       0.30030629      -1.40031385
O       -0.28832262      -0.45760491      -1.42635347
H       -1.91561602       0.97261343       1.15427754
H       -2.34412457      -0.55952581       0.37484440
H       -2.38407164       0.93974670      -0.56079093
H        0.82164995       0.10710795       1.64063350
H        0.34500696      -1.48983322       1.02515483
H        2.53290452       0.33692411      -0.01565910
H        2.17935832      -1.27535480      -0.66149549
H        0.11011421       1.34913093      -0.62459982
14
Frame=9 idx=005799 GeodesicLength=0.4800869070036779 rxn_smarts="[C:1]([C@:2]12[C:3]([H:10])([H:11])[C:4]([H:12])([H:13])[C@@:5]1([H:14])[O:6]2)([H:7])([H:8])[H:9]>>[C:1]([C@@:2]1([H:14])[C:3]([H:10])([H:11])[C:4]([H:12])([H:13])[C-:5]=[O+:6]1)([H:7])([H:8])[H:9]"
C       -1.85202791       0.40181256       0.22872609
C       -0.42133869       0.19825222      -0.15963306
C        0.61326706      -0.47082902       0.74026031
C        1.73417585      -0.34976975      -0.31051706
C        0.87242177       0.29348144      -1.39883299
O       -0.28922039      -0.44985421      -1.42918185
H       -1.91758650       0.96742474       1.15886619
H       -2.33808794      -0.56511346       0.37696621
H       -2.38849039       0.93576673      -0.55522751
H        0.82189360       0.10348668       1.64257570
H        0.33763584      -1.48850716       1.02062366
H        2.53072179       0.33560305      -0.01607720
H        2.18451410      -1.28113019      -0.65315745
H        0.11212181       1.36937638      -0.64539102
14
Frame=10 idx=005799 GeodesicLength=0.5334537757954515 rxn_smarts="[C:1]([C@:2]12[C:3]([H:10])([H:11])[C:4]([H:12])([H:13])[C@@:5]1([H:14])[O:6]2)([H:7])([H:8])[H:9]>>[C:1]([C@@:2]1([H:14])[C:3]([H:10])([H:11])[C:4]([H:12])([H:13])[C-:5]=[O+:6]1)([H:7])([H:8])[H:9]"
C       -1.85136299       0.39917499       0.23189645
C       -0.41959705       0.20834386      -0.15881581
C        0.61082980      -0.46987124       0.73990342
C        1.73455602      -0.35527205      -0.30933102
C        0.87532702       0.28673234      -1.39719517
O       -0.29009117      -0.44214119      -1.43191179
H       -1.91943914       0.96224000       1.16350553
H       -2.33205455      -0.57057296       0.37904482
H       -2.39272690       0.93189025      -0.54960512
H        0.82206133       0.09960254       1.64462315
H        0.33031288      -1.48732328       1.01601004
H        2.52841234       0.33438934      -0.01642483
H        2.18974368      -1.28669599      -0.64477181
H        0.11402874       1.38950338      -0.66692787
14
Frame=11 idx=005799 GeodesicLength=0.5868282817159735 rxn_smarts="[C:1]([C@:2]12[C:3]([H:10])([H:11])[C:4]([H:12])([H:13])[C@@:5]1([H:14])[O:6]2)([H:7])([H:8])[H:9]>>[C:1]([C@@:2]1([H:14])[C:3]([H:10])([H:11])[C:4]([H:12])([H:13])[C-:5]=[O+:6]1)([H:7])([H:8])[H:9]"
C       -1.85060014       0.39658856       0.23510722
C       -0.41783549       0.21838794      -0.15785516
C        0.60837908      -0.46904900       0.73959377
C        1.73488443      -0.36070879      -0.30808330
C        0.87804287       0.28006730      -1.39539779
O       -0.29093303      -0.43446185      -1.43454154
H       -1.92117498       0.95705784       1.16820019
H       -2.32602966      -0.57590258       0.38107898
H       -2.39677972       0.92812559      -0.54392051
H        0.82215181       0.09544748       1.64677847
H        0.32303761      -1.48628542       1.01131080
H        2.52597736       0.33328367      -0.01669623
H        2.19505041      -1.29204683      -0.63634064
H        0.11582945       1.40949610      -0.68923427
14
Frame=12 idx=005799 GeodesicLength=0.6402099222904151 rxn_smarts="[C:1]([C@:2]12[C:3]([H:10])([H:11])[C:4]([H:12])([H:13])[C@@:5]1([H:14])[O:6]2)([H:7])([H:8])[H:9]>>[C:1]([C@@:2]1([H:14])[C:3]([H:10])([H:11])[C:4]([H:12])([H:13])[C-:5]=[O+:6]1)([H:7])([H:8])[H:9]"
C       -1.84974020       0.39405562       0.23836057
C       -0.41605232       0.22838359      -0.15674735
C        0.60591473      -0.46836545       0.73933246
C        1.73516353      -0.36607796      -0.30677328
C        0.88057219       0.27349387      -1.39343861
O       -0.29174413      -0.42681373      -1.43706906
H       -1.92279485       0.95187670       1.17295436
H       -2.32001830      -0.58110066       0.38306724
H       -2.40064659       0.92448147      -0.53817087
H        0.82216342       0.09101405       1.64904351
H        0.31580948      -1.48539690       1.00652278
H        2.52341775       0.33228760      -0.01688647
H        2.20043745      -1.29717774      -0.62786634
H        0.11751783       1.42933954      -0.71232893
14
Frame=13 idx=005799 GeodesicLength=0.693594733685126 rxn_smarts="[C:1]([C@:2]12[C:3]([H:10])([H:11])[C:4]([H:12])([H:13])[C@@:5]1([H:14])[O:6]2)([H:7])([H:8])[H:9]>>[C:1]([C@@:2]1([H:14])[C:3]([H:10])([H:11])[C:4]([H:12])([H:13])[C-:5]=[O+:6]1)([H:7])([H:8])[H:9]"
C       -1.84878535       0.39157852       0.24165934
C       -0.41424675       0.23832909      -0.15548672
C        0.60343667      -0.46782395       0.73912113
C        1.73539589      -0.37137632      -0.30540073
C        0.88291863       0.26702273      -1.39131508
O       -0.29252229      -0.41919224      -1.43949260
H       -1.92430104       0.94669523       1.17777277
H       -2.31402624      -0.58616583       0.38500837
H       -2.40432670       0.92096684      -0.53235323
H        0.82209496       0.08629481       1.65142047
H        0.30862857      -1.48466101       1.00164295
H        2.52073507       0.33140089      -0.01698937
H        2.20590749      -1.30208283      -0.61935231
H        0.11909109       1.44901406      -0.73623498
14
Frame=14 idx=005799 GeodesicLength=0.7469788201308402 rxn_smarts="[C:1]([C@:2]12[C:3]([H:10])([H:11])[C:4]([H:12])([H:13])[C@@:5]1([H:14])[O:6]2)([H:7])([H:8])[H:9]>>[C:1]([C@@:2]1([H:14])[C:3]([H:10])([H:11])[C:4]([H:12])([H:13])[C-:5]=[O+:6]1)([H:7])([H:8])[H:9]"
C       -1.84773766       0.38915945       0.24500613
C       -0.41241767       0.24822306      -0.15406843
C        0.60094485      -0.46742717       0.73896109
C        1.73558409      -0.37660158      -0.30396505
C        0.88508609       0.26066560      -1.38902459
O       -0.29326509      -0.41159308      -1.44181032
H       -1.92569525       0.94151164       1.18265987
H       -2.30805884      -0.59109692       0.38690143
H       -2.40781918       0.91758949      -0.52646441
H        0.82194477       0.08128265       1.65391106
H        0.30149422      -1.48408036       0.99666824
H        2.51793133       0.33062299      -0.01699840
H        2.21146212      -1.30675665      -0.61080258
H        0.12054624       1.46850090      -0.76097404
14
Frame=15 idx=005799 GeodesicLength=0.8003551639475797 rxn_smarts="[C:1]([C@:2]12[C:3]([H:10])([H:11])[C:4]([H:12])([H:13])[C@@:5]1([H:14])[O:6]2)([H:7])([H:8])[H:9]>>[C:1]([C@@:2]1([H:14])[C:3]([H:10])([H:11])[C:4]([H:12])([H:13])[C-:5]=[O+:6]1)([H:7])([H:8])[H:9]"
C       -1.84659953       0.38680026       0.24840384
C       -0.41056435       0.25806415      -0.15248708
C        0.59843914      -0.46717756       0.73885376
C        1.73573055      -0.38175108      -0.30246597
C        0.88707896       0.25443542      -1.38656437
O       -0.29397001      -0.40401086      -1.44402055
H       -1.92697997       0.93632372       1.18762048
H       -2.30212147      -0.59589318       0.38874522
H       -2.41112373       0.91435775      -0.52050126
H        0.82171137       0.07597100       1.65651683
H        0.29440591      -1.48365710       0.99159559
H        2.51500904       0.32995262      -0.01690679
H        2.21710245      -1.31119380      -0.60222165
H        0.12188162       1.48777868      -0.78656807
14
Frame=16 idx=005799 GeodesicLength=0.8537126407913603 rxn_smarts="[C:1]([C@:2]12[C:3]([H:10])([H:11])[C:4]([H:12])([H:13])[C@@:5]1([H:14])[O:6]2)([H:7])([H:8])[H:9]>>[C:1]([C@@:2]1([H:14])[C:3]([H:10])([H:11])[C:4]([H:12])([H:13])[C-:5]=[O+:6]1)([H:7])([H:8])[H:9]"
C       -1.84537321       0.38450257       0.25185524
C       -0.40868580       0.26785209      -0.15073750
C        0.59591943      -0.46707679       0.73880031
C        1.73583769      -0.38682211      -0.30090341
C        0.88890178       0.24834560      -1.38393144
O       -0.29463436      -0.39643878      -1.44612183
H       -1.92815775       0.93112852       1.19265947
H       -2.29621884      -0.60055436       0.39053814
H       -2.41424042       0.91127955      -0.51446036
H        0.82139329       0.07035374       1.65923893
H        0.28736299      -1.48339230       0.98642184
H        2.51197114       0.32938779      -0.01670747
H        2.22282846      -1.31538957      -0.59361404
H        0.12309557       1.50682405      -0.81303789
