16
Frame=0 idx=004372 GeodesicLength=0.0 rxn_smarts="[C:1]([C:2]([O:3][C:4]([C:5]([O:6][H:16])([H:14])[H:15])([H:12])[H:13])([H:10])[H:11])([H:7])([H:8])[H:9]>>[C:1]([C:2]([O:3][C:4]([H:12])([H:13])[H:15])([H:10])[H:11])([H:7])([H:8])[H:9].[C:5]([O:6][H:16])[H:14]"
C       -2.14543576      -0.72175216       0.04902720
C       -0.95940891      -0.13686244      -0.67673168
O       -0.25516361       0.71659216       0.21976753
C        0.89891709       1.23722332      -0.30020744
C        2.36029753      -0.24875718       0.46878044
O        1.51149616      -1.21855272       0.85455597
H       -1.81929316      -1.33740503       0.88838555
H       -2.72660260      -1.34968019      -0.62777417
H       -2.79379053       0.06885705       0.42883595
H       -1.28191184       0.45427519      -1.54368096
H       -0.28935305      -0.92746631      -1.02916499
H        1.21922767       2.10431346       0.26882786
H        0.82740793       1.46657853      -1.37082826
H        2.54821382       0.47861708       1.26930047
H        1.93573798       0.36782716      -0.50761413
H        0.96966126      -0.95380786       1.60852065
16
Frame=1 idx=004372 GeodesicLength=0.10640486284740601 rxn_smarts="[C:1]([C:2]([O:3][C:4]([C:5]([O:6][H:16])([H:14])[H:15])([H:12])[H:13])([H:10])[H:11])([H:7])([H:8])[H:9]>>[C:1]([C:2]([O:3][C:4]([H:12])([H:13])[H:15])([H:10])[H:11])([H:7])([H:8])[H:9].[C:5]([O:6][H:16])[H:14]"
C       -2.15349642      -0.72168150       0.05197055
C       -0.97712483      -0.13316345      -0.68662319
O       -0.23332101       0.67631236       0.21590840
C        0.90991036       1.21195619      -0.31751623
C        2.38667690      -0.21892426       0.51853948
O        1.55901491      -1.21944746       0.87085555
H       -1.81681866      -1.37738974       0.85603688
H       -2.76866886      -1.30966428      -0.63065832
H       -2.77317679       0.06567391       0.48304379
H       -1.31449817       0.49225920      -1.52340232
H       -0.32594982      -0.92173472      -1.07765669
H        1.19815812       2.10695894       0.22622761
H        0.84430993       1.42009890      -1.39278745
H        2.52048245       0.51470951       1.32513667
H        1.98302548       0.37566558      -0.50400214
H        0.96147641      -0.96162919       1.58492741
16
Frame=2 idx=004372 GeodesicLength=0.21231939783744214 rxn_smarts="[C:1]([C:2]([O:3][C:4]([C:5]([O:6][H:16])([H:14])[H:15])([H:12])[H:13])([H:10])[H:11])([H:7])([H:8])[H:9]>>[C:1]([C:2]([O:3][C:4]([H:12])([H:13])[H:15])([H:10])[H:11])([H:7])([H:8])[H:9].[C:5]([O:6][H:16])[H:14]"
C       -2.16173078      -0.72141215       0.05476507
C       -0.99586936      -0.12819894      -0.69680476
O       -0.21086670       0.63326880       0.20990132
C        0.92160951       1.18432136      -0.33553505
C        2.41148885      -0.18647067       0.57034072
O        1.60956194      -1.21841182       0.89069136
H       -1.81578043      -1.41738220       0.82007739
H       -2.81148932      -1.26692643      -0.63109465
H       -2.75000623       0.05975043       0.53803608
H       -1.34677381       0.53321501      -1.49972075
H       -0.36636025      -0.91319996      -1.12903195
H        1.17527643       2.10618308       0.18135516
H        0.86328799       1.36940439      -1.41539781
H        2.48861982       0.55242643       1.38048472
H        2.03169714       0.38490589      -0.49832104
H        0.95733520      -0.97147321       1.56025418
16
Frame=3 idx=004372 GeodesicLength=0.3175230766634349 rxn_smarts="[C:1]([C:2]([O:3][C:4]([C:5]([O:6][H:16])([H:14])[H:15])([H:12])[H:13])([H:10])[H:11])([H:7])([H:8])[H:9]>>[C:1]([C:2]([O:3][C:4]([H:12])([H:13])[H:15])([H:10])[H:11])([H:7])([H:8])[H:9].[C:5]([O:6][H:16])[H:14]"
C       -2.17010920      -0.72096311       0.05732829
C       -1.01558140      -0.12180520      -0.70710757
O       -0.18774183       0.58699132       0.20158387
C        0.93408010       1.15407936      -0.35424944
C        2.43435474      -0.15124721       0.62398227
O        1.66305767      -1.21507950       0.91448375
H       -1.81646747      -1.45714736       0.78029817
H       -2.85477557      -1.22148285      -0.62890435
H       -2.72419394       0.05072407       0.59342334
H       -1.37825254       0.57729376      -1.47201949
H       -0.41095405      -0.90122777      -1.18334472
H        1.15064712       2.10148535       0.13410533
H        0.88436264       1.31418970      -1.43850784
H        2.45239517       0.59169588       1.43485364
H        2.08150350       0.39574392      -0.49060215
H        0.95767506      -0.98325037       1.53467692
16
Frame=4 idx=004372 GeodesicLength=0.4216636622014309 rxn_smarts="[C:1]([C:2]([O:3][C:4]([C:5]([O:6][H:16])([H:14])[H:15])([H:12])[H:13])([H:10])[H:11])([H:7])([H:8])[H:9]>>[C:1]([C:2]([O:3][C:4]([H:12])([H:13])[H:15])([H:10])[H:11])([H:7])([H:8])[H:9].[C:5]([O:6][H:16])[H:14]"
C       -2.17852044      -0.72037810       0.05958723
C       -1.03609867      -0.11381788      -0.71729388
O       -0.16389684       0.53703695       0.19072308
C        0.94738751       1.12104652      -0.37364837
C        2.45474086      -0.11319312       0.67914860
O        1.71912633      -1.20903352       0.94260589
H       -1.81910289      -1.49645819       0.73650993
H       -2.89811145      -1.17339553      -0.62392339
H       -2.69561072       0.03818232       0.64880948
H       -1.40830068       0.62452474      -1.43960528
H       -0.46001381      -0.88504149      -1.24051296
H        1.12440370       2.09237266       0.08439959
H        0.90754812       1.25422404      -1.46194748
H        2.41153031       0.63234156       1.48764985
H        2.13206260       0.40835820      -0.48095815
H        0.96285607      -0.99676917       1.50845585
16
Frame=5 idx=004372 GeodesicLength=0.5244659606750546 rxn_smarts="[C:1]([C:2]([O:3][C:4]([C:5]([O:6][H:16])([H:14])[H:15])([H:12])[H:13])([H:10])[H:11])([H:7])([H:8])[H:9]>>[C:1]([C:2]([O:3][C:4]([H:12])([H:13])[H:15])([H:10])[H:11])([H:7])([H:8])[H:9].[C:5]([O:6][H:16])[H:14]"
C       -2.18674574      -0.71973415       0.06153960
C       -1.05717262      -0.10405667      -0.72709158
O       -0.13925598       0.48301012       0.17692306
C        0.96164809       1.08503679      -0.39385767
C        2.47197552      -0.07213811       0.73565799
O        1.77723002      -1.19979693       0.97542687
H       -1.82374588      -1.53532829       0.68825850
H       -2.94117281      -1.12249266      -0.61586549
H       -2.66386497       0.02152730       0.70416805
H       -1.43625207       0.67489727      -1.40162314
H       -0.51373526      -0.86366515      -1.30034877
H        1.09684701       2.07838033       0.03193114
H        0.93296132       1.18910878      -1.48568575
H        2.36536912       0.67428811       1.53842436
H        2.18299052       0.42289221      -0.46946862
H        0.97292375      -1.01192895       1.48161144
16
Frame=6 idx=004372 GeodesicLength=0.6253827768472948 rxn_smarts="[C:1]([C:2]([O:3][C:4]([C:5]([O:6][H:16])([H:14])[H:15])([H:12])[H:13])([H:10])[H:11])([H:7])([H:8])[H:9]>>[C:1]([C:2]([O:3][C:4]([H:12])([H:13])[H:15])([H:10])[H:11])([H:7])([H:8])[H:9].[C:5]([O:6][H:16])[H:14]"
C       -2.19444432      -0.71912624       0.06321392
C       -1.07834417      -0.09239941      -0.73606002
O       -0.11382196       0.42474526       0.15979938
C        0.97692204       1.04608115      -0.41492680
C        2.48514587      -0.02819367       0.79297719
O        1.83624978      -1.18693455       1.01302232
H       -1.83042288      -1.57337109       0.63550058
H       -2.98320031      -1.06904882      -0.60437928
H       -2.62876765       0.00021474       0.75896646
H       -1.46114866       0.72798185      -1.35728339
H       -0.57200005      -0.83603036      -1.36222521
H        1.06846203       2.05914751      -0.02333067
H        0.96058173       1.11884518      -1.50955466
H        2.31335403       0.71709134       1.58645933
H        2.23364449       0.43946127      -0.45642032
H        0.98779004      -1.02846416       1.45424118
16
Frame=7 idx=004372 GeodesicLength=0.7238364037758972 rxn_smarts="[C:1]([C:2]([O:3][C:4]([C:5]([O:6][H:16])([H:14])[H:15])([H:12])[H:13])([H:10])[H:11])([H:7])([H:8])[H:9]>>[C:1]([C:2]([O:3][C:4]([H:12])([H:13])[H:15])([H:10])[H:11])([H:7])([H:8])[H:9].[C:5]([O:6][H:16])[H:14]"
C       -2.20110059      -0.71875301       0.06469702
C       -1.09897573      -0.07876554      -0.74367090
O       -0.08768465       0.36250848       0.13895353
C        0.99327367       1.00445985      -0.43694853
C        2.49311553       0.01823335       0.85040800
O        1.89437262      -1.17009492       1.05529909
H       -1.83892573      -1.61029775       0.57826377
H       -3.02324924      -1.01349430      -0.58911464
H       -2.59004989      -0.02643456       0.81278709
H       -1.48195906       0.78305137      -1.30588588
H       -0.63429863      -0.80099652      -1.42513409
H        1.04006092       2.03460250      -0.08140894
H        0.99036046       1.04373454      -1.53344026
H        2.25496943       0.76010677       1.63089436
H        2.28321521       0.45797787      -0.44226947
H        1.00687568      -1.04583812       1.42656985
16
Frame=8 idx=004372 GeodesicLength=0.8191314533408196 rxn_smarts="[C:1]([C:2]([O:3][C:4]([C:5]([O:6][H:16])([H:14])[H:15])([H:12])[H:13])([H:10])[H:11])([H:7])([H:8])[H:9]>>[C:1]([C:2]([O:3][C:4]([H:12])([H:13])[H:15])([H:10])[H:11])([H:7])([H:8])[H:9].[C:5]([O:6][H:16])[H:14]"
C       -2.20601802      -0.71890138       0.06609844
C       -1.11823950      -0.06315886      -0.74926348
O       -0.06108418       0.29718731       0.11417001
C        1.01070725       0.96075900      -0.45994470
C        2.49461753       0.06627314       0.90691864
O        1.94902169      -1.14914773       1.10174473
H       -1.84875843      -1.64569707       0.51691754
H       -3.06001007      -0.95668241      -0.56981711
H       -2.54757597      -0.05907155       0.86499066
H       -1.49763589       0.83898183      -1.24695116
H       -0.69956995      -0.75749976      -1.48750093
H        1.01273922       2.00505149      -0.14219426
H        1.02209409       0.96454196      -1.55712365
H        2.18999262       0.80241692       1.67059763
H        2.33071537       0.47803922      -0.42769377
H        1.02900421      -1.06309212       1.39905143
16
Frame=9 idx=004372 GeodesicLength=0.9113619157334585 rxn_smarts="[C:1]([C:2]([O:3][C:4]([C:5]([O:6][H:16])([H:14])[H:15])([H:12])[H:13])([H:10])[H:11])([H:7])([H:8])[H:9]>>[C:1]([C:2]([O:3][C:4]([H:12])([H:13])[H:15])([H:10])[H:11])([H:7])([H:8])[H:9].[C:5]([O:6][H:16])[H:14]"
C       -2.20854670      -0.71993398       0.06758242
C       -1.13540977      -0.04556488      -0.75222902
O       -0.03426348       0.22995876       0.08528645
C        1.02933444       0.91549335      -0.48420519
C        2.48853477       0.11538881       0.96189794
O        1.99776351      -1.12402998       1.15211350
H       -1.85934428      -1.67956952       0.45112854
H       -3.09268093      -0.89906444      -0.54599528
H       -2.50086617      -0.09873528       0.91555910
H       -1.50746718       0.89479914      -1.17982922
H       -0.76669134      -0.70450413      -1.54764061
H        0.98794589       1.97106251      -0.20615299
H        1.05572186       0.88160930      -1.58068237
H        2.11793128       0.84368249       1.70477941
H        2.37549342       0.49896994      -0.41320003
H        1.05254469      -1.07956210       1.37158736
16
Frame=10 idx=004372 GeodesicLength=1.0006754012743857 rxn_smarts="[C:1]([C:2]([O:3][C:4]([C:5]([O:6][H:16])([H:14])[H:15])([H:12])[H:13])([H:10])[H:11])([H:7])([H:8])[H:9]>>[C:1]([C:2]([O:3][C:4]([H:12])([H:13])[H:15])([H:10])[H:11])([H:7])([H:8])[H:9].[C:5]([O:6][H:16])[H:14]"
C       -2.20822711      -0.72208513       0.06925202
C       -1.14966422      -0.02623733      -0.75183503
O       -0.00767923       0.16254830       0.05278883
C        1.04902715       0.86954767      -0.50966224
C        2.47416445       0.16458301       1.01420744
O        2.03809235      -1.09514254       1.20527241
H       -1.87018763      -1.71103878       0.38190541
H       -3.12002705      -0.84214352      -0.51765536
H       -2.45061696      -0.14548977       0.96330104
H       -1.51068634       0.94886556      -1.10468737
H       -0.83387722      -0.64175197      -1.60313150
H        0.96697275       1.93362743      -0.27303840
H        1.09068168       0.79611660      -1.60383103
H        2.03919666       0.88309474       1.73250949
H        2.41686637       0.52004868      -0.39958365
H        1.07596435      -1.09454294       1.34418792
16
Frame=11 idx=004372 GeodesicLength=1.0879003977445307 rxn_smarts="[C:1]([C:2]([O:3][C:4]([C:5]([O:6][H:16])([H:14])[H:15])([H:12])[H:13])([H:10])[H:11])([H:7])([H:8])[H:9]>>[C:1]([C:2]([O:3][C:4]([H:12])([H:13])[H:15])([H:10])[H:11])([H:7])([H:8])[H:9].[C:5]([O:6][H:16])[H:14]"
C       -2.20488548      -0.72545456       0.07108482
C       -1.16045341      -0.00549960      -0.74751054
O        0.01827645       0.09642346       0.01737677
C        1.06966801       0.82352293      -0.53627234
C        2.45122991       0.21326427       1.06306138
O        2.06831758      -1.06284463       1.26046822
H       -1.88105291      -1.73943618       0.30966166
H       -3.14149808      -0.78686456      -0.48494301
H       -2.39735320      -0.19933425       1.00737152
H       -1.50686964       0.99974430      -1.02167337
H       -0.89954626      -0.56941713      -1.65168419
H        0.95076218       1.89367538      -0.34281601
H        1.12643637       0.70889103      -1.62633742
H        1.95429063       0.92050353       1.75308085
H        2.45452242       0.54047165      -0.38739093
H        1.09815544      -1.10764563       1.31652257
16
Frame=12 idx=004372 GeodesicLength=1.1740269981444225 rxn_smarts="[C:1]([C:2]([O:3][C:4]([C:5]([O:6][H:16])([H:14])[H:15])([H:12])[H:13])([H:10])[H:11])([H:7])([H:8])[H:9]>>[C:1]([C:2]([O:3][C:4]([H:12])([H:13])[H:15])([H:10])[H:11])([H:7])([H:8])[H:9].[C:5]([O:6][H:16])[H:14]"
C       -2.19878152      -0.73026494       0.07284259
C       -1.16744080       0.01628421      -0.73887283
O        0.04316852       0.03288741      -0.01977762
C        1.09104801       0.77799442      -0.56370259
C        2.42031411       0.26076909       1.10738475
O        2.08725739      -1.02761796       1.31637670
H       -1.89199890      -1.76447622       0.23512825
H       -3.15691364      -0.73408546      -0.44878359
H       -2.34251177      -0.26008886       1.04699348
H       -1.49575553       1.04636413      -0.93132945
H       -0.96204699      -0.48810324      -1.69153053
H        0.93969134       1.85201727      -0.41506915
H        1.16232531       0.62081731      -1.64777517
H        1.86488691       0.95582908       1.76583739
H        2.48853067       0.55956923      -0.37742431
H        1.11822690      -1.11789547       1.28970208
16
Frame=13 idx=004372 GeodesicLength=1.2605549981243647 rxn_smarts="[C:1]([C:2]([O:3][C:4]([C:5]([O:6][H:16])([H:14])[H:15])([H:12])[H:13])([H:10])[H:11])([H:7])([H:8])[H:9]>>[C:1]([C:2]([O:3][C:4]([H:12])([H:13])[H:15])([H:10])[H:11])([H:7])([H:8])[H:9].[C:5]([O:6][H:16])[H:14]"
C       -2.19021230      -0.73595737       0.07445235
C       -1.17044343       0.03849502      -0.72576593
O        0.06701275      -0.02818512      -0.05826098
C        1.11297887       0.73284843      -0.59190633
C        2.38148021       0.30762728       1.14723597
O        2.09526198      -0.98938349       1.37297985
H       -1.90363688      -1.78508519       0.15827863
H       -3.16665656      -0.68347947      -0.40912594
H       -2.28618425      -0.32695928       1.08144049
H       -1.47691693       1.08744944      -0.83390012
H       -1.02056922      -0.39899614      -1.72099110
H        0.93329968       1.80878145      -0.48958759
H        1.19793952       0.53229805      -1.66799889
H        1.77056095       0.98965251       1.77065764
H        2.51906297       0.57723455      -0.36943999
H        1.13702265      -1.12634067       1.26193194
16
Frame=14 idx=004372 GeodesicLength=1.3485327411480632 rxn_smarts="[C:1]([C:2]([O:3][C:4]([C:5]([O:6][H:16])([H:14])[H:15])([H:12])[H:13])([H:10])[H:11])([H:7])([H:8])[H:9]>>[C:1]([C:2]([O:3][C:4]([H:12])([H:13])[H:15])([H:10])[H:11])([H:7])([H:8])[H:9].[C:5]([O:6][H:16])[H:14]"
C       -2.17983347      -0.74242098       0.07573537
C       -1.16931459       0.06049479      -0.70827304
O        0.08965552      -0.08658482      -0.09719900
C        1.13521573       0.68849396      -0.62038702
C        2.33583607       0.35348540       1.18183231
O        2.09234874      -0.94870245       1.42856164
H       -1.91649385      -1.80090869       0.08033837
H       -3.17105267      -0.63539292      -0.36700784
H       -2.23016421      -0.39884618       1.11013485
H       -1.45006328       1.12200514      -0.73066047
H       -1.07379181      -0.30370947      -1.73928030
H        0.93075736       1.76434252      -0.56521565
H        1.23281000       0.44454664      -1.68666027
H        1.67302180       1.02178530       1.76752078
H        2.54651793       0.59371343      -0.36394611
H        1.15455071      -1.13230166       1.23450637
16
Frame=15 idx=004372 GeodesicLength=1.4392646689358868 rxn_smarts="[C:1]([C:2]([O:3][C:4]([C:5]([O:6][H:16])([H:14])[H:15])([H:12])[H:13])([H:10])[H:11])([H:7])([H:8])[H:9]>>[C:1]([C:2]([O:3][C:4]([H:12])([H:13])[H:15])([H:10])[H:11])([H:7])([H:8])[H:9].[C:5]([O:6][H:16])[H:14]"
C       -2.16792056      -0.74918863       0.07668684
C       -1.16394277       0.08165541      -0.68659589
O        0.11127160      -0.14287842      -0.13656483
C        1.15759202       0.64491726      -0.64896294
C        2.28375122       0.39851087       1.21110619
O        2.07893440      -0.90577578       1.48228608
H       -1.93094725      -1.81124334       0.00181099
H       -3.17044036      -0.58932057      -0.32249304
H       -2.17481647      -0.47480550       1.13275729
H       -1.41487262       1.14903428      -0.62247004
H       -1.12108879      -0.20366711      -1.74581055
H        0.93088717       1.71858956      -0.64124479
H        1.26687109       0.35830918      -1.70371253
H        1.57235134       1.05224597       1.75650656
H        2.57117251       0.60945492      -0.36073638
H        1.17119749      -1.13583810       1.20743702
16
Frame=16 idx=004372 GeodesicLength=1.5343657595387314 rxn_smarts="[C:1]([C:2]([O:3][C:4]([C:5]([O:6][H:16])([H:14])[H:15])([H:12])[H:13])([H:10])[H:11])([H:7])([H:8])[H:9]>>[C:1]([C:2]([O:3][C:4]([H:12])([H:13])[H:15])([H:10])[H:11])([H:7])([H:8])[H:9].[C:5]([O:6][H:16])[H:14]"
C       -2.15460732      -0.75571336       0.07765687
C       -1.15414182       0.10122847      -0.66122959
O        0.13211250      -0.19761377      -0.17671491
C        1.18006330       0.60237419      -0.67749175
C        2.22526697       0.44264306       1.23515551
O        2.05519484      -0.86116219       1.53313086
H       -1.94736751      -1.81546442      -0.07614429
H       -3.16500180      -0.54477061      -0.27521158
H       -2.12021147      -0.55343609       1.14936895
H       -1.37100072       1.16756408      -0.51099144
H       -1.16184514      -0.10094795      -1.74044755
H        0.93253272       1.67170405      -0.71670976
H        1.30045073       0.27480961      -1.71935981
H        1.46822366       1.08061860       1.73792122
H        2.59325457       0.62534533      -0.35941274
H        1.18707648      -1.13717898       1.18048002
