11
Frame=0 idx=009177 GeodesicLength=0.0 rxn_smarts="[O:1]=[c:2]1[c:3]([H:8])[c:4]([H:9])[n:5]([H:10])[c:6]([H:11])[n:7]1>>[H:10][H:11].[O:1]=[C:2]1[C:3]([H:8])=[C:4]([H:9])[N:5]=[C:6]=[N:7]1"
O        2.23514654      -1.41275784       0.01331187
C        1.21409868      -0.76814527       0.00736078
C        1.14479740       0.69366276      -0.03752487
C       -0.03881479       1.35645785      -0.04248833
N       -1.24854878       0.71184902      -0.00566482
C       -1.03036297      -0.56359164       0.03187664
N       -0.05923893      -1.39479905       0.04511444
H        2.08265731       1.23186195      -0.06638159
H       -0.08815872       2.43817826      -0.07608478
H       -2.09993023      -1.13230523       0.50078287
H       -2.11164547      -1.16041085      -0.37030217
11
Frame=1 idx=009177 GeodesicLength=0.11057429671175456 rxn_smarts="[O:1]=[c:2]1[c:3]([H:8])[c:4]([H:9])[n:5]([H:10])[c:6]([H:11])[n:7]1>>[H:10][H:11].[O:1]=[C:2]1[C:3]([H:8])=[C:4]([H:9])[N:5]=[C:6]=[N:7]1"
O        2.24913534      -1.40614223       0.02624001
C        1.22534305      -0.76743141       0.00579933
C        1.14806160       0.69470329      -0.03095758
C       -0.03862809       1.35059722      -0.02858739
N       -1.24542681       0.69699982       0.00227459
C       -1.01756619      -0.57737601      -0.01397664
N       -0.04711678      -1.40326864       0.03175627
H        2.08255988       1.23761388      -0.07387882
H       -0.09626655       2.43136938      -0.07467231
H       -2.11942215      -1.09203203       0.51916805
H       -2.14067329      -1.16503324      -0.36316550
11
Frame=2 idx=009177 GeodesicLength=0.221140144500225 rxn_smarts="[O:1]=[c:2]1[c:3]([H:8])[c:4]([H:9])[n:5]([H:10])[c:6]([H:11])[n:7]1>>[H:10][H:11].[O:1]=[C:2]1[C:3]([H:8])=[C:4]([H:9])[N:5]=[C:6]=[N:7]1"
O        2.26209161      -1.39961928       0.04529375
C        1.23630371      -0.76678996       0.00196267
C        1.15103913       0.69544619      -0.03103252
C       -0.03864827       1.34424155      -0.01568402
N       -1.24188975       0.68098093       0.01144025
C       -1.00530889      -0.59072184      -0.05559696
N       -0.03538234      -1.41110119       0.01533107
H        2.08212196       1.24324766      -0.08167964
H       -0.10503301       2.42404026      -0.07007293
H       -2.13769756      -1.05241753       0.53611338
H       -2.16759659      -1.16730681      -0.35607506
11
Frame=3 idx=009177 GeodesicLength=0.33167198555850275 rxn_smarts="[O:1]=[c:2]1[c:3]([H:8])[c:4]([H:9])[n:5]([H:10])[c:6]([H:11])[n:7]1>>[H:10][H:11].[O:1]=[C:2]1[C:3]([H:8])=[C:4]([H:9])[N:5]=[C:6]=[N:7]1"
O        2.27431089      -1.39326803       0.06336950
C        1.24709590      -0.76614427      -0.00265005
C        1.15387205       0.69609756      -0.03262151
C       -0.03875830       1.33752668      -0.00384446
N       -1.23796684       0.66410638       0.02149245
C       -0.99344820      -0.60360589      -0.09191603
N       -0.02379894      -1.41846593      -0.00209833
H        2.08162038       1.24895852      -0.08647805
H       -0.11432370       2.41613837      -0.06752748
H       -2.15631489      -1.01343753       0.55170491
H       -2.19228835      -1.16790585      -0.34943096
11
Frame=4 idx=009177 GeodesicLength=0.4421811942945719 rxn_smarts="[O:1]=[c:2]1[c:3]([H:8])[c:4]([H:9])[n:5]([H:10])[c:6]([H:11])[n:7]1>>[H:10][H:11].[O:1]=[C:2]1[C:3]([H:8])=[C:4]([H:9])[N:5]=[C:6]=[N:7]1"
O        2.28569300      -1.38682901       0.08374548
C        1.25788837      -0.76550034      -0.00913825
C        1.15662457       0.69669963      -0.03625355
C       -0.03884301       1.33050878       0.00700419
N       -1.23361552       0.64653971       0.03251354
C       -0.98188594      -0.61609697      -0.12404198
N       -0.01212536      -1.42557074      -0.02197726
H        2.08110957       1.25472742      -0.09038551
H       -0.12398169       2.40781295      -0.06499938
H       -2.17538495      -0.97510307       0.56652589
H       -2.21547902      -1.16718837      -0.34299318
11
Frame=5 idx=009177 GeodesicLength=0.5526791328618382 rxn_smarts="[O:1]=[c:2]1[c:3]([H:8])[c:4]([H:9])[n:5]([H:10])[c:6]([H:11])[n:7]1>>[H:10][H:11].[O:1]=[C:2]1[C:3]([H:8])=[C:4]([H:9])[N:5]=[C:6]=[N:7]1"
O        2.29644492      -1.38031583       0.10431584
C        1.26878847      -0.76479247      -0.01567892
C        1.15935829       0.69731687      -0.03985314
C       -0.03888622       1.32323240       0.01736661
N       -1.22885247       0.62836577       0.04399382
C       -0.97043625      -0.62831402      -0.15274890
N       -0.00015791      -1.43250238      -0.04336785
H        2.08050845       1.26051105      -0.09457081
H       -0.13395305       2.39906135      -0.06287534
H       -2.19542660      -0.93692357       0.58044387
H       -2.23738763      -1.16563916      -0.33702518
11
Frame=6 idx=009177 GeodesicLength=0.6631725808871224 rxn_smarts="[O:1]=[c:2]1[c:3]([H:8])[c:4]([H:9])[n:5]([H:10])[c:6]([H:11])[n:7]1>>[H:10][H:11].[O:1]=[C:2]1[C:3]([H:8])=[C:4]([H:9])[N:5]=[C:6]=[N:7]1"
O        2.30676973      -1.37372997       0.12447170
C        1.27987297      -0.76400105      -0.02153693
C        1.16210226       0.69795738      -0.04279663
C       -0.03890139       1.31569293       0.02742637
N       -1.22372130       0.60958687       0.05555040
C       -0.95893691      -0.64040409      -0.17872503
N        0.01226637      -1.43931561      -0.06562058
H        2.07976601       1.26632289      -0.09992417
H       -0.14419696       2.38989481      -0.06063530
H       -2.21679121      -0.89838811       0.59337530
H       -2.25822957      -1.16361605      -0.33158515
11
Frame=7 idx=009177 GeodesicLength=0.7736663698866353 rxn_smarts="[O:1]=[c:2]1[c:3]([H:8])[c:4]([H:9])[n:5]([H:10])[c:6]([H:11])[n:7]1>>[H:10][H:11].[O:1]=[C:2]1[C:3]([H:8])=[C:4]([H:9])[N:5]=[C:6]=[N:7]1"
O        2.31684712      -1.36712050       0.14345827
C        1.29118656      -0.76311409      -0.02703509
C        1.16486388       0.69861383      -0.04516110
C       -0.03892253       1.30787610       0.03697373
N       -1.21822799       0.59016723       0.06710863
C       -0.94731586      -0.65250298      -0.20249139
N        0.02524769      -1.44604078      -0.08862465
H        2.07892491       1.27224730      -0.10473775
H       -0.15477613       2.38024830      -0.05904543
H       -2.23952553      -0.85900034       0.60570130
H       -2.27830213      -1.16137408      -0.32614653
11
Frame=8 idx=009177 GeodesicLength=0.8841779052087941 rxn_smarts="[O:1]=[c:2]1[c:3]([H:8])[c:4]([H:9])[n:5]([H:10])[c:6]([H:11])[n:7]1>>[H:10][H:11].[O:1]=[C:2]1[C:3]([H:8])=[C:4]([H:9])[N:5]=[C:6]=[N:7]1"
O        2.32686556      -1.36053190       0.16099279
C        1.30278358      -0.76212442      -0.03234754
C        1.16765362       0.69929578      -0.04691015
C       -0.03898828       1.29975261       0.04601980
N       -1.21236661       0.57003014       0.07864901
C       -0.93549013      -0.66473853      -0.22446738
N        0.03887267      -1.45269798      -0.11221809
H        2.07799335       1.27834010      -0.10848688
H       -0.16576156       2.37005666      -0.05829546
H       -2.26378027      -0.81827030       0.61747595
H       -2.29778193      -1.15911216      -0.32041204
11
Frame=9 idx=009177 GeodesicLength=0.994684653435099 rxn_smarts="[O:1]=[c:2]1[c:3]([H:8])[c:4]([H:9])[n:5]([H:10])[c:6]([H:11])[n:7]1>>[H:10][H:11].[O:1]=[C:2]1[C:3]([H:8])=[C:4]([H:9])[N:5]=[C:6]=[N:7]1"
O        2.33699056      -1.35389986       0.17668220
C        1.31470910      -0.76106467      -0.03763026
C        1.17044539       0.69993073      -0.04797225
C       -0.03914812       1.29128146       0.05453553
N       -1.20613017       0.54908044       0.09030656
C       -0.92339661      -0.67723526      -0.24501023
N        0.05322460      -1.45932499      -0.13645397
H        2.07697260       1.28462908      -0.11032913
H       -0.17726074       2.35921805      -0.05888447
H       -2.28961081      -0.77564789       0.62874125
H       -2.31679580      -1.15696711      -0.31398523
11
Frame=10 idx=009177 GeodesicLength=1.1053211772106102 rxn_smarts="[O:1]=[c:2]1[c:3]([H:8])[c:4]([H:9])[n:5]([H:10])[c:6]([H:11])[n:7]1>>[H:10][H:11].[O:1]=[C:2]1[C:3]([H:8])=[C:4]([H:9])[N:5]=[C:6]=[N:7]1"
O        2.34733997      -1.34732123       0.19069975
C        1.32702680      -0.75990194      -0.04295586
C        1.17326659       0.70058693      -0.04830565
C       -0.03944659       1.28241829       0.06265685
N       -1.19945323       0.52711491       0.10217038
C       -0.91094747      -0.69007093      -0.26440346
N        0.06840056      -1.46589937      -0.16134751
H        2.07581891       1.29115178      -0.11059752
H       -0.18936647       2.34763806      -0.06053453
H       -2.31728548      -0.73054767       0.63927003
H       -2.33535359      -1.15516882      -0.30665247
11
Frame=11 idx=009177 GeodesicLength=1.2159158122890097 rxn_smarts="[O:1]=[c:2]1[c:3]([H:8])[c:4]([H:9])[n:5]([H:10])[c:6]([H:11])[n:7]1>>[H:10][H:11].[O:1]=[C:2]1[C:3]([H:8])=[C:4]([H:9])[N:5]=[C:6]=[N:7]1"
O        2.35812220      -1.34069240       0.20312667
C        1.33979740      -0.75859629      -0.04817934
C        1.17609262       0.70124367      -0.04773111
C       -0.03989738       1.27298492       0.07069090
N       -1.19232239       0.50398343       0.11441411
C       -0.89802484      -0.70335271      -0.28288675
N        0.08449115      -1.47242632      -0.18670458
H        2.07443325       1.29790840      -0.11015556
H       -0.20214286       2.33508708      -0.06276396
H       -2.34709346      -0.68229781       0.64842568
H       -2.35345568      -1.15384198      -0.29823605
11
Frame=12 idx=009177 GeodesicLength=1.3262277075933508 rxn_smarts="[O:1]=[c:2]1[c:3]([H:8])[c:4]([H:9])[n:5]([H:10])[c:6]([H:11])[n:7]1>>[H:10][H:11].[O:1]=[C:2]1[C:3]([H:8])=[C:4]([H:9])[N:5]=[C:6]=[N:7]1"
O        2.36928048      -1.33401680       0.21439956
C        1.35309884      -0.75722912      -0.05377058
C        1.17888946       0.70181087      -0.04658500
C       -0.04060017       1.26297241       0.07857047
N       -1.18468403       0.47946196       0.12706042
C       -0.88458457      -0.71724251      -0.30083130
N        0.10164569      -1.47897803      -0.21326412
H        2.07278065       1.30496728      -0.10835184
H       -0.21575759       2.32161503      -0.06542541
H       -2.37905237      -0.62985894       0.65576230
H       -2.37101640      -1.15350214      -0.28756451
11
Frame=13 idx=009177 GeodesicLength=1.4371134588183152 rxn_smarts="[O:1]=[c:2]1[c:3]([H:8])[c:4]([H:9])[n:5]([H:10])[c:6]([H:11])[n:7]1>>[H:10][H:11].[O:1]=[C:2]1[C:3]([H:8])=[C:4]([H:9])[N:5]=[C:6]=[N:7]1"
O        2.38125522      -1.32724575       0.22387056
C        1.36707091      -0.75576379      -0.05958720
C        1.18165476       0.70227918      -0.04466717
C       -0.04162730       1.25214916       0.08663190
N       -1.17646107       0.45321676       0.14039852
C       -0.87042937      -0.73187946      -0.31823266
N        0.12001439      -1.48559665      -0.24026286
H        2.07071577       1.31233519      -0.10582828
H       -0.23042180       2.30691109      -0.06803760
H       -2.41398383      -0.57185176       0.66026741
H       -2.38778769      -1.15455398      -0.27455261
11
Frame=14 idx=009177 GeodesicLength=1.547016780360359 rxn_smarts="[O:1]=[c:2]1[c:3]([H:8])[c:4]([H:9])[n:5]([H:10])[c:6]([H:11])[n:7]1>>[H:10][H:11].[O:1]=[C:2]1[C:3]([H:8])=[C:4]([H:9])[N:5]=[C:6]=[N:7]1"
O        2.39374113      -1.32029341       0.23232508
C        1.38180634      -0.75411478      -0.06650792
C        1.18434053       0.70267213      -0.04225603
C       -0.04297721       1.24027245       0.09495786
N       -1.16747162       0.42476365       0.15519221
C       -0.85562789      -0.74732362      -0.33541230
N        0.13970515      -1.49214051      -0.26919196
H        2.06823736       1.32015659      -0.10166156
H       -0.24633048       2.29057098      -0.07083512
H       -2.45169085      -0.50699105       0.66001234
H       -2.40373245      -1.15757243      -0.25662259
11
Frame=15 idx=009177 GeodesicLength=1.6572975956834406 rxn_smarts="[O:1]=[c:2]1[c:3]([H:8])[c:4]([H:9])[n:5]([H:10])[c:6]([H:11])[n:7]1>>[H:10][H:11].[O:1]=[C:2]1[C:3]([H:8])=[C:4]([H:9])[N:5]=[C:6]=[N:7]1"
O        2.40698466      -1.31312856       0.23871848
C        1.39734699      -0.75230406      -0.07456554
C        1.18682152       0.70286011      -0.03920503
C       -0.04484143       1.22710869       0.10396035
N       -1.15755177       0.39360129       0.17145276
C       -0.83991037      -0.76386440      -0.35255541
N        0.16093840      -1.49868741      -0.29998652
H        2.06502255       1.32842042      -0.09565334
H       -0.26378808       2.27236547      -0.07303636
H       -2.49319993      -0.43218791       0.65234288
H       -2.41782255      -1.16418364      -0.23147226
11
Frame=16 idx=009177 GeodesicLength=1.7673813623730386 rxn_smarts="[O:1]=[c:2]1[c:3]([H:8])[c:4]([H:9])[n:5]([H:10])[c:6]([H:11])[n:7]1>>[H:10][H:11].[O:1]=[C:2]1[C:3]([H:8])=[C:4]([H:9])[N:5]=[C:6]=[N:7]1"
O        2.42145362      -1.30577132       0.24205638
C        1.41395576      -0.75026896      -0.08448885
C        1.18902107       0.70278869      -0.03528666
C       -0.04739716       1.21216484       0.11439951
N       -1.14655322       0.35882994       0.19034898
C       -0.82327551      -0.78170753      -0.36970197
N        0.18392850      -1.50516499      -0.33336528
H        2.06088835       1.33726708      -0.08740667
H       -0.28331624       2.25171513      -0.07366984
H       -2.53967407      -0.34344783       0.63034173
H       -2.42903110      -1.17640505      -0.19322733
