13
Frame=0 idx=001425 GeodesicLength=0.0 rxn_smarts="[C:1](#[C:2][C:3]([N:4]1[C:5]([H:10])([H:11])[C:6]1([H:12])[H:13])([H:8])[H:9])[H:7]>>[C:1](/[C:2](=[C:3](\[N:4]1[C:5]([H:10])([H:11])[C:6]1([H:12])[H:13])[H:8])[H:9])[H:7]"
C        2.66100758      -0.63670423       0.03103873
C        1.71979554       0.24848650       0.05187188
C        0.54873983       0.84320435       0.52786997
N       -0.60597691       0.17057517       0.75230476
C       -1.05611297      -1.00250549       0.07096487
C       -1.84679449       0.26443726       0.02164751
H        3.16366314      -0.85656281      -0.90894110
H        0.50834673       1.91461073       0.69441747
H        1.36479951       0.97178558      -0.84518686
H       -1.39008007      -1.81696909       0.70124209
H       -0.49496642      -1.29521005      -0.81069177
H       -2.74527577       0.36533303       0.61792624
H       -1.82714574       0.82951909      -0.90446384
13
Frame=1 idx=001425 GeodesicLength=0.04710075042622967 rxn_smarts="[C:1](#[C:2][C:3]([N:4]1[C:5]([H:10])([H:11])[C:6]1([H:12])[H:13])([H:8])[H:9])[H:7]>>[C:1](/[C:2](=[C:3](\[N:4]1[C:5]([H:10])([H:11])[C:6]1([H:12])[H:13])[H:8])[H:9])[H:7]"
C        2.63989061      -0.65822505       0.03644496
C        1.72715097       0.25550740       0.05099214
C        0.54761054       0.85120294       0.50712929
N       -0.60076637       0.17044592       0.74610224
C       -1.05393302      -1.00148614       0.06447111
C       -1.84916314       0.26305941       0.02882915
H        3.18215173      -0.86688346      -0.88347930
H        0.50690849       1.91968366       0.69116544
H        1.36243171       0.98534417      -0.85302457
H       -1.37745915      -1.81969136       0.69540387
H       -0.50096017      -1.28894719      -0.82399459
H       -2.74140522       0.35846389       0.63538809
H       -1.84245698       0.83152581      -0.89542782
13
Frame=2 idx=001425 GeodesicLength=0.09400894339541951 rxn_smarts="[C:1](#[C:2][C:3]([N:4]1[C:5]([H:10])([H:11])[C:6]1([H:12])[H:13])([H:8])[H:9])[H:7]>>[C:1](/[C:2](=[C:3](\[N:4]1[C:5]([H:10])([H:11])[C:6]1([H:12])[H:13])[H:8])[H:9])[H:7]"
C        2.61974213      -0.67742346       0.04139135
C        1.73411893       0.26189193       0.04895628
C        0.54658026       0.85854797       0.48584577
N       -0.59538865       0.16999104       0.73958545
C       -1.05233565      -1.00050974       0.05769637
C       -1.85154473       0.26184094       0.03641182
H        3.20194910      -0.87749536      -0.85535585
H        0.50593609       1.92374475       0.68802182
H        1.35951377       0.99880799      -0.86182805
H       -1.36536010      -1.82243608       0.68914589
H       -0.50813801      -1.28272852      -0.83778675
H       -2.73707776       0.35192627       0.65361496
H       -1.85799538       0.83384227      -0.88569905
13
Frame=3 idx=001425 GeodesicLength=0.1407421924566562 rxn_smarts="[C:1](#[C:2][C:3]([N:4]1[C:5]([H:10])([H:11])[C:6]1([H:12])[H:13])([H:8])[H:9])[H:7]>>[C:1](/[C:2](=[C:3](\[N:4]1[C:5]([H:10])([H:11])[C:6]1([H:12])[H:13])[H:8])[H:9])[H:7]"
C        2.60038774      -0.69476722       0.04552352
C        1.74068542       0.26763290       0.04581112
C        0.54565461       0.86522392       0.46421331
N       -0.58989237       0.16923755       0.73281107
C       -1.05132360      -0.99960698       0.05078841
C       -1.85386213       0.26078168       0.04426477
H        3.22304112      -0.88785986      -0.82478238
H        0.50545782       1.92675568       0.68510569
H        1.35597879       1.01226905      -0.87144879
H       -1.35393112      -1.82514507       0.68265849
H       -0.51639606      -1.27671516      -0.85179273
H       -2.73230122       0.34583026       0.67231114
H       -1.87349899       0.83636326      -0.87546362
13
Frame=4 idx=001425 GeodesicLength=0.18728619818411377 rxn_smarts="[C:1](#[C:2][C:3]([N:4]1[C:5]([H:10])([H:11])[C:6]1([H:12])[H:13])([H:8])[H:9])[H:7]>>[C:1](/[C:2](=[C:3](\[N:4]1[C:5]([H:10])([H:11])[C:6]1([H:12])[H:13])[H:8])[H:9])[H:7]"
C        2.58199877      -0.71007900       0.04899532
C        1.74695539       0.27311019       0.04182776
C        0.54482157       0.87144897       0.44251201
N       -0.58425569       0.16825410       0.72583930
C       -1.05060594      -0.99880728       0.04380000
C       -1.85595593       0.25976901       0.05219398
H        3.24377737      -0.89889178      -0.79249479
H        0.50529686       1.92892096       0.68261186
H        1.35186174       1.02612909      -0.88157351
H       -1.34292623      -1.82784925       0.67598602
H       -0.52524031      -1.27093184      -0.86583457
H       -2.72705376       0.34000088       0.69109117
H       -1.88867383       0.83892595      -0.86495453
13
Frame=5 idx=001425 GeodesicLength=0.2335923606667231 rxn_smarts="[C:1](#[C:2][C:3]([N:4]1[C:5]([H:10])([H:11])[C:6]1([H:12])[H:13])([H:8])[H:9])[H:7]>>[C:1](/[C:2](=[C:3](\[N:4]1[C:5]([H:10])([H:11])[C:6]1([H:12])[H:13])[H:8])[H:9])[H:7]"
C        2.56498902      -0.72279422       0.05256179
C        1.75310346       0.27890357       0.03748309
C        0.54405309       0.87756768       0.42104674
N       -0.57842297       0.16714623       0.71872190
C       -1.04972830      -0.99812545       0.03673805
C       -1.85763271       0.25862132       0.05995932
H        3.26155317      -0.91225628      -0.75986129
H        0.50515517       1.93057583       0.68072590
H        1.34729412       1.04086946      -0.89177280
H       -1.33186688      -1.83059539       0.66910616
H       -0.53395727      -1.26532305      -0.87976957
H       -2.72130796       0.33410566       0.70950434
H       -1.90323192       0.84130463      -0.85444363
13
Frame=6 idx=001425 GeodesicLength=0.2797547420305078 rxn_smarts="[C:1](#[C:2][C:3]([N:4]1[C:5]([H:10])([H:11])[C:6]1([H:12])[H:13])([H:8])[H:9])[H:7]>>[C:1](/[C:2](=[C:3](\[N:4]1[C:5]([H:10])([H:11])[C:6]1([H:12])[H:13])[H:8])[H:9])[H:7]"
C        2.54824746      -0.73487100       0.05436602
C        1.75884061       0.28393405       0.03216898
C        0.54343606       0.88294658       0.39977158
N       -0.57260089       0.16578022       0.71153762
C       -1.04945758      -0.99758918       0.02990658
C       -1.85909827       0.25767314       0.06768933
H        3.28087450      -0.92390794      -0.72530279
H        0.50558274       1.93109732       0.67923990
H        1.34191419       1.05573555      -0.90236711
H       -1.32188207      -1.83317497       0.66247687
H       -0.54349411      -1.26030167      -0.89327996
H       -2.71521613       0.32897293       0.72769534
H       -1.91714651       0.84370497      -0.84390234
13
Frame=7 idx=001425 GeodesicLength=0.32569909013910936 rxn_smarts="[C:1](#[C:2][C:3]([N:4]1[C:5]([H:10])([H:11])[C:6]1([H:12])[H:13])([H:8])[H:9])[H:7]>>[C:1](/[C:2](=[C:3](\[N:4]1[C:5]([H:10])([H:11])[C:6]1([H:12])[H:13])[H:8])[H:9])[H:7]"
C        2.53260110      -0.74496627       0.05594649
C        1.76448474       0.28927222       0.02670312
C        0.54291297       0.88823388       0.37910508
N       -0.56667180       0.16434802       0.70435933
C       -1.04897342      -0.99723003       0.02326395
C       -1.86006065       0.25659224       0.07501546
H        3.29712304      -0.93722363      -0.69120216
H        0.50602659       1.93114917       0.67847744
H        1.33600560       1.07157176      -0.91269475
H       -1.31203385      -1.83571883       0.65601558
H       -0.55260723      -1.25573216      -0.90624208
H       -2.70875300       0.32395512       0.74501614
H       -1.93005411       0.84574850      -0.83376361
13
Frame=8 idx=001425 GeodesicLength=0.3715168639366429 rxn_smarts="[C:1](#[C:2][C:3]([N:4]1[C:5]([H:10])([H:11])[C:6]1([H:12])[H:13])([H:8])[H:9])[H:7]>>[C:1](/[C:2](=[C:3](\[N:4]1[C:5]([H:10])([H:11])[C:6]1([H:12])[H:13])[H:8])[H:9])[H:7]"
C        2.51747498      -0.75423539       0.05637648
C        1.76987980       0.29423360       0.02059797
C        0.54251910       0.89307339       0.35877750
N       -0.56070259       0.16271981       0.69714822
C       -1.04877241      -0.99700729       0.01677179
C       -1.86074432       0.25560195       0.08224644
H        3.31334087      -0.94995886      -0.65589768
H        0.50679207       1.93041910       0.67797512
H        1.32938595       1.08776762      -0.92318153
H       -1.30282851      -1.83820567       0.64967891
H       -0.56209166      -1.25158053      -0.91886971
H       -2.70195788       0.31938528       0.76202694
H       -1.94229540       0.84778698      -0.82365045
13
Frame=9 idx=001425 GeodesicLength=0.41712550200401444 rxn_smarts="[C:1](#[C:2][C:3]([N:4]1[C:5]([H:10])([H:11])[C:6]1([H:12])[H:13])([H:8])[H:9])[H:7]>>[C:1](/[C:2](=[C:3](\[N:4]1[C:5]([H:10])([H:11])[C:6]1([H:12])[H:13])[H:8])[H:9])[H:7]"
C        2.50339720      -0.76174432       0.05691315
C        1.77526109       0.29959331       0.01458822
C        0.54222671       0.89791377       0.33918879
N       -0.55463634       0.16107607       0.68999579
C       -1.04823349      -0.99694843       0.01052366
C       -1.86090890       0.25444443       0.08899327
H        3.32604190      -0.96437792      -0.62174965
H        0.50748370       1.92936202       0.67804890
H        1.32227119       1.10491087      -0.93318695
H       -1.29364146      -1.84062977       0.64359006
H       -0.57092382      -1.24787223      -0.93084780
H       -2.69486337       0.31487606       0.77801305
H       -1.95347440       0.84939615      -0.81407050
13
Frame=10 idx=001425 GeodesicLength=0.4626147836071949 rxn_smarts="[C:1](#[C:2][C:3]([N:4]1[C:5]([H:10])([H:11])[C:6]1([H:12])[H:13])([H:8])[H:9])[H:7]>>[C:1](/[C:2](=[C:3](\[N:4]1[C:5]([H:10])([H:11])[C:6]1([H:12])[H:13])[H:8])[H:9])[H:7]"
C        2.48987813      -0.76848535       0.05661984
C        1.78049187       0.30475537       0.00821035
C        0.54206520       0.90245152       0.32010865
N       -0.54853980       0.15929581       0.68287589
C       -1.04780072      -0.99703485       0.00447713
C       -1.86075507       0.25332359       0.09552380
H        3.33791337      -0.97859307      -0.58719332
H        0.50837974       1.92772028       0.67838382
H        1.31449705       1.12253077      -0.94309092
H       -1.28493532      -1.84300699       0.63770564
H       -0.57979508      -1.24459642      -0.94238169
H       -2.68752079       0.31072908       0.79346515
H       -1.96387858       0.85091026      -0.80470435
13
Frame=11 idx=001425 GeodesicLength=0.5080145719852694 rxn_smarts="[C:1](#[C:2][C:3]([N:4]1[C:5]([H:10])([H:11])[C:6]1([H:12])[H:13])([H:8])[H:9])[H:7]>>[C:1](/[C:2](=[C:3](\[N:4]1[C:5]([H:10])([H:11])[C:6]1([H:12])[H:13])[H:8])[H:9])[H:7]"
C        2.47666904      -0.77498786       0.05493359
C        1.78548114       0.30936361       0.00101480
C        0.54204230       0.90648980       0.30122971
N       -0.54239422       0.15725987       0.67569029
C       -1.04776026      -0.99720284      -0.00153033
C       -1.86042578       0.25235738       0.10214179
H        3.35070132      -0.99161221      -0.55065513
H        0.50965897       1.92531430       0.67864277
H        1.30591804       1.14029545      -0.95327455
H       -1.27688108      -1.84537049       0.63178028
H       -0.58928756      -1.24154909      -0.95381532
H       -2.67985609       0.30701213       0.80895208
H       -1.97386582       0.85262994      -0.79511000
13
Frame=12 idx=001425 GeodesicLength=0.5532588109297621 rxn_smarts="[C:1](#[C:2][C:3]([N:4]1[C:5]([H:10])([H:11])[C:6]1([H:12])[H:13])([H:8])[H:9])[H:7]>>[C:1](/[C:2](=[C:3](\[N:4]1[C:5]([H:10])([H:11])[C:6]1([H:12])[H:13])[H:8])[H:9])[H:7]"
C        2.46466203      -0.77963634       0.05441354
C        1.79063628       0.31471297      -0.00548436
C        0.54210906       0.91081302       0.28327136
N       -0.53614571       0.15534969       0.66865338
C       -1.04703924      -0.99754622      -0.00721811
C       -1.85951648       0.25110448       0.10809078
H        3.35835853      -1.00710804      -0.51699841
H        0.51060196       1.92299194       0.67933733
H        1.29703217       1.15908489      -0.96260406
H       -1.26845556      -1.84768730       0.62624550
H       -0.59755762      -1.23895595      -0.96445967
H       -2.67200115       0.30314941       0.82310628
H       -1.98268428       0.85372746      -0.78635355
13
Frame=13 idx=001425 GeodesicLength=0.5984041850557608 rxn_smarts="[C:1](#[C:2][C:3]([N:4]1[C:5]([H:10])([H:11])[C:6]1([H:12])[H:13])([H:8])[H:9])[H:7]>>[C:1](/[C:2](=[C:3](\[N:4]1[C:5]([H:10])([H:11])[C:6]1([H:12])[H:13])[H:8])[H:9])[H:7]"
C        2.45348882      -0.78319417       0.05427945
C        1.79583660       0.32028788      -0.01179399
C        0.54228516       0.91513780       0.26593001
N       -0.52983767       0.15343123       0.66169028
C       -1.04606257      -0.99802565      -0.01270352
C       -1.85823698       0.24974440       0.11367773
H        3.36340616      -1.02357872      -0.48457015
H        0.51146292       1.92050177       0.68018243
H        1.28769757       1.17848794      -0.97148981
H       -1.26005597      -1.84998478       0.62093204
H       -0.60531422      -1.23671475      -0.97461458
H       -2.66397684       0.29936084       0.83650022
H       -1.99069298       0.85454621      -0.77802011
13
Frame=14 idx=001425 GeodesicLength=0.6434726446445725 rxn_smarts="[C:1](#[C:2][C:3]([N:4]1[C:5]([H:10])([H:11])[C:6]1([H:12])[H:13])([H:8])[H:9])[H:7]>>[C:1](/[C:2](=[C:3](\[N:4]1[C:5]([H:10])([H:11])[C:6]1([H:12])[H:13])[H:8])[H:9])[H:7]"
C        2.44265618      -0.78655390       0.05331851
C        1.80090129       0.32546940      -0.01861979
C        0.54259212       0.91910676       0.24882943
N       -0.52347123       0.15131663       0.65468387
C       -1.04531064      -0.99857329      -0.01816213
C       -1.85676927       0.24848391       0.11928413
H        3.36865351      -1.03924134      -0.45095131
H        0.51258959       1.91746862       0.68088906
H        1.27765805       1.19806570      -0.98044722
H       -1.25209275      -1.85228550       0.61557297
H       -0.61343892      -1.23464014      -0.98467136
H       -2.65567925       0.29586479       0.84983374
H       -1.99828867       0.85551836      -0.76955990
13
Frame=15 idx=001425 GeodesicLength=0.6884829018689311 rxn_smarts="[C:1](#[C:2][C:3]([N:4]1[C:5]([H:10])([H:11])[C:6]1([H:12])[H:13])([H:8])[H:9])[H:7]>>[C:1](/[C:2](=[C:3](\[N:4]1[C:5]([H:10])([H:11])[C:6]1([H:12])[H:13])[H:8])[H:9])[H:7]"
C        2.43272291      -0.78883874       0.05331085
C        1.80606254       0.33090657      -0.02519197
C        0.54300257       0.92312746       0.23217713
N       -0.51699572       0.14920025       0.64768726
C       -1.04426133      -0.99921313      -0.02354125
C       -1.85496702       0.24709590       0.12463535
H        3.37114132      -1.05600080      -0.41861631
H        0.51357848       1.91439059       0.68148143
H        1.26721431       1.21810057      -0.98905650
H       -1.24395841      -1.85460670       0.61026225
H       -0.62110889      -1.23274504      -0.99444804
H       -2.64714758       0.29230119       0.86264832
H       -2.00528318       0.85628187      -0.76134853
13
Frame=16 idx=001425 GeodesicLength=0.7334414796283698 rxn_smarts="[C:1](#[C:2][C:3]([N:4]1[C:5]([H:10])([H:11])[C:6]1([H:12])[H:13])([H:8])[H:9])[H:7]>>[C:1](/[C:2](=[C:3](\[N:4]1[C:5]([H:10])([H:11])[C:6]1([H:12])[H:13])[H:8])[H:9])[H:7]"
C        2.42336155      -0.79066016       0.05341289
C        1.81120124       0.33616515      -0.03206357
C        0.54353319       0.92694644       0.21567450
N       -0.51040953       0.14693844       0.64059614
C       -1.04327422      -0.99989128      -0.02900550
C       -1.85296904       0.24572645       0.13003582
H        3.37291828      -1.07264976      -0.38571294
H        0.51468465       1.91100576       0.68174855
H        1.25617877       1.23829321      -0.99771787
H       -1.23594431      -1.85698576       0.60474020
H       -0.62899500      -1.23085459      -1.00427976
H       -2.63829605       0.28879245       0.87549945
H       -2.01198954       0.85717365      -0.75292790
