17
Frame=0 idx=009030 GeodesicLength=0.0 rxn_smarts="[C:1]([C@@:2]1([H:11])[C:3]([H:12])([H:13])[C:4]([H:14])=[C:5]([H:15])[C:6]([H:16])([H:17])[O:7]1)([H:8])([H:9])[H:10]>>[C:1]([C:2](=[C:3]([H:12])[H:13])[H:11])([H:8])([H:9])[H:10].[C:4](#[C:5][H:15])[H:14].[C:6](=[O:7])([H:16])[H:17]"
C       -2.18984478       0.21483877      -0.25933299
C       -1.16358106      -0.26741459       0.70642499
C       -0.43087582      -1.39599153       0.51311294
C        1.55175821      -1.15733656      -0.35728547
C        2.09180562      -0.05620208      -0.50091970
C        1.22984059       1.68551542      -0.02987140
O        0.09368410       1.62209824       0.46385691
H       -3.17852981      -0.12780020       0.06387955
H       -2.00802048      -0.17570060      -1.26179106
H       -2.20584221       1.30228200      -0.29685097
H       -1.15077848       0.20061528       1.68016027
H       -0.67381409      -2.02712111      -0.33432848
H        0.03831908      -1.87395642       1.36373525
H        1.54377647      -2.22182594      -0.42996186
H        3.01840500       0.34539154      -0.86261435
H        2.08709117       1.92672656       0.62077223
H        1.34660642       2.00588127      -1.07898586
17
Frame=1 idx=009030 GeodesicLength=0.0996169777356091 rxn_smarts="[C:1]([C@@:2]1([H:11])[C:3]([H:12])([H:13])[C:4]([H:14])=[C:5]([H:15])[C:6]([H:16])([H:17])[O:7]1)([H:8])([H:9])[H:10]>>[C:1]([C:2](=[C:3]([H:12])[H:13])[H:11])([H:8])([H:9])[H:10].[C:4](#[C:5][H:15])[H:14].[C:6](=[O:7])([H:16])[H:17]"
C       -2.24235462       0.21466185      -0.21333574
C       -1.14979412      -0.25359559       0.68547708
C       -0.43342988      -1.39076185       0.46233154
C        1.59243817      -1.15210349      -0.30094672
C        2.15971561      -0.06341171      -0.44653604
C        1.24485341       1.68482931      -0.08529916
O        0.07802195       1.62309254       0.34023234
H       -3.20314421      -0.16852607       0.14558980
H       -2.09178770      -0.14131358      -1.23365741
H       -2.29926973       1.30169299      -0.21805720
H       -1.10987913       0.19582900       1.66830208
H       -0.66678350      -1.97601322      -0.42050342
H       -0.03424403      -1.93330975       1.31066415
H        1.57703179      -2.21465305      -0.40260837
H        3.10774376       0.32023625      -0.77013986
H        2.05270601       1.96737239       0.61048251
H        1.41817621       1.98597398      -1.13199558
17
Frame=2 idx=009030 GeodesicLength=0.18831849177964893 rxn_smarts="[C:1]([C@@:2]1([H:11])[C:3]([H:12])([H:13])[C:4]([H:14])=[C:5]([H:15])[C:6]([H:16])([H:17])[O:7]1)([H:8])([H:9])[H:10]>>[C:1]([C:2](=[C:3]([H:12])[H:13])[H:11])([H:8])([H:9])[H:10].[C:4](#[C:5][H:15])[H:14].[C:6](=[O:7])([H:16])[H:17]"
C       -2.28655939       0.21430799      -0.16730730
C       -1.13596243      -0.24086128       0.66470643
C       -0.43544798      -1.38574889       0.41299499
C        1.62720287      -1.14663447      -0.24450693
C        2.21660561      -0.06884283      -0.39535561
C        1.25635258       1.68121805      -0.14024691
O        0.06235877       1.61790011       0.21295307
H       -3.21940691      -0.20331262       0.22461473
H       -2.17012423      -0.11092834      -1.20222483
H       -2.37603411       1.29913301      -0.13961916
H       -1.06667173       0.19198589       1.65438307
H       -0.65748504      -1.92345106      -0.50288852
H       -0.10491305      -1.98731662       1.25168431
H        1.60750710      -2.20674219      -0.37298639
H        3.18470189       0.29856391      -0.67558347
H        2.01033645       2.00140861       0.59848022
H        1.48753958       1.96932073      -1.17909770
17
Frame=3 idx=009030 GeodesicLength=0.26787735612226315 rxn_smarts="[C:1]([C@@:2]1([H:11])[C:3]([H:12])([H:13])[C:4]([H:14])=[C:5]([H:15])[C:6]([H:16])([H:17])[O:7]1)([H:8])([H:9])[H:10]>>[C:1]([C:2](=[C:3]([H:12])[H:13])[H:11])([H:8])([H:9])[H:10].[C:4](#[C:5][H:15])[H:14].[C:6](=[O:7])([H:16])[H:17]"
C       -2.32170641       0.21489837      -0.12209666
C       -1.12186753      -0.22978787       0.64497142
C       -0.43705938      -1.38167862       0.36540447
C        1.65446278      -1.14073979      -0.19440847
C        2.26544710      -0.07249003      -0.33928926
C        1.26376708       1.67466555      -0.19429671
O        0.04770872       1.60568800       0.08691229
H       -3.22779799      -0.23146753       0.29911922
H       -2.24030052      -0.08261879      -1.16861365
H       -2.43556202       1.29646922      -0.06235633
H       -1.02284485       0.18705398       1.64000575
H       -0.64892076      -1.87224299      -0.57939181
H       -0.17021466      -2.03522300       1.18837418
H        1.63378307      -2.19825589      -0.34622229
H        3.25027250       0.28084634      -0.57623693
H        1.96106202       2.03509587       0.58079961
H        1.54977084       1.94978719      -1.22267483
17
Frame=4 idx=009030 GeodesicLength=0.34102157521860643 rxn_smarts="[C:1]([C@@:2]1([H:11])[C:3]([H:12])([H:13])[C:4]([H:14])=[C:5]([H:15])[C:6]([H:16])([H:17])[O:7]1)([H:8])([H:9])[H:10]>>[C:1]([C:2](=[C:3]([H:12])[H:13])[H:11])([H:8])([H:9])[H:10].[C:4](#[C:5][H:15])[H:14].[C:6](=[O:7])([H:16])[H:17]"
C       -2.34784052       0.21686617      -0.07910750
C       -1.10749192      -0.22049431       0.62688470
C       -0.43831480      -1.37888897       0.32063327
C        1.67550989      -1.13449697      -0.14970101
C        2.30556521      -0.07401562      -0.28242541
C        1.26747574       1.66561137      -0.24609046
O        0.03461314       1.58689301      -0.03388575
H       -3.22945407      -0.25334434       0.36678746
H       -2.30024383      -0.05527255      -1.13455503
H       -2.47886050       1.29464481       0.01193325
H       -0.98064838       0.17984174       1.62653673
H       -0.64171268      -1.82409438      -0.64866211
H       -0.22996439      -2.07738773       1.12393036
H        1.65665056      -2.18951371      -0.32125222
H        3.30391617       0.26726193      -0.47726763
H        1.90726836       2.06680959       0.55815369
H        1.60353202       1.92957995      -1.26191233
17
Frame=5 idx=009030 GeodesicLength=0.40964194508978746 rxn_smarts="[C:1]([C@@:2]1([H:11])[C:3]([H:12])([H:13])[C:4]([H:14])=[C:5]([H:15])[C:6]([H:16])([H:17])[O:7]1)([H:8])([H:9])[H:10]>>[C:1]([C:2](=[C:3]([H:12])[H:13])[H:11])([H:8])([H:9])[H:10].[C:4](#[C:5][H:15])[H:14].[C:6](=[O:7])([H:16])[H:17]"
C       -2.36556745       0.22027719      -0.03993719
C       -1.09316153      -0.21280602       0.61118392
C       -0.43910056      -1.37726962       0.28020483
C        1.69150353      -1.12783348      -0.10960017
C        2.33720883      -0.07363312      -0.23134203
C        1.26815160       1.65481912      -0.29400154
O        0.02340586       1.56282720      -0.14534350
H       -3.22602648      -0.26998978       0.42478912
H       -2.34809109      -0.02795536      -1.10218085
H       -2.50811922       1.29397108       0.08128573
H       -0.94304282       0.16954198       1.61565124
H       -0.63627177      -1.78072973      -0.70895240
H       -0.28409220      -2.11383154       1.06188482
H        1.67689413      -2.18097915      -0.29556008
H        3.34631013       0.25722216      -0.38534818
H        1.85208470       2.09377067       0.53286504
H        1.64791433       1.91259841      -1.29559877
17
Frame=6 idx=009030 GeodesicLength=0.475940367172358 rxn_smarts="[C:1]([C@@:2]1([H:11])[C:3]([H:12])([H:13])[C:4]([H:14])=[C:5]([H:15])[C:6]([H:16])([H:17])[O:7]1)([H:8])([H:9])[H:10]>>[C:1]([C:2](=[C:3]([H:12])[H:13])[H:11])([H:8])([H:9])[H:10].[C:4](#[C:5][H:15])[H:14].[C:6](=[O:7])([H:16])[H:17]"
C       -2.37668338       0.22504937      -0.00381714
C       -1.07854165      -0.20657888       0.59732753
C       -0.43956921      -1.37672486       0.24274276
C        1.70364512      -1.12073673      -0.07350752
C        2.36262708      -0.07165041      -0.18184255
C        1.26649276       1.64261912      -0.33885661
O        0.01382430       1.53452304      -0.24828589
H       -3.21884819      -0.28246857       0.47513721
H       -2.38647616       0.00005605      -1.07130216
H       -2.52630815       1.29431342       0.14710727
H       -0.90907373       0.15563617       1.60719785
H       -0.63279915      -1.74134089      -0.76263339
H       -0.33341899      -2.14561653       1.00164927
H        1.69479318      -2.17227003      -0.27066605
H        3.38006696       0.25000198      -0.29822797
H        1.79600711       2.11896231       0.50430125
H        1.68426211       1.89622543      -1.32632387
17
Frame=7 idx=009030 GeodesicLength=0.5404823674541689 rxn_smarts="[C:1]([C@@:2]1([H:11])[C:3]([H:12])([H:13])[C:4]([H:14])=[C:5]([H:15])[C:6]([H:16])([H:17])[O:7]1)([H:8])([H:9])[H:10]>>[C:1]([C:2](=[C:3]([H:12])[H:13])[H:11])([H:8])([H:9])[H:10].[C:4](#[C:5][H:15])[H:14].[C:6](=[O:7])([H:16])[H:17]"
C       -2.38221130       0.23068921       0.02712398
C       -1.06413558      -0.20061370       0.58550775
C       -0.43936967      -1.37666848       0.21126087
C        1.71283555      -1.11307121      -0.04153029
C        2.38311603      -0.06941648      -0.14974338
C        1.26312654       1.63015909      -0.37804430
O        0.00586884       1.50290169      -0.34403782
H       -3.20944657      -0.29136595       0.51583879
H       -2.41468078       0.02690765      -1.04412036
H       -2.53607358       1.29551553       0.20502703
H       -0.88109308       0.14081008       1.60126014
H       -0.63152422      -1.70880155      -0.80599102
H       -0.37749943      -2.17100620       0.94914730
H        1.71094591      -2.16488034      -0.23950228
H        3.40685577       0.24397224      -0.22741864
H        1.73829302       2.13171892       0.48249663
H        1.71499254       1.89314948      -1.34727441
17
Frame=8 idx=009030 GeodesicLength=0.6042923698609345 rxn_smarts="[C:1]([C@@:2]1([H:11])[C:3]([H:12])([H:13])[C:4]([H:14])=[C:5]([H:15])[C:6]([H:16])([H:17])[O:7]1)([H:8])([H:9])[H:10]>>[C:1]([C:2](=[C:3]([H:12])[H:13])[H:11])([H:8])([H:9])[H:10].[C:4](#[C:5][H:15])[H:14].[C:6](=[O:7])([H:16])[H:17]"
C       -2.38361892       0.23753564       0.05587761
C       -1.04955682      -0.19591233       0.57541668
C       -0.43889312      -1.37735295       0.18128187
C        1.72015034      -1.10488541      -0.01140216
C        2.40083293      -0.06592013      -0.11730366
C        1.25830521       1.61706830      -0.41529207
O       -0.00079403       1.46942709      -0.43041250
H       -3.19852411      -0.29793442       0.55029722
H       -2.43593141       0.05593827      -1.01854080
H       -2.53930023       1.29745536       0.26133836
H       -0.85706243       0.12119460       1.59837564
H       -0.63139831      -1.67842205      -0.84602788
H       -0.41900017      -2.19424867       0.89712698
H        1.72571050      -2.15732605      -0.20812542
H        3.42916174       0.23959287      -0.15983245
H        1.68244790       2.14549216       0.45592128
H        1.73747092       1.88829773      -1.36869869
17
Frame=9 idx=009030 GeodesicLength=0.6678895639569312 rxn_smarts="[C:1]([C@@:2]1([H:11])[C:3]([H:12])([H:13])[C:4]([H:14])=[C:5]([H:15])[C:6]([H:16])([H:17])[O:7]1)([H:8])([H:9])[H:10]>>[C:1]([C:2](=[C:3]([H:12])[H:13])[H:11])([H:8])([H:9])[H:10].[C:4](#[C:5][H:15])[H:14].[C:6](=[O:7])([H:16])[H:17]"
C       -2.38167347       0.24527861       0.08252058
C       -1.03468122      -0.19196801       0.56667629
C       -0.43807495      -1.37849613       0.15300220
C        1.72595557      -1.09616275       0.01671591
C        2.41628412      -0.06160063      -0.08782853
C        1.25237422       1.60358044      -0.45054690
O       -0.00646707       1.43438864      -0.51011999
H       -3.18645850      -0.30246112       0.57963586
H       -2.45150228       0.08617599      -0.99443628
H       -2.53729441       1.29985494       0.31540221
H       -0.83636099       0.09808652       1.59766960
H       -0.63253514      -1.65050366      -0.88252859
H       -0.45803461      -2.21491022       0.84657967
H        1.73918341      -2.14980212      -0.17522857
H        3.44783061       0.23644620      -0.09613372
H        1.62734604       2.15730263       0.42765704
H        1.75410868       1.88479067      -1.38903679
17
Frame=10 idx=009030 GeodesicLength=0.731649399488884 rxn_smarts="[C:1]([C@@:2]1([H:11])[C:3]([H:12])([H:13])[C:4]([H:14])=[C:5]([H:15])[C:6]([H:16])([H:17])[O:7]1)([H:8])([H:9])[H:10]>>[C:1]([C:2](=[C:3]([H:12])[H:13])[H:11])([H:8])([H:9])[H:10].[C:4](#[C:5][H:15])[H:14].[C:6](=[O:7])([H:16])[H:17]"
C       -2.37689975       0.25380330       0.10745288
C       -1.01936557      -0.18862195       0.55902012
C       -0.43693421      -1.38000827       0.12604948
C        1.73057961      -1.08691775       0.04281296
C        2.43001607      -0.05654161      -0.06104292
C        1.24552593       1.58978627      -0.48421189
O       -0.01132747       1.39802001      -0.58459145
H       -3.17346154      -0.30520471       0.60487776
H       -2.46238621       0.11748177      -0.97146884
H       -2.53089416       1.30255633       0.36761889
H       -0.81834500       0.07187329       1.59855861
H       -0.63497019      -1.62478394      -0.91610612
H       -0.49488663      -2.23319464       0.79736925
H        1.75139159      -2.14226805      -0.14091788
H        3.46344588       0.23438711      -0.03513064
H        1.57251078       2.16694858       0.39819271
H        1.76600086       1.88268428      -1.40848291
17
Frame=11 idx=009030 GeodesicLength=0.795293752447509 rxn_smarts="[C:1]([C@@:2]1([H:11])[C:3]([H:12])([H:13])[C:4]([H:14])=[C:5]([H:15])[C:6]([H:16])([H:17])[O:7]1)([H:8])([H:9])[H:10]>>[C:1]([C:2](=[C:3]([H:12])[H:13])[H:11])([H:8])([H:9])[H:10].[C:4](#[C:5][H:15])[H:14].[C:6](=[O:7])([H:16])[H:17]"
C       -2.36981678       0.26281163       0.13080434
C       -1.00384991      -0.18587304       0.55268559
C       -0.43540766      -1.38158021       0.10017768
C        1.73427339      -1.07709666       0.06783847
C        2.44239190      -0.05081817      -0.03614535
C        1.23816509       1.57578764      -0.51636764
O       -0.01561293       1.36156757      -0.65224843
H       -3.15999975      -0.30709055       0.62560866
H       -2.46866314       0.15023442      -0.94966741
H       -2.52140100       1.30497659       0.41871476
H       -0.80377683       0.04199291       1.60130095
H       -0.63817945      -1.60025597      -0.94739323
H       -0.53012641      -2.24949224       0.74873133
H        1.76244622      -2.13446075      -0.10496304
H        3.47668042       0.23303392       0.02297659
H        1.52016504       2.17596280       0.36642748
H        1.77271180       1.88030012      -1.42848076
17
Frame=12 idx=009030 GeodesicLength=0.8591565801107516 rxn_smarts="[C:1]([C@@:2]1([H:11])[C:3]([H:12])([H:13])[C:4]([H:14])=[C:5]([H:15])[C:6]([H:16])([H:17])[O:7]1)([H:8])([H:9])[H:10]>>[C:1]([C:2](=[C:3]([H:12])[H:13])[H:11])([H:8])([H:9])[H:10].[C:4](#[C:5][H:15])[H:14].[C:6](=[O:7])([H:16])[H:17]"
C       -2.36078679       0.27222301       0.15251655
C       -0.98805457      -0.18345741       0.54737008
C       -0.43353267      -1.38323173       0.07566549
C        1.73725365      -1.06671656       0.09125753
C        2.45406343      -0.04476371      -0.01460889
C        1.23037388       1.56180173      -0.54685353
O       -0.01931709       1.32472989      -0.71520722
H       -3.14623739      -0.30798246       0.64246942
H       -2.47102470       0.18380052      -0.92905497
H       -2.50932444       1.30711215       0.46811358
H       -0.79210922       0.00963803       1.60504596
H       -0.64247331      -1.57751686      -0.97604708
H       -0.56359092      -2.26348872       0.70180379
H        1.77221491      -2.12652115      -0.06682362
H        3.48813870       0.23194809       0.07714440
H        1.46870047       2.18253589       0.33480604
H        1.77570606       1.87988930      -1.44759752
17
Frame=13 idx=009030 GeodesicLength=0.9232533371238651 rxn_smarts="[C:1]([C@@:2]1([H:11])[C:3]([H:12])([H:13])[C:4]([H:14])=[C:5]([H:15])[C:6]([H:16])([H:17])[O:7]1)([H:8])([H:9])[H:10]>>[C:1]([C:2](=[C:3]([H:12])[H:13])[H:11])([H:8])([H:9])[H:10].[C:4](#[C:5][H:15])[H:14].[C:6](=[O:7])([H:16])[H:17]"
C       -2.35005381       0.28192303       0.17348158
C       -0.97182927      -0.18156396       0.54299172
C       -0.43133675      -1.38490589       0.05153514
C        1.73962963      -1.05588577       0.11327397
C        2.46477479      -0.03798485       0.00651919
C        1.22233438       1.54762087      -0.57665050
O       -0.02277772       1.28810367      -0.77342634
H       -3.13208842      -0.30830308       0.65650648
H       -2.47022890       0.21863195      -0.90874124
H       -2.49502455       1.30860795       0.51735714
H       -0.78258724      -0.02572965       1.60941054
H       -0.64774514      -1.55550351      -1.00334303
H       -0.59574464      -2.27582423       0.65489760
H        1.78080378      -2.11813478      -0.02820727
H        3.49747318       0.23175752       0.13173878
H        1.41925016       2.18900633       0.30068385
H        1.77515052       1.87818443      -1.46802761
17
Frame=14 idx=009030 GeodesicLength=0.9876895159691864 rxn_smarts="[C:1]([C@@:2]1([H:11])[C:3]([H:12])([H:13])[C:4]([H:14])=[C:5]([H:15])[C:6]([H:16])([H:17])[O:7]1)([H:8])([H:9])[H:10]>>[C:1]([C:2](=[C:3]([H:12])[H:13])[H:11])([H:8])([H:9])[H:10].[C:4](#[C:5][H:15])[H:14].[C:6](=[O:7])([H:16])[H:17]"
C       -2.33777046       0.29182142       0.19398188
C       -0.95509616      -0.18020558       0.53939073
C       -0.42885402      -1.38660207       0.02754675
C        1.74148963      -1.04467256       0.13372823
C        2.47446557      -0.03034989       0.02799298
C        1.21414497       1.53323611      -0.60596097
O       -0.02612989       1.25178953      -0.82759756
H       -3.11752683      -0.30816515       0.66822639
H       -2.46667244       0.25469755      -0.88839246
H       -2.47872682       1.30924767       0.56682221
H       -0.77471507      -0.06378665       1.61383227
H       -0.65410223      -1.53408671      -1.02955320
H       -0.62667504      -2.28655331       0.60789372
H        1.78822570      -2.10924623       0.01047824
H        3.50452755       0.23254251       0.18755644
H        1.37164816       2.19558324       0.26399587
H        1.77176737       1.87475013      -1.48994152
17
Frame=15 idx=009030 GeodesicLength=1.0524850537061277 rxn_smarts="[C:1]([C@@:2]1([H:11])[C:3]([H:12])([H:13])[C:4]([H:14])=[C:5]([H:15])[C:6]([H:16])([H:17])[O:7]1)([H:8])([H:9])[H:10]>>[C:1]([C:2](=[C:3]([H:12])[H:13])[H:11])([H:8])([H:9])[H:10].[C:4](#[C:5][H:15])[H:14].[C:6](=[O:7])([H:16])[H:17]"
C       -2.32409476       0.30182058       0.21406449
C       -0.93786641      -0.17933957       0.53649531
C       -0.42612746      -1.38834484       0.00378563
C        1.74296617      -1.03317080       0.15232400
C        2.48331368      -0.02197124       0.04930528
C        1.20593523       1.51873721      -0.63476714
O       -0.02940843       1.21584836      -0.87820638
H       -3.10264984      -0.30763877       0.67779017
H       -2.46054064       0.29180381      -0.86793084
H       -2.46072135       1.30887186       0.61646918
H       -0.76827816      -0.10397758       1.61791626
H       -0.66170837      -1.51343424      -1.05458066
H       -0.65644674      -2.29564590       0.56120225
H        1.79447967      -2.09991857       0.04911103
H        3.50923590       0.23433644       0.24482955
H        1.32581216       2.20199172       0.22530379
H        1.76609935       1.87003153      -1.51311193
17
Frame=16 idx=009030 GeodesicLength=1.117594367686335 rxn_smarts="[C:1]([C@@:2]1([H:11])[C:3]([H:12])([H:13])[C:4]([H:14])=[C:5]([H:15])[C:6]([H:16])([H:17])[O:7]1)([H:8])([H:9])[H:10]>>[C:1]([C:2](=[C:3]([H:12])[H:13])[H:11])([H:8])([H:9])[H:10].[C:4](#[C:5][H:15])[H:14].[C:6](=[O:7])([H:16])[H:17]"
C       -2.30907978       0.31190283       0.23334757
C       -0.92017467      -0.17881282       0.53418463
C       -0.42308899      -1.39009755      -0.01933246
C        1.74420133      -1.02139515       0.16902919
C        2.49192827      -0.01342331       0.06833713
C        1.19757709       1.50427337      -0.66262315
O       -0.03257983       1.18018134      -0.92573179
H       -3.08744962      -0.30658748       0.68487970
H       -2.45169341       0.32965673      -0.84766479
H       -2.44133142       1.30745660       0.66553663
H       -0.76330945      -0.14540484       1.62123116
H       -0.67039261      -1.49379523      -1.07795303
H       -0.68500390      -2.30292587       0.51565881
H        1.79940486      -2.09022227       0.08934758
H        3.51190258       0.23660498       0.30136040
H        1.28099046       2.20656519       0.18662155
H        1.75809908       1.86602347      -1.53622911
