13
Frame=0 idx=000506 GeodesicLength=0.0 rxn_smarts="[C:1]([n:2]1[c:3]([H:10])[c:4]([H:11])[c:5]([H:12])[c:6]1[H:13])([H:7])([H:8])[H:9]>>[C-:1]([N+:2]1=[C:6]([H:13])[C:5]([H:12])=[C:4]([H:11])[C:3]1([H:8])[H:10])([H:7])[H:9]"
C       -1.92262261       0.23430099       0.04249106
N       -0.49777196       0.32329998       0.22238885
C       -0.02035154      -1.00463577       0.23963892
C        1.36909847      -0.91286611      -0.12455684
C        1.67479053       0.42484853      -0.20981643
C        0.48912227       1.17009435      -0.00144278
H       -2.48900217       0.99502327       0.57749195
H       -1.24018012      -1.28146664      -0.12912439
H       -2.15850241       0.20427861      -1.01916168
H       -0.21466150      -1.49233939       1.19734524
H        2.05785339      -1.73929087      -0.20803036
H        2.63968981       0.85427032      -0.43596443
H        0.31253784       2.22448279      -0.15125908
13
Frame=1 idx=000506 GeodesicLength=0.0432610028625437 rxn_smarts="[C:1]([n:2]1[c:3]([H:10])[c:4]([H:11])[c:5]([H:12])[c:6]1[H:13])([H:7])([H:8])[H:9]>>[C-:1]([N+:2]1=[C:6]([H:13])[C:5]([H:12])=[C:4]([H:11])[C:3]1([H:8])[H:10])([H:7])[H:9]"
C       -1.91782091       0.23787716       0.04216596
N       -0.49715821       0.32191656       0.23031637
C       -0.01705044      -1.00671613       0.24292244
C        1.37038237      -0.91239850      -0.12707707
C        1.67448179       0.42600385      -0.21214923
C        0.48829482       1.16961624      -0.00745400
H       -2.48241672       0.99650357       0.58160757
H       -1.25099593      -1.28034484      -0.13391351
H       -2.16280272       0.20739195      -1.01683763
H       -0.21248194      -1.50002670       1.19712138
H        2.05965514      -1.73836163      -0.21016878
H        2.64284078       0.85730905      -0.41888189
H        0.30507197       2.22122942      -0.16765163
13
Frame=2 idx=000506 GeodesicLength=0.08651951262456459 rxn_smarts="[C:1]([n:2]1[c:3]([H:10])[c:4]([H:11])[c:5]([H:12])[c:6]1[H:13])([H:7])([H:8])[H:9]>>[C-:1]([N+:2]1=[C:6]([H:13])[C:5]([H:12])=[C:4]([H:11])[C:3]1([H:8])[H:10])([H:7])[H:9]"
C       -1.91296207       0.24146220       0.04177100
N       -0.49647940       0.32054496       0.23779675
C       -0.01363560      -1.00874715       0.24625736
C        1.37172551      -0.91194243      -0.12964184
C        1.67417265       0.42713948      -0.21498864
C        0.48746734       1.16906787      -0.01377265
H       -2.47573257       0.99790227       0.58577583
H       -1.26199108      -1.27915307      -0.13867725
H       -2.16739867       0.21041131      -1.01441364
H       -0.21021139      -1.50742277       1.19702150
H        2.06152344      -1.73744574      -0.21226253
H        2.64581302       0.86029476      -0.40124715
H        0.29770882       2.21788831      -0.18361876
13
Frame=3 idx=000506 GeodesicLength=0.129771290216263 rxn_smarts="[C:1]([n:2]1[c:3]([H:10])[c:4]([H:11])[c:5]([H:12])[c:6]1[H:13])([H:7])([H:8])[H:9]>>[C-:1]([N+:2]1=[C:6]([H:13])[C:5]([H:12])=[C:4]([H:11])[C:3]1([H:8])[H:10])([H:7])[H:9]"
C       -1.90803559       0.24505044       0.04121914
N       -0.49574241       0.31917899       0.24489532
C       -0.01010755      -1.01073609       0.24969122
C        1.37315285      -0.91148909      -0.13209994
C        1.67391369       0.42826970      -0.21801938
C        0.48666235       1.16845368      -0.02020446
H       -2.46899657       0.99918577       0.58988545
H       -1.27314270      -1.27788753      -0.14348737
H       -2.17216983       0.21338180      -1.01199545
H       -0.20792902      -1.51457971       1.19705752
H        2.06347289      -1.73653761      -0.21421227
H        2.64842753       0.86320708      -0.38383292
H        0.29049435       2.21450258      -0.19889686
13
Frame=4 idx=000506 GeodesicLength=0.17301224840863527 rxn_smarts="[C:1]([n:2]1[c:3]([H:10])[c:4]([H:11])[c:5]([H:12])[c:6]1[H:13])([H:7])([H:8])[H:9]>>[C-:1]([N+:2]1=[C:6]([H:13])[C:5]([H:12])=[C:4]([H:11])[C:3]1([H:8])[H:10])([H:7])[H:9]"
C       -1.90304131       0.24863468       0.04046716
N       -0.49495749       0.31781651       0.25164721
C       -0.00646728      -1.01268556       0.25325616
C        1.37467053      -0.91103550      -0.13439043
C        1.67372607       0.42939976      -0.22108276
C        0.48588977       1.16777733      -0.02665989
H       -2.46224063       1.00033548       0.59387332
H       -1.28444699      -1.27655129      -0.14835926
H       -2.17705858       0.21631302      -1.00963400
H       -0.20566393      -1.52151570       1.19725061
H        2.06549499      -1.73564001      -0.21601889
H        2.65064036       0.86604555      -0.36697098
H        0.28345450       2.21110574      -0.21337824
13
Frame=5 idx=000506 GeodesicLength=0.21623437829557574 rxn_smarts="[C:1]([n:2]1[c:3]([H:10])[c:4]([H:11])[c:5]([H:12])[c:6]1[H:13])([H:7])([H:8])[H:9]>>[C-:1]([N+:2]1=[C:6]([H:13])[C:5]([H:12])=[C:4]([H:11])[C:3]1([H:8])[H:10])([H:7])[H:9]"
C       -1.89797503       0.25220538       0.03941499
N       -0.49414591       0.31644392       0.25812268
C       -0.00272579      -1.01460717       0.25700738
C        1.37629641      -0.91057914      -0.13635237
C        1.67362346       0.43053388      -0.22396077
C        0.48516853       1.16704445      -0.03291693
H       -2.45553038       1.00131542       0.59760452
H       -1.29588633      -1.27514653      -0.15336492
H       -2.18193451       0.21924124      -1.00745982
H       -0.20350592      -1.52828181       1.19761983
H        2.06761142      -1.73474815      -0.21751267
H        2.65235890       0.86881330      -0.35152693
H        0.27664514       2.20776522      -0.22667499
13
Frame=6 idx=000506 GeodesicLength=0.2594316350264799 rxn_smarts="[C:1]([n:2]1[c:3]([H:10])[c:4]([H:11])[c:5]([H:12])[c:6]1[H:13])([H:7])([H:8])[H:9]>>[C-:1]([N+:2]1=[C:6]([H:13])[C:5]([H:12])=[C:4]([H:11])[C:3]1([H:8])[H:10])([H:7])[H:9]"
C       -1.89284097       0.25575245       0.03801136
N       -0.49332902       0.31505482       0.26435839
C        0.00110889      -1.01650708       0.26098141
C        1.37803055      -0.91012322      -0.13792299
C        1.67359412       0.43166807      -0.22660167
C        0.48450536       1.16626080      -0.03887160
H       -2.44891050       1.00210655       0.60099931
H       -1.30746174      -1.27368097      -0.15851531
H       -2.18673443       0.22216635      -1.00554023
H       -0.20148746      -1.53489293       1.19819344
H        2.06981952      -1.73386668      -0.21864074
H        2.65360669       0.87152594      -0.33786633
H        0.27009899       2.20453590      -0.23858504
13
Frame=7 idx=000506 GeodesicLength=0.3025988240798985 rxn_smarts="[C:1]([n:2]1[c:3]([H:10])[c:4]([H:11])[c:5]([H:12])[c:6]1[H:13])([H:7])([H:8])[H:9]>>[C-:1]([N+:2]1=[C:6]([H:13])[C:5]([H:12])=[C:4]([H:11])[C:3]1([H:8])[H:10])([H:7])[H:9]"
C       -1.88764471       0.25926474       0.03619758
N       -0.49253129       0.31364384       0.27038315
C        0.00502967      -1.01839165       0.26522014
C        1.37986967      -0.90967618      -0.13905009
C        1.67360629       0.43279088      -0.22905388
C        0.48390479       1.16543283      -0.04443181
H       -2.44243012       1.00269652       0.60395871
H       -1.31917739      -1.27216674      -0.16380046
H       -2.19139384       0.22507012      -1.00395151
H       -0.19962974      -1.54134825       1.19901583
H        2.07211813      -1.73300519      -0.21933801
H        2.65442216       0.87419839      -0.32631744
H        0.26385637       2.20149070      -0.24883220
13
Frame=8 idx=000506 GeodesicLength=0.3458258725834447 rxn_smarts="[C:1]([n:2]1[c:3]([H:10])[c:4]([H:11])[c:5]([H:12])[c:6]1[H:13])([H:7])([H:8])[H:9]>>[C-:1]([N+:2]1=[C:6]([H:13])[C:5]([H:12])=[C:4]([H:11])[C:3]1([H:8])[H:10])([H:7])[H:9]"
C       -1.88237951       0.26272305       0.03388347
N       -0.49175875       0.31216760       0.27615746
C        0.00903099      -1.02022719       0.26981260
C        1.38182083      -0.90923394      -0.13961855
C        1.67361929       0.43388614      -0.23144104
C        0.48337195       1.16456358      -0.04950816
H       -2.43609948       1.00303598       0.60638918
H       -1.33104248      -1.27064046      -0.16932217
H       -2.19585818       0.22795248      -1.00280283
H       -0.19798661      -1.54759065       1.20016649
H        2.07452607      -1.73215034      -0.21940050
H        2.65479167       0.87679222      -0.31743088
H        0.25796423       2.19872154      -0.25688507
13
Frame=9 idx=000506 GeodesicLength=0.38903360552945854 rxn_smarts="[C:1]([n:2]1[c:3]([H:10])[c:4]([H:11])[c:5]([H:12])[c:6]1[H:13])([H:7])([H:8])[H:9]>>[C-:1]([N+:2]1=[C:6]([H:13])[C:5]([H:12])=[C:4]([H:11])[C:3]1([H:8])[H:10])([H:7])[H:9]"
C       -1.87706801       0.26613646       0.03119096
N       -0.49102762       0.31067173       0.28172828
C        0.01311976      -1.02204959       0.27468650
C        1.38385478      -0.90881067      -0.13981757
C        1.67363952       0.43495605      -0.23375746
C        0.48288791       1.16365708      -0.05426405
H       -2.42992469       1.00314888       0.60841762
H       -1.34307522      -1.26906292      -0.17496202
H       -2.20021175       0.23080411      -1.00194152
H       -0.19645637      -1.55366648       1.20160225
H        2.07699340      -1.73133091      -0.21913546
H        2.65490475       0.87936869      -0.31031417
H        0.25236354       2.19617757      -0.26343336
13
Frame=10 idx=000506 GeodesicLength=0.4322160147318834 rxn_smarts="[C:1]([n:2]1[c:3]([H:10])[c:4]([H:11])[c:5]([H:12])[c:6]1[H:13])([H:7])([H:8])[H:9]>>[C-:1]([N+:2]1=[C:6]([H:13])[C:5]([H:12])=[C:4]([H:11])[C:3]1([H:8])[H:10])([H:7])[H:9]"
C       -1.87171278       0.26950425       0.02821840
N       -0.49031912       0.30915736       0.28706871
C        0.01730458      -1.02383450       0.27979810
C        1.38595345      -0.90839761      -0.13979027
C        1.67367547       0.43600326      -0.23607052
C        0.48244067       1.16271635      -0.05887375
H       -2.42385625       1.00304276       0.61020243
H       -1.35530565      -1.26744459      -0.18068153
H       -2.20456344       0.23363459      -1.00125703
H       -0.19497572      -1.55956064       1.20328388
H        2.07949568      -1.73053886      -0.21870794
H        2.65486870       0.88192137      -0.30424347
H        0.24699439       2.19379625      -0.26894701
13
Frame=11 idx=000506 GeodesicLength=0.4753723337894582 rxn_smarts="[C:1]([n:2]1[c:3]([H:10])[c:4]([H:11])[c:5]([H:12])[c:6]1[H:13])([H:7])([H:8])[H:9]>>[C-:1]([N+:2]1=[C:6]([H:13])[C:5]([H:12])=[C:4]([H:11])[C:3]1([H:8])[H:10])([H:7])[H:9]"
C       -1.86631947       0.27282830       0.02501791
N       -0.48962912       0.30762286       0.29216756
C        0.02158747      -1.02558155       0.28511649
C        1.38811629      -0.90799433      -0.13957695
C        1.67373414       0.43702986      -0.23837737
C        0.48202374       1.16173968      -0.06340183
H       -2.41786690       1.00269200       0.61184854
H       -1.36774857      -1.26576627      -0.18651676
H       -2.20895993       0.23649201      -1.00068064
H       -0.19353413      -1.56529332       1.20516854
H        2.08204301      -1.72976890      -0.21812301
H        2.65472896       0.88446159      -0.29896592
H        0.24182451       2.19153809      -0.27367658
13
Frame=12 idx=000506 GeodesicLength=0.5185167797981192 rxn_smarts="[C:1]([n:2]1[c:3]([H:10])[c:4]([H:11])[c:5]([H:12])[c:6]1[H:13])([H:7])([H:8])[H:9]>>[C-:1]([N+:2]1=[C:6]([H:13])[C:5]([H:12])=[C:4]([H:11])[C:3]1([H:8])[H:10])([H:7])[H:9]"
C       -1.86089276       0.27611568       0.02166212
N       -0.48894544       0.30607260       0.29701320
C        0.02597894      -1.02728950       0.29060929
C        1.39034175      -0.90759740      -0.13925245
C        1.67382943       0.43804091      -0.24068030
C        0.48163169       1.16072528      -0.06793805
H       -2.41192489       1.00207835       0.61348786
H       -1.38042060      -1.26399979      -0.19249895
H       -2.21347524       0.23942632      -1.00010497
H       -0.19210006      -1.57088510       1.20721948
H        2.08463455      -1.72901521      -0.21746337
H        2.65454078       0.88699940      -0.29403140
H        0.23680185       2.18932846      -0.27802247
13
Frame=13 idx=000506 GeodesicLength=0.5616595841523386 rxn_smarts="[C:1]([n:2]1[c:3]([H:10])[c:4]([H:11])[c:5]([H:12])[c:6]1[H:13])([H:7])([H:8])[H:9]>>[C-:1]([N+:2]1=[C:6]([H:13])[C:5]([H:12])=[C:4]([H:11])[C:3]1([H:8])[H:10])([H:7])[H:9]"
C       -1.85543703       0.27936843       0.01820676
N       -0.48826125       0.30450189       0.30161342
C        0.03048516      -1.02895681       0.29624951
C        1.39263033      -0.90720379      -0.13885735
C        1.67397069       0.43904204      -0.24296657
C        0.48126425       1.15967406      -0.07250842
H       -2.40600623       1.00118487       0.61521878
H       -1.39333822      -1.26212940      -0.19866804
H       -2.21814320       0.24249965      -0.99946602
H       -0.19066150      -1.57636491       1.20939135
H        2.08728218      -1.72826945      -0.21674181
H        2.65433082       0.88954408      -0.28920087
H        0.23188399       2.18710935      -0.28227073
13
Frame=14 idx=000506 GeodesicLength=0.6048007395572883 rxn_smarts="[C:1]([n:2]1[c:3]([H:10])[c:4]([H:11])[c:5]([H:12])[c:6]1[H:13])([H:7])([H:8])[H:9]>>[C-:1]([N+:2]1=[C:6]([H:13])[C:5]([H:12])=[C:4]([H:11])[C:3]1([H:8])[H:10])([H:7])[H:9]"
C       -1.84995579       0.28258662       0.01468766
N       -0.48756929       0.30291348       0.30596271
C        0.03511535      -1.03057960       0.30203172
C        1.39498285      -0.90681030      -0.13842207
C        1.67417460       0.44003949      -0.24519812
C        0.48091772       1.15858316      -0.07717356
H       -2.40009282       1.00000596       0.61709509
H       -1.40651377      -1.26014296      -0.20502280
H       -2.22299576       0.24573197      -0.99871067
H       -0.18919416      -1.58173287       1.21168008
H        2.08996659      -1.72753759      -0.21606666
H        2.65412496       0.89210697      -0.28421892
H        0.22703952       2.18483568      -0.28664444
13
Frame=15 idx=000506 GeodesicLength=0.647943864938122 rxn_smarts="[C:1]([n:2]1[c:3]([H:10])[c:4]([H:11])[c:5]([H:12])[c:6]1[H:13])([H:7])([H:8])[H:9]>>[C-:1]([N+:2]1=[C:6]([H:13])[C:5]([H:12])=[C:4]([H:11])[C:3]1([H:8])[H:10])([H:7])[H:9]"
C       -1.84445267       0.28577175       0.01114523
N       -0.48686404       0.30129923       0.31007336
C        0.03987145      -1.03216247       0.30793135
C        1.39740753      -0.90641451      -0.13795023
C        1.67444974       0.44103765      -0.24735049
C        0.48059499       1.15745094      -0.08192838
H       -2.39416892       0.99851342       0.61919849
H       -1.41995493      -1.25801280      -0.21163725
H       -2.22805339       0.24919868      -0.99778594
H       -0.18771227      -1.58703132       1.21403401
H        2.09271727      -1.72680649      -0.21537124
H        2.65392838       0.89470019      -0.27902549
H        0.22223687       2.18245573      -0.29133342
13
Frame=16 idx=000506 GeodesicLength=0.6910794139792285 rxn_smarts="[C:1]([n:2]1[c:3]([H:10])[c:4]([H:11])[c:5]([H:12])[c:6]1[H:13])([H:7])([H:8])[H:9]>>[C-:1]([N+:2]1=[C:6]([H:13])[C:5]([H:12])=[C:4]([H:11])[C:3]1([H:8])[H:10])([H:7])[H:9]"
C       -1.83892116       0.28890582       0.00741735
N       -0.48617771       0.29964739       0.31395969
C        0.04474648      -1.03370183       0.31404462
C        1.39990389      -0.90603036      -0.13731856
C        1.67474002       0.44200602      -0.24955283
C        0.48030010       1.15627480      -0.08663764
H       -2.38831475       0.99670498       0.62125643
H       -1.43365252      -1.25576859      -0.21849865
H       -2.23318193       0.25280989      -0.99688800
H       -0.18626138      -1.59221648       1.21655862
H        2.09556085      -1.72607760      -0.21440745
H        2.65365986       0.89728549      -0.27450685
H        0.21759826       2.18016048      -0.29542673
