15
Frame=0 idx=009104 GeodesicLength=0.0 rxn_smarts="[C:1]1([H:8])([H:9])[C@:2]2([H:10])[O:3][C:4]([H:11])([H:12])[C:5]([H:13])([H:14])[O:6][C@:7]12[H:15]>>[C:1]1([H:8])([H:9])[C-:2]=[O+:3][C:4]([H:11])([H:12])[C:5]([H:13])([H:14])[O:6][C:7]1([H:10])[H:15]"
C       -1.48085500       0.16928641       0.76214267
C       -1.34852166       0.30445676      -0.74198333
O       -0.26512998       0.98496527      -1.20877932
C        0.94070898       1.06454238      -0.45279369
C        1.46534602      -0.32980196      -0.19569226
O        0.64004864      -1.08069145       0.68378176
C       -0.71618530      -1.06120090       0.41235171
H       -0.94196379       0.85608556       1.40466391
H       -2.50461816       0.02344224       1.09027291
H       -1.06060289      -0.98825298      -0.87505890
H        0.80293306       1.61976092       0.47959941
H        1.64137878       1.61445443      -1.08098037
H        1.55992884      -0.85402719      -1.15536613
H        2.44397294      -0.29397903       0.28266838
H       -1.17644055      -2.02904053       0.59517319
15
Frame=1 idx=009104 GeodesicLength=0.04204273030640881 rxn_smarts="[C:1]1([H:8])([H:9])[C@:2]2([H:10])[O:3][C:4]([H:11])([H:12])[C:5]([H:13])([H:14])[O:6][C@:7]12[H:15]>>[C:1]1([H:8])([H:9])[C-:2]=[O+:3][C:4]([H:11])([H:12])[C:5]([H:13])([H:14])[O:6][C:7]1([H:10])[H:15]"
C       -1.48350223       0.16791678       0.76162834
C       -1.34411696       0.30861963      -0.74013855
O       -0.26493120       0.99387565      -1.20569541
C        0.94428085       1.06608708      -0.45297768
C        1.46528783      -0.32966022      -0.19592512
O        0.64133535      -1.07620089       0.68706405
C       -0.71490913      -1.06157611       0.40945103
H       -0.94815445       0.85436862       1.40780997
H       -2.50849436       0.01745521       1.08379150
H       -1.07158658      -0.99756994      -0.88321898
H        0.81019330       1.62074832       0.48033336
H        1.64517282       1.61429695      -1.08240185
H        1.55579514      -0.85590285      -1.15498671
H        2.44593167      -0.29459388       0.27851930
H       -1.17230205      -2.02786436       0.60674674
15
Frame=2 idx=009104 GeodesicLength=0.08408119214134374 rxn_smarts="[C:1]1([H:8])([H:9])[C@:2]2([H:10])[O:3][C:4]([H:11])([H:12])[C:5]([H:13])([H:14])[O:6][C@:7]12[H:15]>>[C:1]1([H:8])([H:9])[C-:2]=[O+:3][C:4]([H:11])([H:12])[C:5]([H:13])([H:14])[O:6][C:7]1([H:10])[H:15]"
C       -1.48614453       0.16651771       0.76108140
C       -1.33964767       0.31270870      -0.73828693
O       -0.26473335       1.00285893      -1.20249194
C        0.94787488       1.06763872      -0.45316585
C        1.46523330      -0.32950579      -0.19613752
O        0.64261596      -1.07167231       0.69035169
C       -0.71361336      -1.06199145       0.40654094
H       -0.95438985       0.85258671       1.41095956
H       -2.51233568       0.01146059       1.07720097
H       -1.08280374      -1.00694160      -0.89128695
H        0.81753935       1.62175878       0.48104737
H        1.64895680       1.61411275      -1.08388477
H        1.55164047      -0.85774881      -1.15457692
H        2.44787477      -0.29522385       0.27438885
H       -1.16806735      -2.02655908       0.61826010
15
Frame=3 idx=009104 GeodesicLength=0.12611203860442313 rxn_smarts="[C:1]1([H:8])([H:9])[C@:2]2([H:10])[O:3][C:4]([H:11])([H:12])[C:5]([H:13])([H:14])[O:6][C@:7]12[H:15]>>[C:1]1([H:8])([H:9])[C-:2]=[O+:3][C:4]([H:11])([H:12])[C:5]([H:13])([H:14])[O:6][C:7]1([H:10])[H:15]"
C       -1.48877873       0.16508978       0.76050332
C       -1.33511673       0.31672650      -0.73642629
O       -0.26453771       1.01190917      -1.19916951
C        0.95148903       1.06919599      -0.45336106
C        1.46518341      -0.32933761      -0.19632594
O        0.64388941      -1.06711068       0.69364100
C       -0.71229875      -1.06244803       0.40362194
H       -0.96066343       0.85073895       1.41411176
H       -2.51613574       0.00546411       1.07051240
H       -1.09425589      -1.01636961      -0.89926085
H        0.82496909       1.62279435       0.48173599
H        1.65272616       1.61390041      -1.08543419
H        1.54747554      -0.85956361      -1.15413244
H        2.44979886      -0.29586255       0.27028971
H       -1.16374452      -2.02512716       0.62969416
15
Frame=4 idx=009104 GeodesicLength=0.16812425884457138 rxn_smarts="[C:1]1([H:8])([H:9])[C@:2]2([H:10])[O:3][C:4]([H:11])([H:12])[C:5]([H:13])([H:14])[O:6][C@:7]12[H:15]>>[C:1]1([H:8])([H:9])[C-:2]=[O+:3][C:4]([H:11])([H:12])[C:5]([H:13])([H:14])[O:6][C:7]1([H:10])[H:15]"
C       -1.49140170       0.16363374       0.75989514
C       -1.33052651       0.32067539      -0.73455514
O       -0.26434488       1.02101999      -1.19572820
C        0.95512126       1.07075745      -0.45356626
C        1.46513925      -0.32915451      -0.19648698
O        0.64515443      -1.06252125       0.69692765
C       -0.71096625      -1.06294655       0.40069317
H       -0.96696892       0.84882428       1.41726532
H       -2.51988826      -0.00052861       1.06373694
H       -1.10594544      -1.02585306      -0.90713775
H        0.83248065       1.62385639       0.48239365
H        1.65647584       1.61365857      -1.08705535
H        1.54331202      -0.86134541      -1.15364916
H        2.45170030      -0.29650319       0.26623492
H       -1.15934181      -2.02357323       0.64103206
15
Frame=5 idx=009104 GeodesicLength=0.21012816379458849 rxn_smarts="[C:1]1([H:8])([H:9])[C@:2]2([H:10])[O:3][C:4]([H:11])([H:12])[C:5]([H:13])([H:14])[O:6][C@:7]12[H:15]>>[C:1]1([H:8])([H:9])[C-:2]=[O+:3][C:4]([H:11])([H:12])[C:5]([H:13])([H:14])[O:6][C:7]1([H:10])[H:15]"
C       -1.49401520       0.16214880       0.75925521
C       -1.32587565       0.32455771      -0.73267338
O       -0.26415449       1.03019477      -1.19216281
C        0.95877309       1.07232408      -0.45378028
C        1.46510181      -0.32895617      -0.19662153
O        0.64641236      -1.05790083       0.70021378
C       -0.70961383      -1.06348623       0.39775644
H       -0.97331148       0.84684197       1.42042024
H       -2.52359622      -0.00652154       1.05686628
H       -1.11787523      -1.03539766      -0.91491473
H        0.84007965       1.62494516       0.48302218
H        1.66020628       1.61338677      -1.08874904
H        1.53914579      -0.86309425      -1.15312840
H        2.45358249      -0.29714725       0.26221976
H       -1.15485936      -2.02189531       0.65227628
15
Frame=6 idx=009104 GeodesicLength=0.25212644478661905 rxn_smarts="[C:1]1([H:8])([H:9])[C@:2]2([H:10])[O:3][C:4]([H:11])([H:12])[C:5]([H:13])([H:14])[O:6][C@:7]12[H:15]>>[C:1]1([H:8])([H:9])[C-:2]=[O+:3][C:4]([H:11])([H:12])[C:5]([H:13])([H:14])[O:6][C:7]1([H:10])[H:15]"
C       -1.49662140       0.16063477       0.75858108
C       -1.32116231       0.32837508      -0.73078191
O       -0.26396623       1.03943789      -1.18846619
C        0.96244621       1.07389694      -0.45400268
C        1.46507201      -0.32874189      -0.19672980
O        0.64766395      -1.05324654       0.70350067
C       -0.70823982      -1.06406569       0.39481245
H       -0.97969690       0.84479059       1.42357672
H       -2.52726196      -0.01251853       1.04989349
H       -1.13004854      -1.04500729      -0.92258744
H        0.84777290       1.62605973       0.48362294
H        1.66391725       1.61308364      -1.09051840
H        1.53497403      -0.86481029      -1.15257005
H        2.45544797      -0.29779498       0.25824055
H       -1.15029718      -2.02009343       0.66342857
15
Frame=7 idx=009104 GeodesicLength=0.2941235957521887 rxn_smarts="[C:1]1([H:8])([H:9])[C@:2]2([H:10])[O:3][C:4]([H:11])([H:12])[C:5]([H:13])([H:14])[O:6][C@:7]12[H:15]>>[C:1]1([H:8])([H:9])[C-:2]=[O+:3][C:4]([H:11])([H:12])[C:5]([H:13])([H:14])[O:6][C:7]1([H:10])[H:15]"
C       -1.49922154       0.15909123       0.75787005
C       -1.31638461       0.33213057      -0.72888101
O       -0.26377972       1.04875300      -1.18463245
C        0.96614169       1.07547661      -0.45423312
C        1.46505025      -0.32851173      -0.19681226
O        0.64890917      -1.04855647       0.70678899
C       -0.70684294      -1.06468429       0.39186088
H       -0.98612943       0.84266930       1.42673274
H       -2.53088550      -0.01852520       1.04281337
H       -1.14247004      -1.05468531      -0.93015266
H        0.85556631       1.62720021       0.48419613
H        1.66760889       1.61274772      -1.09236482
H        1.53079552      -0.86649169      -1.15197561
H        2.45729733      -0.29844698       0.25429665
H       -1.14565537      -2.01816696       0.67449313
15
Frame=8 idx=009104 GeodesicLength=0.33613940272594983 rxn_smarts="[C:1]1([H:8])([H:9])[C@:2]2([H:10])[O:3][C:4]([H:11])([H:12])[C:5]([H:13])([H:14])[O:6][C@:7]12[H:15]>>[C:1]1([H:8])([H:9])[C-:2]=[O+:3][C:4]([H:11])([H:12])[C:5]([H:13])([H:14])[O:6][C:7]1([H:10])[H:15]"
C       -1.50181815       0.15751915       0.75712107
C       -1.31154192       0.33582753      -0.72697339
O       -0.26359729       1.05814728      -1.18065925
C        0.96986062       1.07706574      -0.45447101
C        1.46503926      -0.32826747      -0.19686924
O        0.65015102      -1.04383048       0.71008173
C       -0.70542056      -1.06534286       0.38890389
H       -0.99261552       0.84048024       1.42989184
H       -2.53446995      -0.02454305       1.03561900
H       -1.15514550      -1.06443872      -0.93760897
H        0.86346520       1.62837001       0.48474627
H        1.67128009       1.61237948      -1.09429217
H        1.52661004      -0.86814117      -1.15134936
H        2.45913560      -0.29910677       0.25038785
H       -1.14093294      -2.01611889       0.68547174
15
Frame=9 idx=009104 GeodesicLength=0.3781502971582419 rxn_smarts="[C:1]1([H:8])([H:9])[C@:2]2([H:10])[O:3][C:4]([H:11])([H:12])[C:5]([H:13])([H:14])[O:6][C@:7]12[H:15]>>[C:1]1([H:8])([H:9])[C-:2]=[O+:3][C:4]([H:11])([H:12])[C:5]([H:13])([H:14])[O:6][C:7]1([H:10])[H:15]"
C       -1.50441243       0.15591558       0.75632998
C       -1.30662878       0.33946579      -0.72505585
O       -0.26341058       1.06761572      -1.17652672
C        0.97360698       1.07866256      -0.45471522
C        1.46503710      -0.32800374      -0.19690223
O        0.65138590      -1.03905998       0.71337731
C       -0.70397345      -1.06603774       0.38593988
H       -0.99916052       0.83821489       1.43304844
H       -2.53801696      -0.03057824       1.02829892
H       -1.16808044      -1.07426936      -0.94494318
H        0.87148141       1.62956313       0.48526700
H        1.67493220       1.61197532      -1.09630203
H        1.52241119      -0.86975077      -1.15068550
H        2.46095989      -0.29976786       0.24650424
H       -1.13613151      -2.01394529       0.69636495
15
Frame=10 idx=009104 GeodesicLength=0.42015024065556905 rxn_smarts="[C:1]1([H:8])([H:9])[C@:2]2([H:10])[O:3][C:4]([H:11])([H:12])[C:5]([H:13])([H:14])[O:6][C@:7]12[H:15]>>[C:1]1([H:8])([H:9])[C-:2]=[O+:3][C:4]([H:11])([H:12])[C:5]([H:13])([H:14])[O:6][C:7]1([H:10])[H:15]"
C       -1.50700275       0.15428016       0.75549746
C       -1.30165002       0.34304803      -0.72312221
O       -0.26322468       1.07715363      -1.17224208
C        0.97737734       1.08026505      -0.45496642
C        1.46504630      -0.32771915      -0.19690751
O        0.65261409      -1.03424666       0.71667026
C       -0.70250142      -1.06676499       0.38297079
H       -1.00576170       0.83587343       1.43619989
H       -2.54152175      -0.03662663       1.02086252
H       -1.18127508      -1.08417650      -0.95215232
H        0.87960778       1.63077786       0.48575692
H        1.67856105       1.61152999      -1.09839557
H        1.51821270      -0.87132022      -1.14998040
H        2.46277348      -0.30043062       0.24265336
H       -1.13125535      -2.01164338       0.70715530
15
Frame=11 idx=009104 GeodesicLength=0.46217503688836437 rxn_smarts="[C:1]1([H:8])([H:9])[C@:2]2([H:10])[O:3][C:4]([H:11])([H:12])[C:5]([H:13])([H:14])[O:6][C@:7]12[H:15]>>[C:1]1([H:8])([H:9])[C-:2]=[O+:3][C:4]([H:11])([H:12])[C:5]([H:13])([H:14])[O:6][C:7]1([H:10])[H:15]"
C       -1.50959338       0.15261721       0.75462243
C       -1.29660510       0.34658090      -0.72118243
O       -0.26303913       1.08677078      -1.16780093
C        0.98117272       1.08187919      -0.45522369
C        1.46506936      -0.32741839      -0.19688699
O        0.65383978      -1.02939410       0.71996784
C       -0.70100108      -1.06752862       0.37999797
H       -1.01242993       0.83346399       1.43935336
H       -2.54498937      -0.04268776       1.01330146
H       -1.19473282      -1.09417176      -0.95923886
H        0.88785073       1.63202079       0.48622435
H        1.68216415       1.61105096      -1.10057614
H        1.51401185      -0.87285615      -1.14924194
H        2.46458167      -0.30110349       0.23883085
H       -1.12629947      -2.00922357       0.71785272
15
Frame=12 idx=009104 GeodesicLength=0.5042196563185769 rxn_smarts="[C:1]1([H:8])([H:9])[C@:2]2([H:10])[O:3][C:4]([H:11])([H:12])[C:5]([H:13])([H:14])[O:6][C@:7]12[H:15]>>[C:1]1([H:8])([H:9])[C-:2]=[O+:3][C:4]([H:11])([H:12])[C:5]([H:13])([H:14])[O:6][C:7]1([H:10])[H:15]"
C       -1.51218582       0.15092455       0.75370084
C       -1.29149004       0.35006550      -0.71923218
O       -0.26285261       1.09646757      -1.16319018
C        0.98499578       1.08350347      -0.45548511
C        1.46510624      -0.32709931      -0.19684210
O        0.65506193      -1.02449445       0.72326948
C       -0.69947099      -1.06832456       0.37702164
H       -1.01917226       0.83098210       1.44250304
H       -2.54842002      -0.04877014       1.00560371
H       -1.20845799      -1.10425842      -0.96619560
H        0.89621889       1.63328736       0.48666854
H        1.68574120       1.61053638      -1.10284390
H        1.50980428      -0.87435557      -1.14846855
H        2.46638598      -0.30178673       0.23502866
H       -1.12126455      -2.00667776       0.72846170
15
Frame=13 idx=009104 GeodesicLength=0.5462752080362995 rxn_smarts="[C:1]1([H:8])([H:9])[C@:2]2([H:10])[O:3][C:4]([H:11])([H:12])[C:5]([H:13])([H:14])[O:6][C@:7]12[H:15]>>[C:1]1([H:8])([H:9])[C-:2]=[O+:3][C:4]([H:11])([H:12])[C:5]([H:13])([H:14])[O:6][C:7]1([H:10])[H:15]"
C       -1.51478342       0.14920085       0.75272849
C       -1.28630092       0.35350350      -0.71727385
O       -0.26266135       1.10624895      -1.15840190
C        0.98884924       1.08513926      -0.45574927
C        1.46515830      -0.32676181      -0.19677473
O        0.65628182      -1.01954329       0.72657672
C       -0.69790943      -1.06915189       0.37404208
H       -1.02599779       0.82842647       1.44564817
H       -2.55181778      -0.05487875       0.99775679
H       -1.22245468      -1.11443923      -0.97301104
H        0.90471930       1.63457539       0.48709085
H        1.68929113       1.60998799      -1.10519804
H        1.50558435      -0.87581744      -1.14766270
H        2.46819058      -0.30248393       0.23123831
H       -1.11614934      -2.00400606       0.73899012
15
Frame=14 idx=009104 GeodesicLength=0.5883498368149896 rxn_smarts="[C:1]1([H:8])([H:9])[C@:2]2([H:10])[O:3][C:4]([H:11])([H:12])[C:5]([H:13])([H:14])[O:6][C@:7]12[H:15]>>[C:1]1([H:8])([H:9])[C-:2]=[O+:3][C:4]([H:11])([H:12])[C:5]([H:13])([H:14])[O:6][C:7]1([H:10])[H:15]"
C       -1.51738306       0.14744745       0.75170824
C       -1.28104211       0.35690070      -0.71530256
O       -0.26246677       1.11610634      -1.15343718
C        0.99273085       1.08678525      -0.45601893
C        1.46522639      -0.32640498      -0.19668140
O        0.65749788      -1.01454539       0.72988635
C       -0.69631720      -1.07000999       0.37105933
H       -1.03289955       0.82579601       1.44878848
H       -2.55517631      -0.06100651       0.98977256
H       -1.23672213      -1.12471994      -0.97968709
H        0.91334909       1.63588730       0.48748596
H        1.69280957       1.60940467      -1.10764355
H        1.50136351      -0.87724138      -1.14682003
H        2.46999232      -0.30318850       0.22747250
H       -1.11096248      -2.00121104       0.74941734
15
Frame=15 idx=009104 GeodesicLength=0.6304362710998497 rxn_smarts="[C:1]1([H:8])([H:9])[C@:2]2([H:10])[O:3][C:4]([H:11])([H:12])[C:5]([H:13])([H:14])[O:6][C@:7]12[H:15]>>[C:1]1([H:8])([H:9])[C-:2]=[O+:3][C:4]([H:11])([H:12])[C:5]([H:13])([H:14])[O:6][C:7]1([H:10])[H:15]"
C       -1.51998196       0.14566546       0.75064207
C       -1.27571725       0.36026252      -0.71331481
O       -0.26226863       1.12603196      -1.14829712
C        0.99663834       1.08844001      -0.45629712
C        1.46531180      -0.32602770      -0.19655876
O        0.65870867      -1.00950580       0.73319433
C       -0.69469538      -1.07089827       0.36807189
H       -1.03987112       0.82308927       1.45192387
H       -2.55849019      -0.06714743       0.98166152
H       -1.25126091      -1.13510149      -0.98622125
H        0.92210609       1.63722433       0.48784758
H        1.69629066       1.60878498      -1.11018544
H        1.49715421      -0.87862652      -1.14593650
H        2.47178825      -0.30389356       0.22374441
H       -1.10571257      -1.99829776       0.75972534
15
Frame=16 idx=009104 GeodesicLength=0.6725287147304775 rxn_smarts="[C:1]1([H:8])([H:9])[C@:2]2([H:10])[O:3][C:4]([H:11])([H:12])[C:5]([H:13])([H:14])[O:6][C@:7]12[H:15]>>[C:1]1([H:8])([H:9])[C-:2]=[O+:3][C:4]([H:11])([H:12])[C:5]([H:13])([H:14])[O:6][C:7]1([H:10])[H:15]"
C       -1.52257744       0.14385613       0.74953212
C       -1.27033015       0.36359482      -0.71130691
O       -0.26206661       1.13601773      -1.14298340
C        1.00056950       1.09010223      -0.45658672
C        1.46541579      -0.32562895      -0.19640374
O        0.65991269      -1.00442964       0.73649667
C       -0.69304507      -1.07181587       0.36507808
H       -1.04690588       0.82030486       1.45505440
H       -2.56175447      -0.07329521       0.97343419
H       -1.26607112      -1.14558580      -0.99261159
H        0.93098763       1.63858778       0.48816978
H        1.69972893       1.60812790      -1.11282806
H        1.49296878      -0.87997224      -1.14500848
H        2.47357577      -0.30459233       0.22006677
H       -1.10040835      -1.99527142       0.76989688
