14
Frame=0 idx=002984 GeodesicLength=0.0 rxn_smarts="[C:1]([C@@:2]1([H:10])[O:3][C@:4]1([C:5]([O:6][H:14])([H:12])[H:13])[H:11])([H:7])([H:8])[H:9]>>[C:1]([C-:2]([O+:3]=[C:4]([C:5]([O:6][H:14])([H:12])[H:13])[H:11])[H:10])([H:7])([H:8])[H:9]"
C        2.10407813       0.62679144      -0.00577466
C        1.10995361      -0.46816466       0.06189293
O        0.29292240      -0.49729225       1.11781084
C       -0.88425096      -0.85503421       0.56921800
C       -1.49124509      -0.08274061      -0.53943373
O       -2.76661637       0.44021690      -0.18870131
H        1.68408574       1.57175939      -0.36679284
H        2.93315613       0.35765002      -0.65971280
H        2.49146232       0.81873769       1.00141804
H        1.13807404      -1.35520751      -0.54887877
H       -1.48904309      -1.50871352       1.18832320
H       -1.68364699      -0.66808979      -1.44113461
H       -0.76840071       0.70076507      -0.82596118
H       -2.67052917       0.91932202       0.63772694
14
Frame=1 idx=002984 GeodesicLength=0.03539647020724867 rxn_smarts="[C:1]([C@@:2]1([H:10])[O:3][C@:4]1([C:5]([O:6][H:14])([H:12])[H:13])[H:11])([H:7])([H:8])[H:9]>>[C:1]([C-:2]([O+:3]=[C:4]([C:5]([O:6][H:14])([H:12])[H:13])[H:11])[H:10])([H:7])([H:8])[H:9]"
C        2.10418183       0.62193971      -0.00614541
C        1.10351592      -0.46759286       0.07277775
O        0.28614149      -0.47414639       1.13006224
C       -0.87715216      -0.84839067       0.56312522
C       -1.49224025      -0.07731711      -0.54196294
O       -2.77173660       0.43099547      -0.18808513
H        1.68547534       1.57071793      -0.35802057
H        2.92184589       0.35068029      -0.67365884
H        2.50974767       0.80702310       0.99484838
H        1.14214309      -1.35968287      -0.53078867
H       -1.47646123      -1.51583142       1.17283034
H       -1.67711924      -0.66580597      -1.44356466
H       -0.77982614       0.71529528      -0.82891152
H       -2.67851559       0.91211550       0.63749380
14
Frame=2 idx=002984 GeodesicLength=0.07080992858732063 rxn_smarts="[C:1]([C@@:2]1([H:10])[O:3][C@:4]1([C:5]([O:6][H:14])([H:12])[H:13])[H:11])([H:7])([H:8])[H:9]>>[C:1]([C-:2]([O+:3]=[C:4]([C:5]([O:6][H:14])([H:12])[H:13])[H:11])[H:10])([H:7])([H:8])[H:9]"
C        2.10415540       0.61705146      -0.00633682
C        1.09727756      -0.46722733       0.08343597
O        0.27951134      -0.45162427       1.14160451
C       -0.86996910      -0.84153529       0.55722324
C       -1.49320695      -0.07202187      -0.54444620
O       -2.77663862       0.42170347      -0.18746989
H        1.68685337       1.56958006      -0.34909706
H        2.91046477       0.34399690      -0.68701682
H        2.52728698       0.79505106       0.98834359
H        1.14606838      -1.36381016      -0.51348985
H       -1.46355208      -1.52206862       1.15801325
H       -1.67058233      -0.66372336      -1.44582728
H       -0.79140648       0.72954343      -0.83203502
H       -2.68626224       0.90508452       0.63709837
14
Frame=3 idx=002984 GeodesicLength=0.10621527827308128 rxn_smarts="[C:1]([C@@:2]1([H:10])[O:3][C@:4]1([C:5]([O:6][H:14])([H:12])[H:13])[H:11])([H:7])([H:8])[H:9]>>[C:1]([C-:2]([O+:3]=[C:4]([C:5]([O:6][H:14])([H:12])[H:13])[H:11])[H:10])([H:7])([H:8])[H:9]"
C        2.10399737       0.61214441      -0.00635684
C        1.09124219      -0.46707179       0.09386971
O        0.27303401      -0.42975680       1.15246275
C       -0.86271328      -0.83454864       0.55145356
C       -1.49415211      -0.06685284      -0.54687849
O       -2.78128246       0.41241957      -0.18677070
H        1.68821956       1.56828231      -0.34025172
H        2.89915839       0.33752706      -0.69961624
H        2.54392905       0.78305841       0.98194525
H        1.14985897      -1.36759622      -0.49701943
H       -1.45037912      -1.52753619       1.14378685
H       -1.66412451      -0.66179786      -1.44792560
H       -0.80312008       0.74347603      -0.83534519
H       -2.69366799       0.89825255       0.63664609
14
Frame=4 idx=002984 GeodesicLength=0.141641533170806 rxn_smarts="[C:1]([C@@:2]1([H:10])[O:3][C@:4]1([C:5]([O:6][H:14])([H:12])[H:13])[H:11])([H:7])([H:8])[H:9]>>[C:1]([C-:2]([O+:3]=[C:4]([C:5]([O:6][H:14])([H:12])[H:13])[H:11])[H:10])([H:7])([H:8])[H:9]"
C        2.10374944       0.60720116      -0.00623844
C        1.08539483      -0.46709946       0.10413683
O        0.26670997      -0.40842612       1.16272957
C       -0.85540877      -0.82736768       0.54586258
C       -1.49506016      -0.06177370      -0.54925515
O       -2.78574055       0.40304153      -0.18609351
H        1.68959771       1.56687550      -0.33132509
H        2.88781128       0.33128250      -0.71172173
H        2.55995039       0.77087758       0.97557792
H        1.15349735      -1.37109217      -0.48124563
H       -1.43698746      -1.53223571       1.13015094
H       -1.65757433      -0.65998182      -1.44989495
H       -0.81499237       0.75719811      -0.83873920
H       -2.70094733       0.89150030       0.63605587
14
Frame=5 idx=002984 GeodesicLength=0.1770735377464493 rxn_smarts="[C:1]([C@@:2]1([H:10])[O:3][C@:4]1([C:5]([O:6][H:14])([H:12])[H:13])[H:11])([H:7])([H:8])[H:9]>>[C:1]([C-:2]([O+:3]=[C:4]([C:5]([O:6][H:14])([H:12])[H:13])[H:11])[H:10])([H:7])([H:8])[H:9]"
C        2.10340399       0.60223990      -0.00598363
C        1.07973449      -0.46731410       0.11423189
O        0.26054293      -0.38766501       1.17242323
C       -0.84805938      -0.82006477       0.54040186
C       -1.49593738      -0.05678954      -0.55157705
O       -2.78997241       0.39363951      -0.18537017
H        1.69097537       1.56532653      -0.32248006
H        2.87653687       0.32521451      -0.72319911
H        2.57523520       0.75868679       0.96928628
H        1.15698886      -1.37430669      -0.46620827
H       -1.42342559      -1.53624963       1.11705214
H       -1.65101647      -0.65825609      -1.45173676
H       -0.82700856       0.77067212      -0.84224624
H       -2.70799792       0.88486646       0.63540590
14
Frame=6 idx=002984 GeodesicLength=0.21252888856998034 rxn_smarts="[C:1]([C@@:2]1([H:10])[O:3][C@:4]1([C:5]([O:6][H:14])([H:12])[H:13])[H:11])([H:7])([H:8])[H:9]>>[C:1]([C-:2]([O+:3]=[C:4]([C:5]([O:6][H:14])([H:12])[H:13])[H:11])[H:10])([H:7])([H:8])[H:9]"
C        2.10299293       0.59724890      -0.00561594
C        1.07425105      -0.46769320       0.12420476
O        0.25452675      -0.36737597       1.18161527
C       -0.84068473      -0.81259754       0.53510153
C       -1.49677511      -0.05187568      -0.55384379
O       -2.79402893       0.38414550      -0.18467216
H        1.69237367       1.56367161      -0.31359589
H        2.86524421       0.31933370      -0.73424558
H        2.58998673       0.74636799       0.96300999
H        1.16032899      -1.37727911      -0.45179648
H       -1.40972665      -1.53959598       1.10447758
H       -1.64433951      -0.65658536      -1.45347804
H       -0.83918604       0.78396472      -0.84580266
H       -2.71496336       0.87827042       0.63464140
14
Frame=7 idx=002984 GeodesicLength=0.24798813015051793 rxn_smarts="[C:1]([C@@:2]1([H:10])[O:3][C@:4]1([C:5]([O:6][H:14])([H:12])[H:13])[H:11])([H:7])([H:8])[H:9]>>[C:1]([C-:2]([O+:3]=[C:4]([C:5]([O:6][H:14])([H:12])[H:13])[H:11])[H:10])([H:7])([H:8])[H:9]"
C        2.10250472       0.59224568      -0.00513192
C        1.06894511      -0.46824321       0.13404832
O        0.24866276      -0.34760357       1.19031351
C       -0.83328486      -0.80503914       0.52990784
C       -1.49757938      -0.04704358      -0.55605449
O       -2.79786534       0.37462962      -0.18392364
H        1.69376971       1.56186919      -0.30483776
H        2.85404501       0.31359667      -0.74471924
H        2.60407675       0.73410366       0.95680108
H        1.16352800      -1.38000880      -0.43805695
H       -1.39593618      -1.54234439       1.09236872
H       -1.63764047      -0.65495529      -1.45511518
H       -0.85150599       0.79702784      -0.84943539
H       -2.72171984       0.87176533       0.63383510
14
Frame=8 idx=002984 GeodesicLength=0.28347326791674465 rxn_smarts="[C:1]([C@@:2]1([H:10])[O:3][C@:4]1([C:5]([O:6][H:14])([H:12])[H:13])[H:11])([H:7])([H:8])[H:9]>>[C:1]([C-:2]([O+:3]=[C:4]([C:5]([O:6][H:14])([H:12])[H:13])[H:11])[H:10])([H:7])([H:8])[H:9]"
C        2.10196760       0.58721783      -0.00455354
C        1.06380444      -0.46893928       0.14380525
O        0.24294678      -0.32824957       1.19857969
C       -0.82587468      -0.79733982       0.52485573
C       -1.49834167      -0.04226786      -0.55821116
O       -2.80153063       0.36502302      -0.18320367
H        1.69518961       1.55996667      -0.29606410
H        2.84283642       0.30801845      -0.75481666
H        2.61770920       0.72174847       0.95059361
H        1.16657925      -1.38253219      -0.42487898
H       -1.38207328      -1.54449713       1.08072971
H       -1.63080494      -0.65333833      -1.45667081
H       -0.86399119       0.80992623      -0.85309391
H       -2.72841691       0.86526350       0.63292885
14
Frame=9 idx=002984 GeodesicLength=0.3189631343020024 rxn_smarts="[C:1]([C@@:2]1([H:10])[O:3][C@:4]1([C:5]([O:6][H:14])([H:12])[H:13])[H:11])([H:7])([H:8])[H:9]>>[C:1]([C-:2]([O+:3]=[C:4]([C:5]([O:6][H:14])([H:12])[H:13])[H:11])[H:10])([H:7])([H:8])[H:9]"
C        2.10137039       0.58218699      -0.00386839
C        1.05883198      -0.46978810       0.15346437
O        0.23737502      -0.30935959       1.20641496
C       -0.81845107      -0.78957527       0.51988885
C       -1.49907377      -0.03757212      -0.56032160
O       -2.80498069       0.35541053      -0.18243186
H        1.69660176       1.55793940      -0.28739528
H        2.83172068       0.30258122      -0.76441455
H        2.63077264       0.70945739       0.94445118
H        1.16950366      -1.38484508      -0.41231377
H       -1.36818013      -1.54611744       1.06951118
H       -1.62395815      -0.65175215      -1.45813864
H       -0.87661941       0.82258723      -0.85684018
H       -2.73491292       0.85884700       0.63199374
14
Frame=10 idx=002984 GeodesicLength=0.35447872072119563 rxn_smarts="[C:1]([C@@:2]1([H:10])[O:3][C@:4]1([C:5]([O:6][H:14])([H:12])[H:13])[H:11])([H:7])([H:8])[H:9]>>[C:1]([C-:2]([O+:3]=[C:4]([C:5]([O:6][H:14])([H:12])[H:13])[H:11])[H:10])([H:7])([H:8])[H:9]"
C        2.10073295       0.57713812      -0.00310272
C        1.05401294      -0.47076755       0.16306488
O        0.23194573      -0.29084975       1.21387551
C       -0.81102729      -0.78169402       0.51504453
C       -1.49975971      -0.03292391      -0.56238028
O       -2.80825265       0.34571751      -0.18168552
H        1.69803570       1.55581861      -0.27872823
H        2.82059625       0.29728515      -0.77367971
H        2.64343131       0.69711041       0.93830030
H        1.17228808      -1.38698258      -0.40025188
H       -1.35427151      -1.54720360       1.05871237
H       -1.61697162      -0.65014765      -1.45953883
H       -0.88941053       0.83508529      -0.86060454
H       -2.74134965       0.85241396       0.63097412
14
Frame=11 idx=002984 GeodesicLength=0.39000563890858847 rxn_smarts="[C:1]([C@@:2]1([H:10])[O:3][C@:4]1([C:5]([O:6][H:14])([H:12])[H:13])[H:11])([H:7])([H:8])[H:9]>>[C:1]([C-:2]([O+:3]=[C:4]([C:5]([O:6][H:14])([H:12])[H:13])[H:11])[H:10])([H:7])([H:8])[H:9]"
C        2.10005945       0.57206957      -0.00225904
C        1.04934987      -0.47188253       0.17259636
O        0.22667230      -0.27274309       1.22096530
C       -0.80359706      -0.77373066       0.51029128
C       -1.50040543      -0.02831329      -0.56437922
O       -2.81134336       0.33596720      -0.18092793
H        1.69948309       1.55355540      -0.27022363
H        2.80957765       0.29206335      -0.78249804
H        2.65559727       0.68484243       0.93218922
H        1.17492899      -1.38893397      -0.38874244
H       -1.34037332      -1.54778621       1.04830508
H       -1.60988069      -0.64849001      -1.46087595
H       -0.90236505       0.84742514      -0.86436429
H       -2.74770371       0.84595666       0.62992329
14
Frame=12 idx=002984 GeodesicLength=0.425555261197141 rxn_smarts="[C:1]([C@@:2]1([H:10])[O:3][C@:4]1([C:5]([O:6][H:14])([H:12])[H:13])[H:11])([H:7])([H:8])[H:9]>>[C:1]([C-:2]([O+:3]=[C:4]([C:5]([O:6][H:14])([H:12])[H:13])[H:11])[H:10])([H:7])([H:8])[H:9]"
C        2.09937186       0.56697470      -0.00135492
C        1.04482929      -0.47311025       0.18208736
O        0.22154527      -0.25496421       1.22772799
C       -0.79617473      -0.76564860       0.50565649
C       -1.50100454      -0.02372281      -0.56631853
O       -2.81428328       0.32610710      -0.18021708
H        1.70098178       1.55118923      -0.26177880
H        2.79858888       0.28692277      -0.79100473
H        2.66741064       0.67254883       0.92605994
H        1.17741810      -1.39072578      -0.37770441
H       -1.32650104      -1.54786741       1.03829329
H       -1.60260142      -0.64675602      -1.46216312
H       -0.91550175       0.85965012      -0.86808360
H       -2.75407906       0.83940234       0.62880010
14
Frame=13 idx=002984 GeodesicLength=0.46114445388168057 rxn_smarts="[C:1]([C@@:2]1([H:10])[O:3][C@:4]1([C:5]([O:6][H:14])([H:12])[H:13])[H:11])([H:7])([H:8])[H:9]>>[C:1]([C-:2]([O+:3]=[C:4]([C:5]([O:6][H:14])([H:12])[H:13])[H:11])[H:10])([H:7])([H:8])[H:9]"
C        2.09867836       0.56184215      -0.00040843
C        1.04044149      -0.47443533       0.19157159
O        0.21656678      -0.23745224       1.23420020
C       -0.78876626      -0.75741686       0.50116022
C       -1.50154512      -0.01913020      -0.56819662
O       -2.81709041       0.31608575      -0.17960425
H        1.70254882       1.54873864      -0.25332011
H        2.78754341       0.28186713      -0.79931162
H        2.67897754       0.66014570       0.91985240
H        1.17975253      -1.39238453      -0.36704696
H       -1.31266239      -1.54744957       1.02867515
H       -1.59505073      -0.64490334      -1.46341621
H       -0.92883726       0.87180702      -0.87171865
H       -2.76055675       0.83268567       0.62756329
14
Frame=14 idx=002984 GeodesicLength=0.4967972782674679 rxn_smarts="[C:1]([C@@:2]1([H:10])[O:3][C@:4]1([C:5]([O:6][H:14])([H:12])[H:13])[H:11])([H:7])([H:8])[H:9]>>[C:1]([C-:2]([O+:3]=[C:4]([C:5]([O:6][H:14])([H:12])[H:13])[H:11])[H:10])([H:7])([H:8])[H:9]"
C        2.09799488       0.55665741       0.00056004
C        1.03617360      -0.47583565       0.20108237
O        0.21173337      -0.22012201       1.24041816
C       -0.78137964      -0.74898508       0.49683548
C       -1.50201650      -0.01451132      -0.57001074
O       -2.81979822       0.30582516      -0.17916113
H        1.70422987       1.54623422      -0.24473109
H        2.77632941       0.27691270      -0.80756230
H        2.69044242       0.64749361       0.91348024
H        1.18192202      -1.39393649      -0.35666329
H       -1.29885732      -1.54650828       1.01946256
H       -1.58711645      -0.64288949      -1.46465157
H       -0.94239726       0.88395253      -0.87521276
H       -2.76726020       0.82571267       0.62615402
14
Frame=15 idx=002984 GeodesicLength=0.5324927125470812 rxn_smarts="[C:1]([C@@:2]1([H:10])[O:3][C@:4]1([C:5]([O:6][H:14])([H:12])[H:13])[H:11])([H:7])([H:8])[H:9]>>[C:1]([C-:2]([O+:3]=[C:4]([C:5]([O:6][H:14])([H:12])[H:13])[H:11])[H:10])([H:7])([H:8])[H:9]"
C        2.09731009       0.55143943       0.00156506
C        1.03202653      -0.47731475       0.21060108
O        0.20704410      -0.20302157       1.24637330
C       -0.77400796      -0.74041946       0.49263172
C       -1.50243177      -0.00988842      -0.57176967
O       -2.82236408       0.29540473      -0.17881454
H        1.70599512       1.54365723      -0.23611455
H        2.76504121       0.27204539      -0.81563805
H        2.70169518       0.63472266       0.90700914
H        1.18394813      -1.39537170      -0.34660676
H       -1.28511771      -1.54509645       1.01062211
H       -1.57892060      -0.64073356      -1.46586269
H       -0.95616544       0.89601518      -0.87863269
H       -2.77405281       0.81856129       0.62463654
14
Frame=16 idx=002984 GeodesicLength=0.568213543488414 rxn_smarts="[C:1]([C@@:2]1([H:10])[O:3][C@:4]1([C:5]([O:6][H:14])([H:12])[H:13])[H:11])([H:7])([H:8])[H:9]>>[C:1]([C-:2]([O+:3]=[C:4]([C:5]([O:6][H:14])([H:12])[H:13])[H:11])[H:10])([H:7])([H:8])[H:9]"
C        2.09661417       0.54620636       0.00262324
C        1.02800023      -0.47887551       0.22010994
O        0.20249348      -0.18618959       1.25205854
C       -0.76664418      -0.73177626       0.48850496
C       -1.50280385      -0.00528596      -0.57348262
O       -2.82475326       0.28489823      -0.17849782
H        1.70781479       1.54099738      -0.22754229
H        2.75375706       0.26726082      -0.82344592
H        2.71265359       0.62193520       0.90050100
H        1.18584916      -1.39667684      -0.33692473
H       -1.27146691      -1.54326094       1.00211687
H       -1.57057940      -0.63846844      -1.46704037
H       -0.97012339       0.90792314      -0.88204537
H       -2.78081150       0.81131242       0.62306456
