15
Frame=0 idx=007166 GeodesicLength=0.0 rxn_smarts="[C:1]([C@@:2]1([H:11])[C:3]([H:12])([H:13])[N:4]1[C:5]([C:6]#[N:7])([H:14])[H:15])([H:8])([H:9])[H:10]>>[C:1]([C@@:2]([C:3]([C:6]#[N:7])([H:12])[H:13])([N:4]=[C:5]([H:14])[H:15])[H:11])([H:8])([H:9])[H:10]"
C       -1.78033682      -0.80571090       0.65960359
C       -0.38399717      -0.46351118       0.15500680
C       -0.45546706       0.71278618      -0.80472533
N        0.40645166       0.27547758       1.06516993
C        1.67206674       0.26205285       0.49620652
C        1.60418830       0.58735037      -1.08382867
N        2.16048157       0.77983723      -2.08182948
H       -2.25622279       0.06807520       1.10623878
H       -1.70555401      -1.58404249       1.41834555
H       -2.40309151      -1.17673009      -0.15562737
H        0.09288148      -1.35668663      -0.27823996
H       -0.03404537       1.66293183      -0.51125995
H       -1.39059546       0.83605512      -1.36517171
H        2.38036409       0.95462573       0.94712673
H        2.09287636      -0.75251085       0.43298452
15
Frame=1 idx=007166 GeodesicLength=0.08688326203262661 rxn_smarts="[C:1]([C@@:2]1([H:11])[C:3]([H:12])([H:13])[N:4]1[C:5]([C:6]#[N:7])([H:14])[H:15])([H:8])([H:9])[H:10]>>[C:1]([C@@:2]([C:3]([C:6]#[N:7])([H:12])[H:13])([N:4]=[C:5]([H:14])[H:15])[H:11])([H:8])([H:9])[H:10]"
C       -1.78023611      -0.81349705       0.65855911
C       -0.39023254      -0.46445258       0.14449285
C       -0.45649455       0.72526938      -0.79564109
N        0.40297903       0.27642487       1.05249630
C        1.67545642       0.26461921       0.50633814
C        1.61031840       0.57352366      -1.09985738
N        2.17528508       0.73642214      -2.09751191
H       -2.25318253       0.05372179       1.12077713
H       -1.69738732      -1.60175084       1.40629654
H       -2.41142197      -1.17500478      -0.15457384
H        0.08298849      -1.35085588      -0.30452903
H       -0.03659453       1.68098495      -0.51761520
H       -1.39905113       0.86155170      -1.33987544
H        2.36777315       0.97795471       0.95093186
H        2.10980013      -0.74491130       0.46971196
15
Frame=2 idx=007166 GeodesicLength=0.1737020021916099 rxn_smarts="[C:1]([C@@:2]1([H:11])[C:3]([H:12])([H:13])[N:4]1[C:5]([C:6]#[N:7])([H:14])[H:15])([H:8])([H:9])[H:10]>>[C:1]([C@@:2]([C:3]([C:6]#[N:7])([H:12])[H:13])([N:4]=[C:5]([H:14])[H:15])[H:11])([H:8])([H:9])[H:10]"
C       -1.77998955      -0.82119465       0.65739358
C       -0.39649491      -0.46522138       0.13378353
C       -0.45732995       0.73783411      -0.78638436
N        0.39985734       0.27690864       1.03984425
C        1.67884534       0.26727473       0.51665531
C        1.61624893       0.55967864      -1.11602887
N        2.18984226       0.69223934      -2.11252320
H       -2.24959509       0.03924959       1.13535620
H       -1.68911875      -1.61939328       1.39372670
H       -2.41981591      -1.17299656      -0.15336225
H        0.07266196      -1.34459995      -0.33126553
H       -0.03973677       1.69914907      -0.52356106
H       -1.40689634       0.88639982      -1.31448652
H        2.35498256       1.00106080       0.95414436
H        2.12653886      -0.73638891       0.50670784
15
Frame=3 idx=007166 GeodesicLength=0.2604732058239814 rxn_smarts="[C:1]([C@@:2]1([H:11])[C:3]([H:12])([H:13])[N:4]1[C:5]([C:6]#[N:7])([H:14])[H:15])([H:8])([H:9])[H:10]>>[C:1]([C@@:2]([C:3]([C:6]#[N:7])([H:12])[H:13])([N:4]=[C:5]([H:14])[H:15])[H:11])([H:8])([H:9])[H:10]"
C       -1.77958294      -0.82881217       0.65609672
C       -0.40278172      -0.46579804       0.12286855
C       -0.45796906       0.75049476      -0.77693996
N        0.39709992       0.27692671       1.02720689
C        1.68224235       0.27002901       0.52716125
C        1.62197474       0.54583049      -1.13237930
N        2.20413225       0.64717598      -2.12685270
H       -2.24544133       0.02463110       1.14997402
H       -1.68073496      -1.63698075       1.38060462
H       -2.42825743      -1.17070825      -0.15198903
H        0.06188070      -1.33787495      -0.35847428
H       -0.04350019       1.71744740      -0.52903756
H       -1.41414675       0.91062126      -1.28902560
H        2.34198464       1.02394327       0.95677529
H        2.14309976      -0.72692583       0.54401108
15
Frame=4 idx=007166 GeodesicLength=0.34721150569669756 rxn_smarts="[C:1]([C@@:2]1([H:11])[C:3]([H:12])([H:13])[N:4]1[C:5]([C:6]#[N:7])([H:14])[H:15])([H:8])([H:9])[H:10]>>[C:1]([C@@:2]([C:3]([C:6]#[N:7])([H:12])[H:13])([N:4]=[C:5]([H:14])[H:15])[H:11])([H:8])([H:9])[H:10]"
C       -1.77900908      -0.83635023       0.65466586
C       -0.40909462      -0.46616961       0.11174256
C       -0.45841082       0.76325242      -0.76729902
N        0.39471878       0.27647673       1.01457179
C        1.68565364       0.27288294       0.53785501
C        1.62749018       0.53196606      -1.14895368
N        2.21816083       0.60122501      -2.14047978
H       -2.24070896       0.00985582       1.16462479
H       -1.67222832      -1.65450848       1.36692139
H       -2.43673747      -1.16814730      -0.15044030
H        0.05061840      -1.33064813      -0.38616702
H       -0.04791996       1.73588230      -0.53400108
H       -1.42080534       0.93421690      -1.26352645
H        2.32879006       1.04658060       0.95882817
H        2.15948268      -0.71651504       0.58165775
15
Frame=5 idx=007166 GeodesicLength=0.43391127597895196 rxn_smarts="[C:1]([C@@:2]1([H:11])[C:3]([H:12])([H:13])[N:4]1[C:5]([C:6]#[N:7])([H:14])[H:15])([H:8])([H:9])[H:10]>>[C:1]([C@@:2]([C:3]([C:6]#[N:7])([H:12])[H:13])([N:4]=[C:5]([H:14])[H:15])[H:11])([H:8])([H:9])[H:10]"
C       -1.77824640      -0.84381651       0.65308090
C       -0.41542613      -0.46630659       0.10039112
C       -0.45864384       0.77613303      -0.75743745
N        0.39273474       0.27555886       1.00193061
C        1.68908941       0.27585091       0.54873826
C        1.63279038       0.51812462      -1.16578447
N        2.23183018       0.55418657      -2.15335697
H       -2.23537125      -0.00512402       1.17929354
H       -1.66358051      -1.67198841       1.35261326
H       -2.44522815      -1.16531600      -0.14871164
H        0.03886162      -1.32286118      -0.41437748
H       -0.05302368       1.75450308      -0.53836026
H       -1.42688974       0.95719995      -1.23802401
H        2.31541179       1.06895790       0.96030467
H        2.17569158      -0.70510221       0.61969992
15
Frame=6 idx=007166 GeodesicLength=0.5205858680532923 rxn_smarts="[C:1]([C@@:2]1([H:11])[C:3]([H:12])([H:13])[N:4]1[C:5]([C:6]#[N:7])([H:14])[H:15])([H:8])([H:9])[H:10]>>[C:1]([C@@:2]([C:3]([C:6]#[N:7])([H:12])[H:13])([N:4]=[C:5]([H:14])[H:15])[H:11])([H:8])([H:9])[H:10]"
C       -1.77727696      -0.85121826       0.65133180
C       -0.42177237      -0.46619033       0.08880310
C       -0.45866102       0.78914781      -0.74733890
N        0.39116592       0.27417360       0.98926555
C        1.69256392       0.27893292       0.55980830
C        1.63786954       0.50429949      -1.18292672
N        2.24510431       0.50598385      -2.16542335
H       -2.22940235      -0.02034036       1.19397091
H       -1.65477732      -1.68941571       1.33765027
H       -2.45371281      -1.16221642      -0.14679416
H        0.02658648      -1.31446504      -0.44312294
H       -0.05883996       1.77332370      -0.54205402
H       -1.43241281       0.97957756      -1.21254837
H        2.30185402       1.09105797       0.96120369
H        2.19171142      -0.69265077       0.65817484
15
Frame=7 idx=007166 GeodesicLength=0.6072464185271247 rxn_smarts="[C:1]([C@@:2]1([H:11])[C:3]([H:12])([H:13])[N:4]1[C:5]([C:6]#[N:7])([H:14])[H:15])([H:8])([H:9])[H:10]>>[C:1]([C@@:2]([C:3]([C:6]#[N:7])([H:12])[H:13])([N:4]=[C:5]([H:14])[H:15])[H:11])([H:8])([H:9])[H:10]"
C       -1.77609297      -0.85855305       0.64941778
C       -0.42813721      -0.46580998       0.07697420
C       -0.45845654       0.80228724      -0.73699797
N        0.39003169       0.27231893       0.97654914
C        1.69608306       0.28212019       0.57106061
C        1.64271972       0.49044847      -1.20043777
N        2.25798099       0.45667533      -2.17663566
H       -2.22278127      -0.03579607       1.20864509
H       -1.64581413      -1.70677621       1.32202725
H       -2.46218553      -1.15885841      -0.14466463
H        0.01375652      -1.30542804      -0.47240401
H       -0.06540296       1.79232940      -0.54503675
H       -1.43736876       1.00133835      -1.18714825
H        2.28814581       1.11285469       0.96152222
H        2.20752159      -0.67915085       0.69712877
15
Frame=8 idx=007166 GeodesicLength=0.6938898839460693 rxn_smarts="[C:1]([C@@:2]1([H:11])[C:3]([H:12])([H:13])[N:4]1[C:5]([C:6]#[N:7])([H:14])[H:15])([H:8])([H:9])[H:10]>>[C:1]([C@@:2]([C:3]([C:6]#[N:7])([H:12])[H:13])([N:4]=[C:5]([H:14])[H:15])[H:11])([H:8])([H:9])[H:10]"
C       -1.77467160      -0.86582907       0.64731983
C       -0.43451334      -0.46514152       0.06489402
C       -0.45801337       0.81557079      -0.72639165
N        0.38935604       0.26999424       0.96376296
C        1.69966552       0.28541940       0.58249431
C        1.64732997       0.47656893      -1.21837163
N        2.27036287       0.40612220      -2.18691020
H       -2.21547245      -0.05153533       1.22330022
H       -1.63667548      -1.72407888       1.30568748
H       -2.47062287      -1.15524316      -0.14232236
H        0.00034772      -1.29569009      -0.50223785
H       -0.07272747       1.81154944      -0.54722283
H       -1.44176779       1.02249110      -1.16185882
H        2.27429557       1.13433013       0.96125149
H        2.22310669      -0.66452819       0.73660506
15
Frame=9 idx=007166 GeodesicLength=0.7804989736131352 rxn_smarts="[C:1]([C@@:2]1([H:11])[C:3]([H:12])([H:13])[N:4]1[C:5]([C:6]#[N:7])([H:14])[H:15])([H:8])([H:9])[H:10]>>[C:1]([C@@:2]([C:3]([C:6]#[N:7])([H:12])[H:13])([N:4]=[C:5]([H:14])[H:15])[H:11])([H:8])([H:9])[H:10]"
C       -1.77302539      -0.87303373       0.64504104
C       -0.44090659      -0.46419118       0.05258599
C       -0.45732362       0.82897526      -0.71552324
N        0.38913382       0.26718660       0.95086924
C        1.70330929       0.28881133       0.59412435
C        1.65166839       0.46256221      -1.23678854
N        2.28236359       0.35447011      -2.19612857
H       -2.20748419      -0.06754748       1.23791356
H       -1.62738692      -1.74128756       1.28864372
H       -2.47903495      -1.15135885      -0.13975296
H       -0.01366987      -1.28523570      -0.53255043
H       -0.08090703       1.83090490      -0.54856452
H       -1.44558703       1.04302731      -1.13671085
H        2.26036545       1.15551450       0.96036099
H        2.23848506      -0.64879770       0.77648023
15
Frame=10 idx=007166 GeodesicLength=0.8670989360409947 rxn_smarts="[C:1]([C@@:2]1([H:11])[C:3]([H:12])([H:13])[N:4]1[C:5]([C:6]#[N:7])([H:14])[H:15])([H:8])([H:9])[H:10]>>[C:1]([C@@:2]([C:3]([C:6]#[N:7])([H:12])[H:13])([N:4]=[C:5]([H:14])[H:15])[H:11])([H:8])([H:9])[H:10]"
C       -1.77113066      -0.88016675       0.64259032
C       -0.44732167      -0.46293952       0.04002817
C       -0.45637296       0.84248300      -0.70438863
N        0.38941046       0.26390061       0.93783872
C        1.70703137       0.29228392       0.60592822
C        1.65574115       0.44837215      -1.25575956
N        2.29390446       0.30184937      -2.20430646
H       -2.19876179      -0.08383364       1.25249080
H       -1.61792494      -1.75839705       1.27088995
H       -2.48740871      -1.14722488      -0.13691418
H       -0.02834444      -1.27403468      -0.56338503
H       -0.08990450       1.85041101      -0.54903725
H       -1.44882294       1.06291509      -1.11178534
H        2.24634961       1.17631291       0.95884723
H        2.25355555      -0.63193153       0.81696304
15
Frame=11 idx=007166 GeodesicLength=0.9536953009203654 rxn_smarts="[C:1]([C@@:2]1([H:11])[C:3]([H:12])([H:13])[N:4]1[C:5]([C:6]#[N:7])([H:14])[H:15])([H:8])([H:9])[H:10]>>[C:1]([C@@:2]([C:3]([C:6]#[N:7])([H:12])[H:13])([N:4]=[C:5]([H:14])[H:15])[H:11])([H:8])([H:9])[H:10]"
C       -1.76894413      -0.88725056       0.63992869
C       -0.45373816      -0.46134771       0.02720302
C       -0.45513240       0.85614156      -0.69294735
N        0.39021024       0.26014042       0.92465553
C        1.71085288       0.29586137       0.61791999
C        1.65954097       0.43402740      -1.27532943
N        2.30478599       0.24794454      -2.21135250
H       -2.18924652      -0.10048539       1.26701864
H       -1.60825925      -1.77544498       1.25230760
H       -2.49569229      -1.14282172      -0.13381355
H       -0.04368576      -1.26198781      -0.59477980
H       -0.09972569       1.87014624      -0.54850967
H       -1.45150638       1.08216842      -1.08712433
H        2.23225445       1.19673254       0.95669626
H        2.26828605      -0.61382431       0.85812690
15
Frame=12 idx=007166 GeodesicLength=1.0402777135384396 rxn_smarts="[C:1]([C@@:2]1([H:11])[C:3]([H:12])([H:13])[N:4]1[C:5]([C:6]#[N:7])([H:14])[H:15])([H:8])([H:9])[H:10]>>[C:1]([C@@:2]([C:3]([C:6]#[N:7])([H:12])[H:13])([N:4]=[C:5]([H:14])[H:15])[H:11])([H:8])([H:9])[H:10]"
C       -1.76649092      -0.89425097       0.63710535
C       -0.46018182      -0.45944167       0.01413596
C       -0.45358959       0.86986316      -0.68123433
N        0.39155408       0.25588831       0.91126382
C        1.71477395       0.29948273       0.63008775
C        1.66303691       0.41931743      -1.29558632
N        2.31521246       0.19336386      -2.21725541
H       -2.17893677      -0.11741410       1.28148604
H       -1.59843264      -1.79234947       1.23300352
H       -2.50391852      -1.13816570      -0.13037547
H       -0.05976721      -1.24913956      -0.62664839
H       -0.11040086       1.88997747      -0.54700955
H       -1.45358502       1.10071956      -1.06283455
H        2.21813609       1.21669636       0.95386899
H        2.28258986      -0.59454741       0.89999261
15
Frame=13 idx=007166 GeodesicLength=1.1268445951427668 rxn_smarts="[C:1]([C@@:2]1([H:11])[C:3]([H:12])([H:13])[N:4]1[C:5]([C:6]#[N:7])([H:14])[H:15])([H:8])([H:9])[H:10]>>[C:1]([C@@:2]([C:3]([C:6]#[N:7])([H:12])[H:13])([N:4]=[C:5]([H:14])[H:15])[H:11])([H:8])([H:9])[H:10]"
C       -1.76375251      -0.90116878       0.63411661
C       -0.46665184      -0.45720509       0.00082670
C       -0.45172069       0.88364538      -0.66923717
N        0.39346713       0.25113714       0.89762568
C        1.71880628       0.30313705       0.64243742
C        1.66620189       0.40417393      -1.31659321
N        2.32515783       0.13814473      -2.22196100
H       -2.16778140      -0.13465259       1.29589339
H       -1.58844264      -1.80911022       1.21293798
H       -2.51206970      -1.13324547      -0.12656880
H       -0.07662979      -1.23544216      -0.65898029
H       -0.12192865       1.90991386      -0.54445763
H       -1.45506885       1.11854481      -1.03899940
H        2.20401935       1.23616792       0.95033863
H        2.29639359      -0.57404050       0.94262110
15
Frame=14 idx=007166 GeodesicLength=1.2133855846386665 rxn_smarts="[C:1]([C@@:2]1([H:11])[C:3]([H:12])([H:13])[N:4]1[C:5]([C:6]#[N:7])([H:14])[H:15])([H:8])([H:9])[H:10]>>[C:1]([C@@:2]([C:3]([C:6]#[N:7])([H:12])[H:13])([N:4]=[C:5]([H:14])[H:15])[H:11])([H:8])([H:9])[H:10]"
C       -1.76072342      -0.90799527       0.63097790
C       -0.47315647      -0.45463647      -0.01271434
C       -0.44950118       0.89745913      -0.65696106
N        0.39597403       0.24587806       0.88369441
C        1.72295490       0.30679615       0.65497482
C        1.66900644       0.38847064      -1.33841464
N        2.33469182       0.08251456      -2.22544838
H       -2.15574060      -0.15220162       1.31023465
H       -1.57830635      -1.82570091       1.19211100
H       -2.52014454      -1.12805359      -0.12233738
H       -0.09433416      -1.22086780      -0.69173739
H       -0.13431851       1.92990712      -0.54080073
H       -1.45595951       1.13560801      -1.01571393
H        2.18995575       1.25509592       0.94607141
H        2.30960180      -0.55227392       0.98606365
15
Frame=15 idx=007166 GeodesicLength=1.2998908582438677 rxn_smarts="[C:1]([C@@:2]1([H:11])[C:3]([H:12])([H:13])[N:4]1[C:5]([C:6]#[N:7])([H:14])[H:15])([H:8])([H:9])[H:10]>>[C:1]([C@@:2]([C:3]([C:6]#[N:7])([H:12])[H:13])([N:4]=[C:5]([H:14])[H:15])[H:11])([H:8])([H:9])[H:10]"
C       -1.75739768      -0.91472285       0.62770580
C       -0.47970460      -0.45173437      -0.02647515
C       -0.44690895       0.91127593      -0.64441096
N        0.39909874       0.24010066       0.86941973
C        1.72722203       0.31043111       0.66770912
C        1.67140890       0.37207965      -1.36111519
N        2.34389510       0.02669942      -2.22772000
H       -2.14277119      -0.17006150       1.32451169
H       -1.56803746      -1.84210370       1.17052317
H       -2.52814504      -1.12257963      -0.11763153
H       -0.11293853      -1.20539173      -0.72487838
H       -0.14756876       1.94990532      -0.53598850
H       -1.45624974       1.15188176      -0.99306712
H        2.17599509       1.27342366       0.94103519
H        2.32210208      -0.52920374       1.03038211
15
Frame=16 idx=007166 GeodesicLength=1.386326194002002 rxn_smarts="[C:1]([C@@:2]1([H:11])[C:3]([H:12])([H:13])[N:4]1[C:5]([C:6]#[N:7])([H:14])[H:15])([H:8])([H:9])[H:10]>>[C:1]([C@@:2]([C:3]([C:6]#[N:7])([H:12])[H:13])([N:4]=[C:5]([H:14])[H:15])[H:11])([H:8])([H:9])[H:10]"
C       -1.75379571      -0.92132353       0.62435711
C       -0.48632637      -0.44852073      -0.04042554
C       -0.44392409       0.92502020      -0.63162095
N        0.40286251       0.23378333       0.85473690
C        1.73160006       0.31397841       0.68064239
C        1.67334942       0.35478135      -1.38476592
N        2.35305541      -0.02872589      -2.22881804
H       -2.12885863      -0.18815960       1.33871609
H       -1.55769004      -1.85824282       1.14827561
H       -2.53609448      -1.11683338      -0.11235076
H       -0.13253172      -1.18904132      -0.75830912
H       -0.16167688       1.96980015      -0.53000986
H       -1.45592771       1.16729880      -0.97119603
H        2.16220598       1.29104347       0.93519230
H        2.33375226      -0.50485844       1.07557581
