12
Frame=0 idx=004619 GeodesicLength=0.0 rxn_smarts="[C:1]([C:2]#[C:3][C:4]([C:5]#[C:6][H:12])([H:10])[H:11])([H:7])([H:8])[H:9]>>[C:1]([C:2](=[C:3])[C:4]([C:5]#[C:6][H:12])([H:10])[H:11])([H:7])([H:8])[H:9]"
C       -1.88062667       0.36879526       0.29805809
C       -0.96043590      -0.26177513      -0.64695886
C       -0.28158121      -0.70371288      -1.60476268
C        0.66375890      -0.89327977      -0.11480178
C        1.70664702       0.11266503      -0.05809826
C        2.55469167       0.95448208       0.00641406
H       -2.23948195      -0.33421463       1.05140993
H       -1.41331917       1.22317898       0.79077408
H       -2.73869223       0.73228127      -0.26820728
H        1.05018747      -1.87115890      -0.38594199
H        0.22398964      -1.02523694       0.88036333
H        3.31486239       1.69797562       0.05175141
12
Frame=1 idx=004619 GeodesicLength=0.044067583534853454 rxn_smarts="[C:1]([C:2]#[C:3][C:4]([C:5]#[C:6][H:12])([H:10])[H:11])([H:7])([H:8])[H:9]>>[C:1]([C:2](=[C:3])[C:4]([C:5]#[C:6][H:12])([H:10])[H:11])([H:7])([H:8])[H:9]"
C       -1.88904948       0.37700335       0.29727898
C       -0.96963510      -0.27472884      -0.63443880
C       -0.29827402      -0.71337059      -1.59701614
C        0.67197503      -0.89917715      -0.11917439
C        1.70457442       0.11848817      -0.05867428
C        2.55203262       0.96058402       0.00963554
H       -2.24873991      -0.31294357       1.06223947
H       -1.41856940       1.23739622       0.77625930
H       -2.74597751       0.73323781      -0.27527945
H        1.07167008      -1.86765343      -0.40658885
H        0.24911404      -1.05323322       0.88009860
H        3.32087923       1.69439723       0.06566002
12
Frame=2 idx=004619 GeodesicLength=0.08815597691996704 rxn_smarts="[C:1]([C:2]#[C:3][C:4]([C:5]#[C:6][H:12])([H:10])[H:11])([H:7])([H:8])[H:9]>>[C:1]([C:2](=[C:3])[C:4]([C:5]#[C:6][H:12])([H:10])[H:11])([H:7])([H:8])[H:9]"
C       -1.89761511       0.38548069       0.29640387
C       -0.97873766      -0.28780871      -0.62088997
C       -0.31534615      -0.72319264      -1.58849967
C        0.68039696      -0.90523001      -0.12369575
C        1.70254931       0.12407394      -0.05896872
C        2.54936488       0.96650017       0.01312124
H       -2.25778028      -0.29052293       1.07351677
H       -1.42428546       1.25232948       0.76067705
H       -2.75362646       0.73339420      -0.28261047
H        1.09308543      -1.86359132      -0.42831863
H        0.27551476      -1.08210508       0.87919568
H        3.32647976       1.69067222       0.08006861
12
Frame=3 idx=004619 GeodesicLength=0.13224818132414026 rxn_smarts="[C:1]([C:2]#[C:3][C:4]([C:5]#[C:6][H:12])([H:10])[H:11])([H:7])([H:8])[H:9]>>[C:1]([C:2](=[C:3])[C:4]([C:5]#[C:6][H:12])([H:10])[H:11])([H:7])([H:8])[H:9]"
C       -1.90629687       0.39425508       0.29540138
C       -0.98757842      -0.30080349      -0.60626659
C       -0.33258559      -0.73290008      -1.57915674
C        0.68901956      -0.91154753      -0.12826501
C        1.70069741       0.12915204      -0.05850609
C        2.54680899       0.97193421       0.01769575
H       -2.26673411      -0.26701803       1.08498955
H       -1.43049002       1.26786770       0.74420220
H       -2.76150598       0.73291056      -0.29025940
H        1.11430953      -1.85901925      -0.45119112
H        0.30307528      -1.11212543       0.87758979
H        3.33128023       1.68729422       0.09376629
12
Frame=4 idx=004619 GeodesicLength=0.17636363709760253 rxn_smarts="[C:1]([C:2]#[C:3][C:4]([C:5]#[C:6][H:12])([H:10])[H:11])([H:7])([H:8])[H:9]>>[C:1]([C:2](=[C:3])[C:4]([C:5]#[C:6][H:12])([H:10])[H:11])([H:7])([H:8])[H:9]"
C       -1.91508644       0.40333880       0.29427668
C       -0.99619754      -0.31375825      -0.59051318
C       -0.35016945      -0.74272623      -1.56892594
C        0.69784877      -0.91811197      -0.13296423
C        1.69903570       0.13373887      -0.05759985
C        2.54432290       0.97697114       0.02283627
H       -2.27545598      -0.24224565       1.09681356
H       -1.43719262       1.28412040       0.72657809
H       -2.76971159       0.73158950      -0.29812949
H        1.13528377      -1.85390244      -0.47521036
H        0.33196952      -1.14315771       0.87517379
H        3.33535296       1.68414354       0.10766465
12
Frame=5 idx=004619 GeodesicLength=0.2204649548142446 rxn_smarts="[C:1]([C:2]#[C:3][C:4]([C:5]#[C:6][H:12])([H:10])[H:11])([H:7])([H:8])[H:9]>>[C:1]([C:2](=[C:3])[C:4]([C:5]#[C:6][H:12])([H:10])[H:11])([H:7])([H:8])[H:9]"
C       -1.92408711       0.41265583       0.29299491
C       -1.00446451      -0.32643303      -0.57356153
C       -0.36792188      -0.75241261      -1.55772175
C        0.70688129      -0.92486993      -0.13767038
C        1.69764893       0.13777299      -0.05586689
C        2.54194069       0.98157314       0.02917627
H       -2.28416334      -0.21645298       1.10866665
H       -1.44463759       1.30088062       0.70803073
H       -2.77824580       0.72948337      -0.30629116
H        1.15591483      -1.84811864      -0.50034015
H        0.36212076      -1.17525700       0.87191971
H        3.33901372       1.68117825       0.12066357
12
Frame=6 idx=004619 GeodesicLength=0.264588713636569 rxn_smarts="[C:1]([C:2]#[C:3][C:4]([C:5]#[C:6][H:12])([H:10])[H:11])([H:7])([H:8])[H:9]>>[C:1]([C:2](=[C:3])[C:4]([C:5]#[C:6][H:12])([H:10])[H:11])([H:7])([H:8])[H:9]"
C       -1.93322787       0.42226570       0.29156943
C       -1.01240577      -0.33886434      -0.55537976
C       -0.38602886      -0.76225385      -1.54548005
C        0.71612204      -0.93186856      -0.14248831
C        1.69659418       0.14117486      -0.05366105
C        2.53969109       0.98570522       0.03611754
H       -2.29266893      -0.18935732       1.12074866
H       -1.45272297       1.31829090       0.68826387
H       -2.78713920       0.72642176      -0.31461051
H        1.17610013      -1.84171878      -0.52659616
H        0.39368945      -1.20832417       0.86767045
H        3.34199670       1.67852858       0.13384590
12
Frame=7 idx=004619 GeodesicLength=0.3087082365313304 rxn_smarts="[C:1]([C:2]#[C:3][C:4]([C:5]#[C:6][H:12])([H:10])[H:11])([H:7])([H:8])[H:9]>>[C:1]([C:2](=[C:3])[C:4]([C:5]#[C:6][H:12])([H:10])[H:11])([H:7])([H:8])[H:9]"
C       -1.94259126       0.43210336       0.28997726
C       -1.01990487      -0.35081450      -0.53590430
C       -0.40441552      -0.77215104      -1.53209184
C        0.72556737      -0.93904874      -0.14733495
C        1.69598571       0.14388795      -0.05083347
C        2.53767931       0.98930991       0.04386510
H       -2.30114407      -0.16116294       1.13279802
H       -1.46165451       1.33618107       0.66745092
H       -2.79640566       0.72242654      -0.32312378
H        1.19570895      -1.83460657      -0.55389518
H        0.42665420      -1.24229190       0.86237811
H        3.34452036       1.67616686       0.14671410
12
Frame=8 idx=004619 GeodesicLength=0.3528563650082345 rxn_smarts="[C:1]([C:2]#[C:3][C:4]([C:5]#[C:6][H:12])([H:10])[H:11])([H:7])([H:8])[H:9]>>[C:1]([C:2](=[C:3])[C:4]([C:5]#[C:6][H:12])([H:10])[H:11])([H:7])([H:8])[H:9]"
C       -1.95217000       0.44217853       0.28822462
C       -1.02694763      -0.36222069      -0.51513391
C       -0.42314197      -0.78225114      -1.51748181
C        0.73521491      -0.94640201      -0.15224495
C        1.69587706       0.14588838      -0.04755159
C        2.53592841       0.99239784       0.05214171
H       -2.30952285      -0.13172155       1.14489570
H       -1.47147598       1.35459844       0.64541338
H       -2.80608678       0.71730879      -0.33171310
H        1.21464542      -1.82676180      -0.58221350
H        0.46108922      -1.27707197       0.85588073
H        3.34659019       1.67405720       0.15978272
12
Frame=9 idx=004619 GeodesicLength=0.3969585520053777 rxn_smarts="[C:1]([C:2]#[C:3][C:4]([C:5]#[C:6][H:12])([H:10])[H:11])([H:7])([H:8])[H:9]>>[C:1]([C:2](=[C:3])[C:4]([C:5]#[C:6][H:12])([H:10])[H:11])([H:7])([H:8])[H:9]"
C       -1.96197459       0.45247690       0.28628869
C       -1.03335784      -0.37273509      -0.49294351
C       -0.44229136      -0.79255337      -1.50141192
C        0.74503244      -0.95392521      -0.15717063
C        1.69637664       0.14709349      -0.04382850
C        2.53446422       0.99495873       0.06099370
H       -2.31770187      -0.10111789       1.15692167
H       -1.48239375       1.37356933       0.62207407
H       -2.81619798       0.71084861      -0.34037979
H        1.23288052      -1.81805414      -0.61152994
H        0.49684254      -1.31267777       0.84800681
H        3.34832103       1.67211642       0.17297936
12
Frame=10 idx=004619 GeodesicLength=0.44113813757315473 rxn_smarts="[C:1]([C:2]#[C:3][C:4]([C:5]#[C:6][H:12])([H:10])[H:11])([H:7])([H:8])[H:9]>>[C:1]([C:2](=[C:3])[C:4]([C:5]#[C:6][H:12])([H:10])[H:11])([H:7])([H:8])[H:9]"
C       -1.97206212       0.46296254       0.28417214
C       -1.03914677      -0.38226741      -0.46949697
C       -0.46170758      -0.80303501      -1.48396383
C        0.75503021      -0.96157183      -0.16210692
C        1.69760357       0.14744266      -0.03963183
C        2.53352063       0.99681222       0.07042134
H       -2.32577594      -0.06933614       1.16883801
H       -1.49451376       1.39297426       0.59743706
H       -2.82681515       0.70300154      -0.34894729
H        1.25017217      -1.80854969      -0.64171542
H        0.53397852      -1.34892770       0.83869590
H        3.34971623       1.67049457       0.18629780
12
Frame=11 idx=004619 GeodesicLength=0.4853641386668504 rxn_smarts="[C:1]([C:2]#[C:3][C:4]([C:5]#[C:6][H:12])([H:10])[H:11])([H:7])([H:8])[H:9]>>[C:1]([C:2](=[C:3])[C:4]([C:5]#[C:6][H:12])([H:10])[H:11])([H:7])([H:8])[H:9]"
C       -1.98253945       0.47356791       0.28186179
C       -1.04418097      -0.39054695      -0.44473851
C       -0.48134098      -0.81364248      -1.46502748
C        0.76520020      -0.96925719      -0.16700284
C        1.69970702       0.14689780      -0.03499935
C        2.53331660       0.99786001       0.08032083
H       -2.33382332      -0.03657241       1.18048086
H       -1.50810926       1.41271649       0.57156462
H       -2.83802326       0.69366777      -0.35740204
H        1.26635845      -1.79818138      -0.67266999
H        0.57243800      -1.38560920       0.82790973
H        3.35099697       1.66909965       0.19970238
12
Frame=12 idx=004619 GeodesicLength=0.5297426720788325 rxn_smarts="[C:1]([C:2]#[C:3][C:4]([C:5]#[C:6][H:12])([H:10])[H:11])([H:7])([H:8])[H:9]>>[C:1]([C:2](=[C:3])[C:4]([C:5]#[C:6][H:12])([H:10])[H:11])([H:7])([H:8])[H:9]"
C       -1.99344177       0.48427721       0.27935400
C       -1.04841712      -0.39736221      -0.41878513
C       -0.50117008      -0.82435198      -1.44459085
C        0.77553245      -0.97695878      -0.17189243
C        1.70280985       0.14541014      -0.02999984
C        2.53402150       0.99799944       0.09064392
H       -2.34165966      -0.00269848       1.19196490
H       -1.52342518       1.43286901       0.54418922
H       -2.84996544       0.68247225      -0.36552290
H        1.28134044      -1.78693874      -0.70432735
H        0.61213163      -1.42259894       0.81550803
H        3.35224337       1.66788107       0.21345842
12
Frame=13 idx=004619 GeodesicLength=0.5742052150019216 rxn_smarts="[C:1]([C:2]#[C:3][C:4]([C:5]#[C:6][H:12])([H:10])[H:11])([H:7])([H:8])[H:9]>>[C:1]([C:2](=[C:3])[C:4]([C:5]#[C:6][H:12])([H:10])[H:11])([H:7])([H:8])[H:9]"
C       -2.00501588       0.49490966       0.27663364
C       -1.05166686      -0.40231725      -0.39158182
C       -0.52105837      -0.83503302      -1.42247311
C        0.78601981      -0.98445297      -0.17662468
C        1.70708245       0.14309512      -0.02465249
C        2.53593965       0.99723512       0.10120815
H       -2.34978867       0.03162531       1.20280731
H       -1.54089965       1.45305912       0.51582340
H       -2.86266353       0.66956532      -0.37346046
H        1.29491920      -1.77468778      -0.73640578
H        0.65292527      -1.45945161       0.80160082
H        3.35420659       1.66645301       0.22712504
12
Frame=14 idx=004619 GeodesicLength=0.618941376009588 rxn_smarts="[C:1]([C:2]#[C:3][C:4]([C:5]#[C:6][H:12])([H:10])[H:11])([H:7])([H:8])[H:9]>>[C:1]([C:2](=[C:3])[C:4]([C:5]#[C:6][H:12])([H:10])[H:11])([H:7])([H:8])[H:9]"
C       -2.01731737       0.50546360       0.27368924
C       -1.05391513      -0.40515557      -0.36340624
C       -0.54089250      -0.84549832      -1.39877965
C        0.79664292      -0.99170224      -0.18122481
C        1.71260062       0.13993892      -0.01882970
C        2.53920350       0.99547024       0.11235581
H       -2.35777638       0.06673714       1.21335665
H       -1.56093542       1.47352671       0.48584317
H       -2.87642574       0.65417394      -0.38079657
H        1.30710733      -1.76134651      -0.76888528
H        0.69459193      -1.49620765       0.78594469
H        3.35711625       1.66459975       0.24073268
12
Frame=15 idx=004619 GeodesicLength=0.6639881404557224 rxn_smarts="[C:1]([C:2]#[C:3][C:4]([C:5]#[C:6][H:12])([H:10])[H:11])([H:7])([H:8])[H:9]>>[C:1]([C:2](=[C:3])[C:4]([C:5]#[C:6][H:12])([H:10])[H:11])([H:7])([H:8])[H:9]"
C       -2.03059274       0.51577980       0.27050860
C       -1.05501494      -0.40545944      -0.33438618
C       -0.56047263      -0.85552231      -1.37344717
C        0.80738882      -0.99850406      -0.18555663
C        1.71949878       0.13607565      -0.01245487
C        2.54414670       0.99264967       0.12410088
H       -2.36592981       0.10220953       1.22336870
H       -1.58407558       1.49406387       0.45442757
H       -2.89140973       0.63612362      -0.38746496
H        1.31780015      -1.74674850      -0.80149181
H        0.73691262      -1.53253344       0.76854763
H        3.36174838       1.66186560       0.25384825
12
Frame=16 idx=004619 GeodesicLength=0.7095827606477401 rxn_smarts="[C:1]([C:2]#[C:3][C:4]([C:5]#[C:6][H:12])([H:10])[H:11])([H:7])([H:8])[H:9]>>[C:1]([C:2](=[C:3])[C:4]([C:5]#[C:6][H:12])([H:10])[H:11])([H:7])([H:8])[H:9]"
C       -2.04510407       0.52577746       0.26705744
C       -1.05488710      -0.40271295      -0.30490947
C       -0.57956348      -0.86463828      -1.34665341
C        0.81824115      -1.00467821      -0.18957108
C        1.72788985       0.13159361      -0.00524498
C        2.55110797       0.98861321       0.13696395
H       -2.37372260       0.13823245       1.23314196
H       -1.61124491       1.51485359       0.42075755
H       -2.90822926       0.61432976      -0.39284493
H        1.32704060      -1.73066427      -0.83410826
H        0.77953744      -1.56834541       0.74922001
H        3.36893440       1.65763903       0.26619122
