13
Frame=0 idx=010415 GeodesicLength=0.0 rxn_smarts="[C:1]([c:2]1[c:3]([H:11])[n:4]([H:12])[c:5]([O:6][H:13])[n:7]1)([H:8])([H:9])[H:10]>>[C:1]([C:2]1=[C-:3][N+:4]([H:11])([H:12])[C:5]([O:6][H:13])=[N:7]1)([H:8])([H:9])[H:10]"
C        2.11805212       0.50058491       0.05306881
C        0.71672202      -0.00517210       0.08766277
C        0.37647351      -1.32389898       0.25565223
N       -1.18229691      -1.12771797       0.07059589
C       -1.40956774       0.23010388      -0.01574744
O       -2.66758367       0.66805389      -0.10299710
N       -0.33119544       0.91493858      -0.02105843
H        2.28693980       1.22186639       0.85529393
H        2.32259184       1.00686681      -0.89252720
H        2.81548346      -0.32698491       0.17052894
H       -0.56039291      -1.60372623      -0.75983750
H       -1.84888121      -1.78437916       0.44845364
H       -2.63634487       1.62946492      -0.14908850
13
Frame=1 idx=010415 GeodesicLength=0.0514371779824035 rxn_smarts="[C:1]([c:2]1[c:3]([H:11])[n:4]([H:12])[c:5]([O:6][H:13])[n:7]1)([H:8])([H:9])[H:10]>>[C:1]([C:2]1=[C-:3][N+:4]([H:11])([H:12])[C:5]([O:6][H:13])=[N:7]1)([H:8])([H:9])[H:10]"
C        2.11830499       0.50060441       0.05353327
C        0.71639798      -0.00260337       0.09227005
C        0.37005966      -1.31923135       0.25349569
N       -1.18109040      -1.12670843       0.06832719
C       -1.40951803       0.23214785      -0.01760973
O       -2.66810883       0.66781028      -0.10994749
N       -0.33239451       0.91853599      -0.01485482
H        2.29154853       1.21880854       0.85761263
H        2.32057889       1.00975836      -0.89102480
H        2.81459297      -0.32880260       0.16527458
H       -0.55594336      -1.62088826      -0.76683934
H       -1.84568201      -1.77908358       0.45699909
H       -2.63874588       1.62965217      -0.14723632
13
Frame=2 idx=010415 GeodesicLength=0.10287845886840849 rxn_smarts="[C:1]([c:2]1[c:3]([H:11])[n:4]([H:12])[c:5]([O:6][H:13])[n:7]1)([H:8])([H:9])[H:10]>>[C:1]([C:2]1=[C-:3][N+:4]([H:11])([H:12])[C:5]([O:6][H:13])=[N:7]1)([H:8])([H:9])[H:10]"
C        2.11851373       0.50064025       0.05392874
C        0.71606246      -0.00005324       0.09708024
C        0.36370344      -1.31460508       0.25100290
N       -1.17993878      -1.12564265       0.06621458
C       -1.40946276       0.23427836      -0.01905331
O       -2.66856277       0.66766042      -0.11695967
N       -0.33362853       0.92217364      -0.00774440
H        2.29640265       1.21534835       0.86013050
H        2.31820197       1.01313575      -0.88938889
H        2.81367821      -0.33062726       0.15928280
H       -0.55141729      -1.63840295      -0.77349606
H       -1.84246829      -1.77372489       0.46548353
H       -2.64108405       1.62981930      -0.14648097
13
Frame=3 idx=010415 GeodesicLength=0.15432789606055006 rxn_smarts="[C:1]([c:2]1[c:3]([H:11])[n:4]([H:12])[c:5]([O:6][H:13])[n:7]1)([H:8])([H:9])[H:10]>>[C:1]([C:2]1=[C-:3][N+:4]([H:11])([H:12])[C:5]([O:6][H:13])=[N:7]1)([H:8])([H:9])[H:10]"
C        2.11867117       0.50069479       0.05424594
C        0.71571108       0.00248243       0.10211918
C        0.35738481      -1.30999268       0.24830242
N       -1.17884455      -1.12451495       0.06421642
C       -1.40939255       0.23649181      -0.02029580
O       -2.66891475       0.66759714      -0.12444275
N       -0.33490029       0.92584439       0.00021950
H        2.30150312       1.21151490       0.86280020
H        2.31545158       1.01696155      -0.88764244
H        2.81272174      -0.33244664       0.15256837
H       -0.54672928      -1.65638094      -0.77971248
H       -1.83927737      -1.76825294       0.47389415
H       -2.64338472       1.63000115      -0.14627270
13
Frame=4 idx=010415 GeodesicLength=0.20579733106020237 rxn_smarts="[C:1]([c:2]1[c:3]([H:11])[n:4]([H:12])[c:5]([O:6][H:13])[n:7]1)([H:8])([H:9])[H:10]>>[C:1]([C:2]1=[C-:3][N+:4]([H:11])([H:12])[C:5]([O:6][H:13])=[N:7]1)([H:8])([H:9])[H:10]"
C        2.11878590       0.50076842       0.05450977
C        0.71533219       0.00504791       0.10721181
C        0.35101412      -1.30524261       0.24597223
N       -1.17781384      -1.12328612       0.06209782
C       -1.40925170       0.23877163      -0.02264395
O       -2.66902439       0.66757331      -0.13467710
N       -0.33617788       0.92953604       0.00789708
H        2.30659047       1.20775948       0.86530305
H        2.31266938       1.02070232      -0.88597874
H        2.81168143      -0.33421058       0.14585402
H       -0.54150239      -1.67541745      -0.78502011
H       -1.83631922      -1.76231552       0.48216448
H       -2.64598407       1.63031317      -0.14269035
13
Frame=5 idx=010415 GeodesicLength=0.2572815752528086 rxn_smarts="[C:1]([c:2]1[c:3]([H:11])[n:4]([H:12])[c:5]([O:6][H:13])[n:7]1)([H:8])([H:9])[H:10]>>[C:1]([C:2]1=[C-:3][N+:4]([H:11])([H:12])[C:5]([O:6][H:13])=[N:7]1)([H:8])([H:9])[H:10]"
C        2.11884460       0.50086181       0.05466434
C        0.71494227       0.00759702       0.11258228
C        0.34467257      -1.30050354       0.24344365
N       -1.17684792      -1.12196827       0.06012953
C       -1.40906561       0.24116798      -0.02476307
O       -2.66893514       0.66772096      -0.14549757
N       -0.33749839       0.93327358       0.01675549
H        2.31205582       1.20339741       0.86808009
H        2.30937798       1.02514878      -0.88410755
H        2.81058253      -0.33599204       0.13803218
H       -0.53611608      -1.69496084      -0.78976263
H       -1.83341192      -1.75619829       0.49043208
H       -2.64860070       1.63045543      -0.13998882
13
Frame=6 idx=010415 GeodesicLength=0.30878676067482447 rxn_smarts="[C:1]([c:2]1[c:3]([H:11])[n:4]([H:12])[c:5]([O:6][H:13])[n:7]1)([H:8])([H:9])[H:10]>>[C:1]([C:2]1=[C-:3][N+:4]([H:11])([H:12])[C:5]([O:6][H:13])=[N:7]1)([H:8])([H:9])[H:10]"
C        2.11882396       0.50098832       0.05468598
C        0.71453774       0.01010899       0.11829007
C        0.33836848      -1.29579663       0.24073017
N       -1.17594273      -1.12058720       0.05833603
C       -1.40883529       0.24365933      -0.02659955
O       -2.66863043       0.66798619      -0.15698316
N       -0.33888932       0.93702004       0.02703590
H        2.31795472       1.19832763       0.87116418
H        2.30545509       1.03043883      -0.88198667
H        2.80940447      -0.33776472       0.12889016
H       -0.53055468      -1.71504700      -0.79389319
H       -1.83054420      -1.74993804       0.49872492
H       -2.65114781       1.63060426      -0.13839483
13
Frame=7 idx=010415 GeodesicLength=0.3603118650628899 rxn_smarts="[C:1]([c:2]1[c:3]([H:11])[n:4]([H:12])[c:5]([O:6][H:13])[n:7]1)([H:8])([H:9])[H:10]>>[C:1]([C:2]1=[C-:3][N+:4]([H:11])([H:12])[C:5]([O:6][H:13])=[N:7]1)([H:8])([H:9])[H:10]"
C        2.11873144       0.50114997       0.05463023
C        0.71411800       0.01259034       0.12415396
C        0.33206970      -1.29107741       0.23787606
N       -1.17510762      -1.11912317       0.05655095
C       -1.40852914       0.24625098      -0.02865616
O       -2.66806760       0.66843530      -0.16934673
N       -0.34032267       0.94074942       0.03801220
H        2.32404077       1.19287028       0.87437578
H        2.30119586       1.03620675      -0.87969202
H        2.80812120      -0.33947263       0.11903405
H       -0.52472671      -1.73589247      -0.79731969
H       -1.82776998      -1.74341054       0.50696381
H       -2.65375326       1.63072318      -0.13658245
13
Frame=8 idx=010415 GeodesicLength=0.4118614204441493 rxn_smarts="[C:1]([c:2]1[c:3]([H:11])[n:4]([H:12])[c:5]([O:6][H:13])[n:7]1)([H:8])([H:9])[H:10]>>[C:1]([C:2]1=[C-:3][N+:4]([H:11])([H:12])[C:5]([O:6][H:13])=[N:7]1)([H:8])([H:9])[H:10]"
C        2.11853691       0.50135919       0.05445187
C        0.71368206       0.01501082       0.13034465
C        0.32579814      -1.28640000       0.23477988
N       -1.17434199      -1.11759810       0.05487314
C       -1.40815303       0.24894319      -0.03050172
O       -2.66723546       0.66907555      -0.18214237
N       -0.34183483       0.94442961       0.05037288
H        2.33050495       1.18674273       0.87784137
H        2.29631654       1.04279473      -0.87711202
H        2.80670946      -0.34110737       0.10791798
H       -0.51870503      -1.75736477      -0.80008615
H       -1.82504272      -1.73673126       0.51518518
H       -2.65623499       1.63084568      -0.13592469
13
Frame=9 idx=010415 GeodesicLength=0.46344319046252985 rxn_smarts="[C:1]([c:2]1[c:3]([H:11])[n:4]([H:12])[c:5]([O:6][H:13])[n:7]1)([H:8])([H:9])[H:10]>>[C:1]([C:2]1=[C-:3][N+:4]([H:11])([H:12])[C:5]([O:6][H:13])=[N:7]1)([H:8])([H:9])[H:10]"
C        2.11822214       0.50162031       0.05412614
C        0.71322480       0.01737295       0.13696156
C        0.31952324      -1.28173640       0.23164112
N       -1.17364809      -1.11599771       0.05324332
C       -1.40766476       0.25174446      -0.03242141
O       -2.66601502       0.66993900      -0.19604722
N       -0.34343531       0.94803717       0.06414761
H        2.33739562       1.17995387       0.88148136
H        2.29073989       1.05018146      -0.87427009
H        2.80512314      -0.34264537       0.09546952
H       -0.51234897      -1.77962060      -0.80199018
H       -1.82245352      -1.72980262       0.52331966
H       -2.65866317       1.63095348      -0.13566139
13
Frame=10 idx=010415 GeodesicLength=0.5150600515165795 rxn_smarts="[C:1]([c:2]1[c:3]([H:11])[n:4]([H:12])[c:5]([O:6][H:13])[n:7]1)([H:8])([H:9])[H:10]>>[C:1]([C:2]1=[C-:3][N+:4]([H:11])([H:12])[C:5]([O:6][H:13])=[N:7]1)([H:8])([H:9])[H:10]"
C        2.11777167       0.50194679       0.05366651
C        0.71274756       0.01965362       0.14396126
C        0.31324989      -1.27710561       0.22835674
N       -1.17303051      -1.11433077       0.05164185
C       -1.40705490       0.25465643      -0.03434527
O       -2.66438187       0.67106230      -0.21080348
N       -0.34512799       0.95152100       0.07924962
H        2.34465580       1.17251339       0.88528703
H        2.28449179       1.05837396      -0.87111813
H        2.80333319      -0.34403230       0.08173740
H       -0.50569199      -1.80268701      -0.80302544
H       -1.81998537      -1.72264909       0.53136070
H       -2.66097727       1.63107728      -0.13596879
13
Frame=11 idx=010415 GeodesicLength=0.5667120000909569 rxn_smarts="[C:1]([c:2]1[c:3]([H:11])[n:4]([H:12])[c:5]([O:6][H:13])[n:7]1)([H:8])([H:9])[H:10]>>[C:1]([C:2]1=[C-:3][N+:4]([H:11])([H:12])[C:5]([O:6][H:13])=[N:7]1)([H:8])([H:9])[H:10]"
C        2.11717421       0.50235232       0.05309661
C        0.71225080       0.02183182       0.15126177
C        0.30698237      -1.27252038       0.22480300
N       -1.17249561      -1.11260621       0.05003975
C       -1.40632132       0.25767773      -0.03622219
O       -2.66233155       0.67247278      -0.22613471
N       -0.34691227       0.95483167       0.09548346
H        2.35219682       1.16445596       0.88924860
H        2.27764409       1.06734949      -0.86760602
H        2.80131553      -0.34520931       0.06683743
H       -0.49877583      -1.82660345      -0.80318486
H       -1.81761049      -1.71529400       0.53930935
H       -2.66311674       1.63126159      -0.13693220
13
Frame=12 idx=010415 GeodesicLength=0.6183931765433928 rxn_smarts="[C:1]([c:2]1[c:3]([H:11])[n:4]([H:12])[c:5]([O:6][H:13])[n:7]1)([H:8])([H:9])[H:10]>>[C:1]([C:2]1=[C-:3][N+:4]([H:11])([H:12])[C:5]([O:6][H:13])=[N:7]1)([H:8])([H:9])[H:10]"
C        2.11643261       0.50284566       0.05246186
C        0.71173571       0.02389328       0.15870592
C        0.30072507      -1.26798271       0.22080897
N       -1.17205142      -1.11083004       0.04838211
C       -1.40547738       0.26080687      -0.03802497
O       -2.65990504       0.67419073      -0.24167535
N       -0.34877293       0.95793453       0.11243017
H        2.35985529       1.15591244       0.89332722
H        2.27038066       1.07696954      -0.86371484
H        2.79906668      -0.34611995       0.05109021
H       -0.49165244      -1.85140846      -0.80248805
H       -1.81528597      -1.70776793       0.54714814
H       -2.66505083       1.63155604      -0.13845139
13
Frame=13 idx=010415 GeodesicLength=0.6700990092351151 rxn_smarts="[C:1]([c:2]1[c:3]([H:11])[n:4]([H:12])[c:5]([O:6][H:13])[n:7]1)([H:8])([H:9])[H:10]>>[C:1]([C:2]1=[C-:3][N+:4]([H:11])([H:12])[C:5]([O:6][H:13])=[N:7]1)([H:8])([H:9])[H:10]"
C        2.11554943       0.50343211       0.05179068
C        0.71120165       0.02582833       0.16619138
C        0.29447850      -1.26348845       0.21625055
N       -1.17170553      -1.10900501       0.04662895
C       -1.40453918       0.26404419      -0.03971986
O       -2.65713586       0.67622778      -0.25721468
N       -0.35069899       0.96080924       0.12981559
H        2.36753001       1.14695841       0.89749966
H        2.26282053       1.08714883      -0.85942625
H        2.79658567      -0.34672382       0.03469231
H       -0.48435029      -1.87713459      -0.80091807
H       -1.81297860      -1.70009763       0.55485967
H       -2.66675735       1.63200061      -0.14044994
13
Frame=14 idx=010415 GeodesicLength=0.7218236780930836 rxn_smarts="[C:1]([c:2]1[c:3]([H:11])[n:4]([H:12])[c:5]([O:6][H:13])[n:7]1)([H:8])([H:9])[H:10]>>[C:1]([C:2]1=[C-:3][N+:4]([H:11])([H:12])[C:5]([O:6][H:13])=[N:7]1)([H:8])([H:9])[H:10]"
C        2.11453627       0.50411208       0.05111628
C        0.71064768       0.02763411       0.17359201
C        0.28824069      -1.25902337       0.21099800
N       -1.17146636      -1.10712884       0.04472812
C       -1.40352809       0.26739158      -0.04131965
O       -2.65407897       0.67859068      -0.27255531
N       -0.35267426       0.96345293       0.14731807
H        2.37510837       1.13768675       0.90174453
H        2.25511617       1.09777384      -0.85473457
H        2.79388593      -0.34699365       0.01788713
H       -0.47689060      -1.90382215      -0.79844563
H       -1.81065126      -1.69229804       0.56242681
H       -2.66824557       1.63262409      -0.14275580
13
Frame=15 idx=010415 GeodesicLength=0.7735621309709001 rxn_smarts="[C:1]([c:2]1[c:3]([H:11])[n:4]([H:12])[c:5]([O:6][H:13])[n:7]1)([H:8])([H:9])[H:10]>>[C:1]([C:2]1=[C-:3][N+:4]([H:11])([H:12])[C:5]([O:6][H:13])=[N:7]1)([H:8])([H:9])[H:10]"
C        2.11340292       0.50488454       0.05045909
C        0.71007144       0.02930825       0.18081837
C        0.28200835      -1.25457210       0.20493988
N       -1.17134222      -1.10519920       0.04264235
C       -1.40246778       0.27085087      -0.04281589
O       -2.65078626       0.68127993      -0.28756380
N       -0.35468761       0.96586876       0.16474306
H        2.38252289       1.12813912       0.90605889
H        2.24736724       1.10878423      -0.84962653
H        2.79098159      -0.34691126       0.00081359
H       -0.46928364      -1.93150038      -0.79501893
H       -1.80826848      -1.68438758       0.56983860
H       -2.66951844       1.63345483      -0.14528869
13
Frame=16 idx=010415 GeodesicLength=0.8253087149422882 rxn_smarts="[C:1]([c:2]1[c:3]([H:11])[n:4]([H:12])[c:5]([O:6][H:13])[n:7]1)([H:8])([H:9])[H:10]>>[C:1]([C:2]1=[C-:3][N+:4]([H:11])([H:12])[C:5]([O:6][H:13])=[N:7]1)([H:8])([H:9])[H:10]"
C        2.11216028       0.50574737       0.04983690
C        0.70946927       0.03084879       0.18778010
C        0.27577789      -1.25011729       0.19795316
N       -1.17134240      -1.10321463       0.04034082
C       -1.40138720       0.27442219      -0.04419166
O       -2.64732167       0.68428865      -0.30210034
N       -0.35672947       0.96806426       0.18193560
H        2.38971632       1.11833491       0.91045452
H        2.23966381       1.12014147      -0.84408202
H        2.78789162      -0.34646297      -0.01642120
H       -0.46154007      -1.96019141      -0.79057836
H       -1.80578634      -1.67638853       0.57709668
H       -2.67057205       1.63452719      -0.14802420
