16
Frame=0 idx=007601 GeodesicLength=0.0 rxn_smarts="[C:1]([C@@:2]1([H:11])[N:3]([H:12])[C@:4]1([C:5]([C:6](=[O:7])[H:16])([H:14])[H:15])[H:13])([H:8])([H:9])[H:10]>>[C:1]([C-:2]([N:3]([C+:4]([C:5]([C:6](=[O:7])[H:16])([H:14])[H:15])[H:13])[H:12])[H:11])([H:8])([H:9])[H:10]"
C       -1.54443496       0.10081123       1.55151877
C       -1.25124222      -0.16285676       0.11211088
N       -0.98708257       0.83901417      -0.75748496
C        0.18794738       0.39166235      -1.27125678
C        1.46017707       0.30801003      -0.47677884
C        1.92969998      -1.12155725      -0.33897350
O        2.90032340      -1.58422299      -0.87111257
H       -0.63990957       0.29017382       2.13878558
H       -2.16887275       0.99758894       1.64586648
H       -2.06618826      -0.73874989       2.01124228
H       -1.41674743      -1.14321007      -0.30920148
H       -1.49970570       1.69344168      -0.93321536
H        0.28799104       0.29855212      -2.35264502
H        1.28748996       0.70720956       0.52682117
H        2.26004778       0.88042665      -0.95788008
H        1.26050682      -1.75629357       0.28220350
16
Frame=1 idx=007601 GeodesicLength=0.058434623903893944 rxn_smarts="[C:1]([C@@:2]1([H:11])[N:3]([H:12])[C@:4]1([C:5]([C:6](=[O:7])[H:16])([H:14])[H:15])[H:13])([H:8])([H:9])[H:10]>>[C:1]([C-:2]([N:3]([C+:4]([C:5]([C:6](=[O:7])[H:16])([H:14])[H:15])[H:13])[H:12])[H:11])([H:8])([H:9])[H:10]"
C       -1.56135930       0.10566991       1.54929186
C       -1.24188271      -0.15468579       0.11444855
N       -0.97053835       0.86062779      -0.73837094
C        0.19415007       0.39237610      -1.25744826
C        1.46937000       0.30135028      -0.47100246
C        1.94230533      -1.12819341      -0.34808418
O        2.84773128      -1.61586212      -0.96610658
H       -0.66974042       0.31366147       2.14952742
H       -2.20744984       0.98764826       1.63436754
H       -2.07217975      -0.74369095       2.00382558
H       -1.40408073      -1.13674611      -0.30431979
H       -1.52148421       1.67708938      -0.96452212
H        0.28671064       0.31194132      -2.34004413
H        1.30737136       0.69372516       0.53745843
H        2.26642056       0.88131630      -0.94793152
H        1.33465606      -1.74622761       0.34891060
16
Frame=2 idx=007601 GeodesicLength=0.11619798262587441 rxn_smarts="[C:1]([C@@:2]1([H:11])[N:3]([H:12])[C@:4]1([C:5]([C:6](=[O:7])[H:16])([H:14])[H:15])[H:13])([H:8])([H:9])[H:10]>>[C:1]([C-:2]([N:3]([C+:4]([C:5]([C:6](=[O:7])[H:16])([H:14])[H:15])[H:13])[H:12])[H:11])([H:8])([H:9])[H:10]"
C       -1.57641361       0.10875005       1.54642250
C       -1.23212395      -0.14579726       0.11584654
N       -0.95441117       0.88422590      -0.71879308
C        0.19978040       0.39599706      -1.24413707
C        1.47809742       0.29567017      -0.46622247
C        1.95093228      -1.13469397      -0.35625621
O        2.78451313      -1.64969633      -1.04878553
H       -0.69765836       0.33393123       2.15898809
H       -2.24328304       0.97556513       1.62355542
H       -2.07596059      -0.75065471       1.99509136
H       -1.39090311      -1.12915564      -0.30135046
H       -1.54233272       1.65691012      -0.99585256
H        0.28456123       0.32767752      -2.32771644
H        1.32769561       0.68316142       0.54629626
H        2.27384677       0.87969773      -0.94048663
H        1.41365971      -1.73158842       0.41340027
16
Frame=3 idx=007601 GeodesicLength=0.17373017624164444 rxn_smarts="[C:1]([C@@:2]1([H:11])[N:3]([H:12])[C@:4]1([C:5]([C:6](=[O:7])[H:16])([H:14])[H:15])[H:13])([H:8])([H:9])[H:10]>>[C:1]([C-:2]([N:3]([C+:4]([C:5]([C:6](=[O:7])[H:16])([H:14])[H:15])[H:13])[H:12])[H:11])([H:8])([H:9])[H:10]"
C       -1.58972288       0.10998099       1.54269704
C       -1.22232695      -0.13653644       0.11603831
N       -0.93937089       0.90895884      -0.69960380
C        0.20467460       0.40207824      -1.23156953
C        1.48601386       0.29099105      -0.46244591
C        1.95550771      -1.14093181      -0.36279104
O        2.71139376      -1.68568981      -1.11874428
H       -0.72358590       0.35062544       2.16692072
H       -2.27620349       0.96159935       1.61329395
H       -2.07798082      -0.75946727       1.98488993
H       -1.37731266      -1.12096474      -0.30023313
H       -1.56033446       1.63473046      -1.02500964
H        0.28165417       0.34502519      -2.31588232
H        1.34783347       0.67579651       0.55316865
H        2.28187337       0.87578833      -0.93561442
H        1.49788710      -1.71198436       0.47488547
16
Frame=4 idx=007601 GeodesicLength=0.2317001732049708 rxn_smarts="[C:1]([C@@:2]1([H:11])[N:3]([H:12])[C@:4]1([C:5]([C:6](=[O:7])[H:16])([H:14])[H:15])[H:13])([H:8])([H:9])[H:10]>>[C:1]([C-:2]([N:3]([C+:4]([C:5]([C:6](=[O:7])[H:16])([H:14])[H:15])[H:13])[H:12])[H:11])([H:8])([H:9])[H:10]"
C       -1.60146196       0.10910658       1.53797523
C       -1.21264480      -0.12722845       0.11477401
N       -0.92574622       0.93429101      -0.68133656
C        0.20888768       0.41047494      -1.22006037
C        1.49304614       0.28735683      -0.45981248
C        1.95582847      -1.14703493      -0.36689802
O        2.62804511      -1.72483752      -1.17549954
H       -0.74783214       0.36459920       2.17309553
H       -2.30739291       0.94484541       1.60327231
H       -2.07735086      -0.77086095       1.97339135
H       -1.36314189      -1.11264249      -0.30113316
H       -1.57427763       1.61326253      -1.05020619
H        0.27821527       0.36389557      -2.30495727
H        1.36759645       0.67215253       0.55787364
H        2.29046304       0.86946045      -0.93377746
H        1.58776625      -1.68684072       0.53329898
16
Frame=5 idx=007601 GeodesicLength=0.2911679590782933 rxn_smarts="[C:1]([C@@:2]1([H:11])[N:3]([H:12])[C@:4]1([C:5]([C:6](=[O:7])[H:16])([H:14])[H:15])[H:13])([H:8])([H:9])[H:10]>>[C:1]([C-:2]([N:3]([C+:4]([C:5]([C:6](=[O:7])[H:16])([H:14])[H:15])[H:13])[H:12])[H:11])([H:8])([H:9])[H:10]"
C       -1.61426596       0.11036390       1.53311055
C       -1.20352906      -0.11800326       0.11431249
N       -0.91343028       0.95791965      -0.66418307
C        0.21249829       0.41765314      -1.20797307
C        1.49897592       0.28272433      -0.45597335
C        1.95730193      -1.15345043      -0.37268155
O        2.54396013      -1.75935388      -1.22610246
H       -0.77411732       0.38216842       2.17901460
H       -2.33948139       0.92964239       1.59085342
H       -2.07755429      -0.77906901       1.96332285
H       -1.34886419      -1.10519619      -0.29944559
H       -1.58424186       1.59085179      -1.07240064
H        0.27475769       0.38047094      -2.29315879
H        1.38551606       0.66504086       0.56435888
H        2.29733744       0.86409878      -0.92930863
H        1.68513688      -1.66586144       0.57625436
16
Frame=6 idx=007601 GeodesicLength=0.3502844656930184 rxn_smarts="[C:1]([C@@:2]1([H:11])[N:3]([H:12])[C@:4]1([C:5]([C:6](=[O:7])[H:16])([H:14])[H:15])[H:13])([H:8])([H:9])[H:10]>>[C:1]([C-:2]([N:3]([C+:4]([C:5]([C:6](=[O:7])[H:16])([H:14])[H:15])[H:13])[H:12])[H:11])([H:8])([H:9])[H:10]"
C       -1.62542730       0.10934449       1.52714404
C       -1.19536660      -0.10918200       0.11209880
N       -0.90252527       0.98117532      -0.64833383
C        0.21526844       0.42570497      -1.19708651
C        1.50381605       0.27904002      -0.45320363
C        1.95561531      -1.15928277      -0.37503080
O        2.45285372      -1.79631753      -1.26185670
H       -0.79796093       0.39533722       2.18288138
H       -2.36841722       0.91256967       1.57914637
H       -2.07621695      -0.78938135       1.95174335
H       -1.33574799      -1.09784574      -0.30014137
H       -1.58992811       1.57261206      -1.08974425
H        0.27068904       0.39711431      -2.28241933
H        1.40250898       0.66168854       0.56863701
H        2.30400878       0.85689341      -0.92779773
H        1.78683004      -1.63947061       0.61396320
16
Frame=7 idx=007601 GeodesicLength=0.4101650577584943 rxn_smarts="[C:1]([C@@:2]1([H:11])[N:3]([H:12])[C@:4]1([C:5]([C:6](=[O:7])[H:16])([H:14])[H:15])[H:13])([H:8])([H:9])[H:10]>>[C:1]([C-:2]([N:3]([C+:4]([C:5]([C:6](=[O:7])[H:16])([H:14])[H:15])[H:13])[H:12])[H:11])([H:8])([H:9])[H:10]"
C       -1.63737972       0.10950387       1.52105186
C       -1.18815587      -0.10055561       0.11017661
N       -0.89265785       1.00309859      -0.63347361
C        0.21753341       0.43260697      -1.18597820
C        1.50775479       0.27468048      -0.44960921
C        1.95474679      -1.16536281      -0.37782210
O        2.36152150      -1.83057793      -1.28974872
H       -0.82305934       0.41002902       2.18634154
H       -2.39748544       0.89665772       1.56610778
H       -2.07581016      -0.79766793       1.94116483
H       -1.32335300      -1.09119302      -0.29944307
H       -1.59275604       1.55535699      -1.10470929
H        0.26667760       0.41184881      -2.27133172
H        1.41787225       0.65611886       0.57410383
H        2.30934340       0.85030893      -0.92468804
H        1.89520767      -1.61485295       0.63785752
16
Frame=8 idx=007601 GeodesicLength=0.47009971461115496 rxn_smarts="[C:1]([C@@:2]1([H:11])[N:3]([H:12])[C@:4]1([C:5]([C:6](=[O:7])[H:16])([H:14])[H:15])[H:13])([H:8])([H:9])[H:10]>>[C:1]([C-:2]([N:3]([C+:4]([C:5]([C:6](=[O:7])[H:16])([H:14])[H:15])[H:13])[H:12])[H:11])([H:8])([H:9])[H:10]"
C       -1.64862560       0.10850660       1.51424345
C       -1.18188748      -0.09224635       0.10724793
N       -0.88354357       1.02440485      -0.61935000
C        0.21927711       0.43944394      -1.17537141
C        1.51092674       0.27068383      -0.44628476
C        1.95256797      -1.17107825      -0.37807454
O        2.26618444      -1.86591496      -1.30459493
H       -0.84692836       0.42184470       2.18854677
H       -2.42444449       0.88014909       1.55328551
H       -2.07518843      -0.80667810       1.92966305
H       -1.31255378      -1.08455095      -0.30017066
H       -1.59278622       1.54132724      -1.11652756
H        0.26243465       0.42603594      -2.26062608
H        1.43239495       0.65218865       0.57870973
H        2.31420742       0.84280202      -0.92284501
H        2.00796467      -1.58691825       0.65214851
16
Frame=9 idx=007601 GeodesicLength=0.5304841594102939 rxn_smarts="[C:1]([C@@:2]1([H:11])[N:3]([H:12])[C@:4]1([C:5]([C:6](=[O:7])[H:16])([H:14])[H:15])[H:13])([H:8])([H:9])[H:10]>>[C:1]([C-:2]([N:3]([C+:4]([C:5]([C:6](=[O:7])[H:16])([H:14])[H:15])[H:13])[H:12])[H:11])([H:8])([H:9])[H:10]"
C       -1.66065813       0.10837045       1.50727943
C       -1.17666504      -0.08414612       0.10447686
N       -0.87503310       1.04455407      -0.60586458
C        0.22066055       0.44500031      -1.16444950
C        1.51340266       0.26608711      -0.44206040
C        1.95124705      -1.17699262      -0.37808579
O        2.17126939      -1.89939782      -1.31049857
H       -0.87186985       0.43452016       2.19033744
H       -2.45145110       0.86463881       1.53942324
H       -2.07561494      -0.81410290       1.91885633
H       -1.30306543      -1.07836085      -0.30005683
H       -1.59065576       1.52873499      -1.12659282
H        0.25836876       0.43843367      -2.24951783
H        1.44553499       0.64634462       0.58453361
H        2.31795625       0.83583420      -0.91946581
H        2.12657370      -1.55951806       0.65168522
16
Frame=10 idx=007601 GeodesicLength=0.5911535020751056 rxn_smarts="[C:1]([C@@:2]1([H:11])[N:3]([H:12])[C@:4]1([C:5]([C:6](=[O:7])[H:16])([H:14])[H:15])[H:13])([H:8])([H:9])[H:10]>>[C:1]([C-:2]([N:3]([C+:4]([C:5]([C:6](=[O:7])[H:16])([H:14])[H:15])[H:13])[H:12])[H:11])([H:8])([H:9])[H:10]"
C       -1.67364608       0.10920552       1.50020606
C       -1.17252854      -0.07627533       0.10197181
N       -0.86692009       1.06350255      -0.59287933
C        0.22178151       0.44900159      -1.15302787
C        1.51531331       0.26083819      -0.43672153
C        1.95132325      -1.18303464      -0.37786243
O        2.07766048      -1.93101074      -1.30751316
H       -0.89805946       0.44812174       2.19177545
H       -2.47859946       0.85033097       1.52448519
H       -2.07741481      -0.81978221       1.90880360
H       -1.29514189      -1.07259410      -0.29900930
H       -1.58651330       1.51737482      -1.13525536
H        0.25462168       0.44879700      -2.23782464
H        1.45730557       0.63828544       0.59187074
H        2.32059927       0.82967827      -0.91416352
H        2.25021856      -1.53243906       0.63514429
16
Frame=11 idx=007601 GeodesicLength=0.6513743609699718 rxn_smarts="[C:1]([C@@:2]1([H:11])[N:3]([H:12])[C@:4]1([C:5]([C:6](=[O:7])[H:16])([H:14])[H:15])[H:13])([H:8])([H:9])[H:10]>>[C:1]([C-:2]([N:3]([C+:4]([C:5]([C:6](=[O:7])[H:16])([H:14])[H:15])[H:13])[H:12])[H:11])([H:8])([H:9])[H:10]"
C       -1.68683491       0.11012563       1.49291997
C       -1.16942060      -0.06880432       0.09928932
N       -0.85890147       1.08132603      -0.58031298
C        0.22270093       0.45143670      -1.14137685
C        1.51690021       0.25558227      -0.43069024
C        1.95337286      -1.18838810      -0.37653014
O        1.98515930      -1.96199102      -1.29317797
H       -0.92403498       0.46033716       2.19269305
H       -2.50439019       0.83717603       1.50942918
H       -2.08062106      -0.82459268       1.89871642
H       -1.28972438      -1.06696436      -0.29826961
H       -1.58039668       1.50766750      -1.14248598
H        0.25118597       0.45734705      -2.22583526
H        1.46807330       0.62956824       0.60001609
H        2.32229447       0.82461016      -0.90793703
H        2.37463721      -1.50443628       0.60355202
16
Frame=12 idx=007601 GeodesicLength=0.7118232889748538 rxn_smarts="[C:1]([C@@:2]1([H:11])[N:3]([H:12])[C@:4]1([C:5]([C:6](=[O:7])[H:16])([H:14])[H:15])[H:13])([H:8])([H:9])[H:10]>>[C:1]([C-:2]([N:3]([C+:4]([C:5]([C:6](=[O:7])[H:16])([H:14])[H:15])[H:13])[H:12])[H:11])([H:8])([H:9])[H:10]"
C       -1.70096257       0.11183132       1.48553190
C       -1.16722378      -0.06166234       0.09687200
N       -0.85089465       1.09798632      -0.56805285
C        0.22359179       0.45217248      -1.12909393
C        1.51825617       0.24986236      -0.42335140
C        1.95757510      -1.19359354      -0.37486558
O        1.89484193      -1.99179956      -1.26857263
H       -0.95109372       0.47290051       2.19339317
H       -2.53012341       0.82540471       1.49346925
H       -2.08562082      -0.82788862       1.88910318
H       -1.28615148      -1.06168925      -0.29695419
H       -1.57255410       1.49885174      -1.14879357
H        0.24837810       0.46397477      -2.21317290
H        1.47775209       0.61876282       0.60993116
H        2.32306942       0.82082654      -0.89952920
H        2.50115993      -1.47594028       0.55408558
16
Frame=13 idx=007601 GeodesicLength=0.7717115305012132 rxn_smarts="[C:1]([C@@:2]1([H:11])[N:3]([H:12])[C@:4]1([C:5]([C:6](=[O:7])[H:16])([H:14])[H:15])[H:13])([H:8])([H:9])[H:10]>>[C:1]([C-:2]([N:3]([C+:4]([C:5]([C:6](=[O:7])[H:16])([H:14])[H:15])[H:13])[H:12])[H:11])([H:8])([H:9])[H:10]"
C       -1.71532304       0.11371832       1.47802514
C       -1.16586838      -0.05505330       0.09441697
N       -0.84260815       1.11338338      -0.55608509
C        0.22445972       0.45094620      -1.11647187
C        1.51962009       0.24422787      -0.41515989
C        1.96498215      -1.19779390      -0.37300878
O        1.80792597      -2.02097301      -1.23193417
H       -0.97785802       0.48408069       2.19375838
H       -2.55447253       0.81520008       1.47745613
H       -2.09240287      -0.83022808       1.87946221
H       -1.28535934      -1.05657400      -0.29599886
H       -1.56294026       1.49115060      -1.15412982
H        0.24613739       0.46881757      -2.20013514
H        1.48663936       0.60684768       0.62102900
H        2.32288810       0.81906837      -0.88960656
H        2.62417979      -1.44681848       0.48838237
16
Frame=14 idx=007601 GeodesicLength=0.8314385347809292 rxn_smarts="[C:1]([C@@:2]1([H:11])[N:3]([H:12])[C@:4]1([C:5]([C:6](=[O:7])[H:16])([H:14])[H:15])[H:13])([H:8])([H:9])[H:10]>>[C:1]([C-:2]([N:3]([C+:4]([C:5]([C:6](=[O:7])[H:16])([H:14])[H:15])[H:13])[H:12])[H:11])([H:8])([H:9])[H:10]"
C       -1.73103882       0.11721024       1.47060232
C       -1.16522595      -0.04886630       0.09279149
N       -0.83407697       1.12717653      -0.54439879
C        0.22560059       0.44739073      -1.10270936
C        1.52104316       0.23786121      -0.40503291
C        1.97597214      -1.20161100      -0.37280501
O        1.72746889      -2.04738877      -1.18687778
H       -1.00658609       0.49761776       2.19394939
H       -2.57968750       0.80667981       1.45984704
H       -2.10097440      -0.83013119       1.87119831
H       -1.28592778      -1.05212212      -0.29328644
H       -1.55169315       1.48300061      -1.15922037
H        0.24500335       0.47103370      -2.18587791
H        1.49425431       0.59104728       0.63490534
H        2.32161599       0.81981659      -0.87568099
H        2.74425224      -1.41871506       0.40259569
16
Frame=15 idx=007601 GeodesicLength=0.8899950205007225 rxn_smarts="[C:1]([C@@:2]1([H:11])[N:3]([H:12])[C@:4]1([C:5]([C:6](=[O:7])[H:16])([H:14])[H:15])[H:13])([H:8])([H:9])[H:10]>>[C:1]([C-:2]([N:3]([C+:4]([C:5]([C:6](=[O:7])[H:16])([H:14])[H:15])[H:13])[H:12])[H:11])([H:8])([H:9])[H:10]"
C       -1.74705676       0.12135403       1.46320538
C       -1.16533466      -0.04330581       0.09134766
N       -0.82512206       1.13951688      -0.53310105
C        0.22679745       0.44145637      -1.08847026
C        1.52262939       0.23138290      -0.39371623
C        1.99080719      -1.20442156      -0.37418445
O        1.65473450      -2.07237329      -1.13151038
H       -1.03506477       0.51059365       2.19389158
H       -2.60365430       0.80031476       1.44207515
H       -2.11150044      -0.82856230       1.86333681
H       -1.28909969      -1.04807784      -0.29044548
H       -1.53890205       1.47522261      -1.16389974
H        0.24463549       0.47130256      -2.17115082
H        1.50097647       0.57290961       0.65060901
H        2.31924233       0.82341003      -0.85891960
H        2.85591190      -1.39072260       0.30093242
16
Frame=16 idx=007601 GeodesicLength=0.9488738845199469 rxn_smarts="[C:1]([C@@:2]1([H:11])[N:3]([H:12])[C@:4]1([C:5]([C:6](=[O:7])[H:16])([H:14])[H:15])[H:13])([H:8])([H:9])[H:10]>>[C:1]([C-:2]([N:3]([C+:4]([C:5]([C:6](=[O:7])[H:16])([H:14])[H:15])[H:13])[H:12])[H:11])([H:8])([H:9])[H:10]"
C       -1.76385723       0.12623193       1.45553347
C       -1.16557200      -0.03826641       0.09030095
N       -0.81557672       1.15055596      -0.52196295
C        0.22867456       0.43396566      -1.07325235
C        1.52466916       0.22471975      -0.38060820
C        2.00833965      -1.20641453      -0.37705468
O        1.58772386      -2.09584979      -1.06388838
H       -1.06486175       0.52470512       2.19339406
H       -2.62794372       0.79474747       1.42282125
H       -2.12325794      -0.82569859       1.85595655
H       -1.29291867      -1.04456053      -0.28682929
H       -1.52447198       1.46710523      -1.16829429
H        0.24583418       0.47015377      -2.15537602
H        1.50710188       0.55205936       0.66862977
H        2.31640693       0.82916537      -0.83853902
H        2.95970978      -1.36261977       0.17916914
