13
Frame=0 idx=006391 GeodesicLength=0.0 rxn_smarts="[C:1]1([H:8])([H:9])[C@:2]2([H:10])[O:3][C@@:4]1([H:11])[C@:5]1([H:12])[O:6][C@:7]21[H:13]>>[C:1](=[C:2]([C@@:7]1([H:13])[C@:5]([C:4](=[O:3])[H:11])([H:12])[O:6]1)[H:10])([H:8])[H:9]"
C       -0.82017775       0.13811681       0.98816357
C       -0.34830165      -1.07016719       0.38035278
O       -1.38508296       0.36283513      -1.26215777
C       -0.54670182       0.94030576      -0.43497729
C        0.92944245       0.49196916      -0.66088342
O        1.70986626       0.18096110       0.44886054
C        0.98732620      -0.91005697      -0.14447175
H       -1.87214318       0.16610585       1.24278914
H       -0.15555125       0.51826341       1.76827903
H       -0.93049284      -1.96650551       0.20782809
H       -0.59841168       2.04654471      -0.37505531
H        1.46539733       0.80084170      -1.55610796
H        1.56483084      -1.69921395      -0.60261959
13
Frame=1 idx=006391 GeodesicLength=0.07633062357115604 rxn_smarts="[C:1]1([H:8])([H:9])[C@:2]2([H:10])[O:3][C@@:4]1([H:11])[C@:5]1([H:12])[O:6][C@:7]21[H:13]>>[C:1](=[C:2]([C@@:7]1([H:13])[C@:5]([C:4](=[O:3])[H:11])([H:12])[O:6]1)[H:10])([H:8])[H:9]"
C       -0.82390613       0.13443404       0.99951714
C       -0.35725407      -1.06625609       0.37397739
O       -1.37305519       0.35724645      -1.27214135
C       -0.53993926       0.94643743      -0.44688037
C        0.93329101       0.49417425      -0.66829114
O        1.70875999       0.18389909       0.44704858
C        0.98484441      -0.90440211      -0.14605094
H       -1.87512162       0.16083061       1.25796489
H       -0.15855507       0.51226649       1.77946629
H       -0.93174483      -1.96948483       0.21265203
H       -0.60038309       2.04990989      -0.37228609
H        1.47111185       0.79699240      -1.56404336
H        1.56195200      -1.69604761      -0.60093307
13
Frame=2 idx=006391 GeodesicLength=0.15265282633681676 rxn_smarts="[C:1]1([H:8])([H:9])[C@:2]2([H:10])[O:3][C@@:4]1([H:11])[C@:5]1([H:12])[O:6][C@:7]21[H:13]>>[C:1](=[C:2]([C@@:7]1([H:13])[C@:5]([C:4](=[O:3])[H:11])([H:12])[O:6]1)[H:10])([H:8])[H:9]"
C       -0.82769887       0.13054444       1.01102316
C       -0.36641097      -1.06210898       0.36742353
O       -1.36105819       0.35184804      -1.28219879
C       -0.53303717       0.95275195      -0.45923365
C        0.93722232       0.49635605      -0.67586933
O        1.70753987       0.18701113       0.44521513
C        0.98227714      -0.89863155      -0.14756912
H       -1.87807337       0.15516992       1.27360810
H       -0.16156860       0.50611148       1.79072693
H       -0.93285566      -1.97223765       0.21741247
H       -0.60235285       2.05314885      -0.36946940
H        1.47700434       0.79290152      -1.57212060
H        1.55901199      -1.69286520      -0.59894843
13
Frame=3 idx=006391 GeodesicLength=0.2289607811033516 rxn_smarts="[C:1]1([H:8])([H:9])[C@:2]2([H:10])[O:3][C@@:4]1([H:11])[C@:5]1([H:12])[O:6][C@:7]21[H:13]>>[C:1](=[C:2]([C@@:7]1([H:13])[C@:5]([C:4](=[O:3])[H:11])([H:12])[O:6]1)[H:10])([H:8])[H:9]"
C       -0.83155494       0.12643702       1.02269374
C       -0.37577899      -1.05771640       0.36070466
O       -1.34908940       0.34663805      -1.29233764
C       -0.52598996       0.95926240      -0.47205145
C        0.94124057       0.49851576      -0.68362145
O        1.70620202       0.19030258       0.44336044
C        0.97961750      -0.89274352      -0.14902412
H       -1.88099415       0.14909685       1.28973020
H       -0.16458933       0.49980312       1.80206656
H       -0.93382585      -1.97474104       0.22210002
H       -0.60432328       2.05624643      -0.36661495
H        1.48308671       0.78856915      -1.58034099
H        1.55599908      -1.68967040      -0.59666502
13
Frame=4 idx=006391 GeodesicLength=0.3052415539887252 rxn_smarts="[C:1]1([H:8])([H:9])[C@:2]2([H:10])[O:3][C@@:4]1([H:11])[C@:5]1([H:12])[O:6][C@:7]21[H:13]>>[C:1](=[C:2]([C@@:7]1([H:13])[C@:5]([C:4](=[O:3])[H:11])([H:12])[O:6]1)[H:10])([H:8])[H:9]"
C       -0.83547047       0.12211083       1.03454483
C       -0.38536032      -1.05304305       0.35381438
O       -1.33714999       0.34160945      -1.30256611
C       -0.51878073       0.96595021      -0.48537103
C        0.94534460       0.50063634      -0.69154091
O        1.70474324       0.19377676       0.44147995
C        0.97685375      -0.88671883      -0.15041462
H       -1.88387172       0.14259383       1.30635786
H       -0.16759950       0.49334929       1.81347707
H       -0.93464884      -1.97695764       0.22667321
H       -0.60630148       2.05915641      -0.36371571
H        1.48935463       0.78396902      -1.58867017
H        1.55288682      -1.68643262      -0.59406874
13
Frame=5 idx=006391 GeodesicLength=0.3815221174221906 rxn_smarts="[C:1]1([H:8])([H:9])[C@:2]2([H:10])[O:3][C@@:4]1([H:11])[C@:5]1([H:12])[O:6][C@:7]21[H:13]>>[C:1](=[C:2]([C@@:7]1([H:13])[C@:5]([C:4](=[O:3])[H:11])([H:12])[O:6]1)[H:10])([H:8])[H:9]"
C       -0.83944619       0.11754652       1.04659262
C       -0.39516595      -1.04808828       0.34677430
O       -1.32523271       0.33676599      -1.31289618
C       -0.51140637       0.97284887      -0.49920565
C        0.94954222       0.50272926      -0.69964050
O        1.70315566       0.19744682       0.43957600
C        0.97398079      -0.88056115      -0.15173690
H       -1.88670056       0.13561535       1.32350834
H       -0.17060523       0.48675008       1.82497742
H       -0.93533734      -1.97886504       0.23113112
H       -0.60828844       2.06187838      -0.36079090
H        1.49583091       0.77910555      -1.59713397
H        1.54967321      -1.68317236      -0.59115570
13
Frame=6 idx=006391 GeodesicLength=0.4577858373162982 rxn_smarts="[C:1]1([H:8])([H:9])[C@:2]2([H:10])[O:3][C@@:4]1([H:11])[C@:5]1([H:12])[O:6][C@:7]21[H:13]>>[C:1](=[C:2]([C@@:7]1([H:13])[C@:5]([C:4](=[O:3])[H:11])([H:12])[O:6]1)[H:10])([H:8])[H:9]"
C       -0.84347695       0.11273505       1.05885149
C       -0.40520038      -1.04282761       0.33959161
O       -1.31333346       0.33210643      -1.32333689
C       -0.50385684       0.97996139      -0.51357941
C        0.95383420       0.50478907      -0.70792131
O        1.70143463       0.20132276       0.43764750
C        0.97098977      -0.87425762      -0.15298619
H       -1.88946701       0.12812935       1.34120283
H       -0.17359601       0.48000658       1.83657147
H       -0.93589751      -1.98042447       0.23543938
H       -0.61029054       2.06437869      -0.35784614
H        1.50251780       0.77395789      -1.60572468
H        1.54634229      -1.67987749      -0.58790965
13
Frame=7 idx=006391 GeodesicLength=0.5340317853834816 rxn_smarts="[C:1]1([H:8])([H:9])[C@:2]2([H:10])[O:3][C@@:4]1([H:11])[C@:5]1([H:12])[O:6][C@:7]21[H:13]>>[C:1](=[C:2]([C@@:7]1([H:13])[C@:5]([C:4](=[O:3])[H:11])([H:12])[O:6]1)[H:10])([H:8])[H:9]"
C       -0.84755943       0.10766490       1.07133953
C       -0.41547018      -1.03723892       0.33227760
O       -1.30144638       0.32762934      -1.33389738
C       -0.49612063       0.98729606      -0.52851735
C        0.95822383       0.50681331      -0.71638713
O        1.69957441       0.20541739       0.43569245
C        0.96787182      -0.86779717      -0.15415817
H       -1.89215876       0.12009802       1.35946751
H       -0.17656471       0.47312188       1.84826738
H       -0.93633921      -1.98159930       0.23956345
H       -0.61231312       2.06662625      -0.35489233
H        1.50942330       0.76850892      -1.61443995
H        1.54287905      -1.67654068      -0.58431561
13
Frame=8 idx=006391 GeodesicLength=0.6102590318023555 rxn_smarts="[C:1]1([H:8])([H:9])[C@:2]2([H:10])[O:3][C@@:4]1([H:11])[C@:5]1([H:12])[O:6][C@:7]21[H:13]>>[C:1](=[C:2]([C@@:7]1([H:13])[C@:5]([C:4](=[O:3])[H:11])([H:12])[O:6]1)[H:10])([H:8])[H:9]"
C       -0.85168876       0.10232350       1.08407703
C       -0.42598157      -1.03129850       0.32484588
O       -1.28956509       0.32333294      -1.34458640
C       -0.48818630       0.99486153      -0.54404571
C        0.96271426       0.50879974      -0.72504182
O        1.69756883       0.20974512       0.43370914
C        0.96461822      -0.86116774      -0.15524768
H       -1.89476043       0.11148037       1.37833064
H       -0.17950333       0.46610014       1.86007477
H       -0.93667816      -1.98235070       0.24346210
H       -0.61436223       2.06858696      -0.35194399
H        1.51655563       0.76274060      -1.62327734
H        1.53926893      -1.67315397      -0.58035660
13
Frame=9 idx=006391 GeodesicLength=0.686467135405416 rxn_smarts="[C:1]1([H:8])([H:9])[C@:2]2([H:10])[O:3][C@@:4]1([H:11])[C@:5]1([H:12])[O:6][C@:7]21[H:13]>>[C:1](=[C:2]([C@@:7]1([H:13])[C@:5]([C:4](=[O:3])[H:11])([H:12])[O:6]1)[H:10])([H:8])[H:9]"
C       -0.85585920       0.09669700       1.09708654
C       -0.43674035      -1.02498046       0.31731229
O       -1.27768239       0.31921530      -1.35541202
C       -0.48004131       1.00266661      -0.56019181
C        0.96730879       0.51074602      -0.73388921
O        1.69541175       0.21432205       0.43169573
C        0.96122022      -0.85435604      -0.15624897
H       -1.89725510       0.10223159       1.39782281
H       -0.18240290       0.45894639       1.87200467
H       -0.93693461      -1.98263705       0.24708771
H       -0.61644448       2.07022338      -0.34901987
H        1.52392281       0.75663361      -1.63223396
H        1.53549676      -1.66970841      -0.57601393
13
Frame=10 idx=006391 GeodesicLength=0.762657516635259 rxn_smarts="[C:1]1([H:8])([H:9])[C@:2]2([H:10])[O:3][C@@:4]1([H:11])[C@:5]1([H:12])[O:6][C@:7]21[H:13]>>[C:1](=[C:2]([C@@:7]1([H:13])[C@:5]([C:4](=[O:3])[H:11])([H:12])[O:6]1)[H:10])([H:8])[H:9]"
C       -0.86006404       0.09077075       1.11039364
C       -0.44775230      -1.01825641       0.30969418
O       -1.26579010       0.31527405      -1.36638242
C       -0.47167235       1.01071965      -0.57698508
C        0.97201093       0.51264986      -0.74293306
O        1.69309646       0.21916593       0.42965026
C        0.95766897      -0.84734751      -0.15715594
H       -1.89962301       0.09230366       1.41797839
H       -0.18525410       0.45166743       1.88406993
H       -0.93713426      -1.98241632       0.25038629
H       -0.61856670       2.07149464      -0.34614291
H        1.53153355       0.75016793      -1.64130562
H        1.53154694      -1.66619365      -0.57126766
13
Frame=11 idx=006391 GeodesicLength=0.8388480390888466 rxn_smarts="[C:1]1([H:8])([H:9])[C@:2]2([H:10])[O:3][C@@:4]1([H:11])[C@:5]1([H:12])[O:6][C@:7]21[H:13]>>[C:1](=[C:2]([C@@:7]1([H:13])[C@:5]([C:4](=[O:3])[H:11])([H:12])[O:6]1)[H:10])([H:8])[H:9]"
C       -0.86429946       0.08453031       1.12403140
C       -0.45902191      -1.01109680       0.30201081
O       -1.25387637       0.31150817      -1.37750831
C       -0.46306365       1.01902997      -0.59445870
C        0.97682659       0.51450960      -0.75217999
O        1.69061809       0.22429696       0.42756915
C        0.95395766      -0.84012810      -0.15796367
H       -1.90184934       0.08164559       1.43884294
H       -0.18805097       0.44427247       1.89628984
H       -0.93730894      -1.98165232       0.25329784
H       -0.62073793       2.07236297      -0.34334068
H        1.53939992       0.74332294      -1.65049201
H        1.52740632      -1.66260176      -0.56609861
13
Frame=12 idx=006391 GeodesicLength=0.9149900776951587 rxn_smarts="[C:1]1([H:8])([H:9])[C@:2]2([H:10])[O:3][C@@:4]1([H:11])[C@:5]1([H:12])[O:6][C@:7]21[H:13]>>[C:1](=[C:2]([C@@:7]1([H:13])[C@:5]([C:4](=[O:3])[H:11])([H:12])[O:6]1)[H:10])([H:8])[H:9]"
C       -0.86853704       0.07793489       1.13800612
C       -0.47056411      -1.00346308       0.29428607
O       -1.24194283       0.30791604      -1.38878533
C       -0.45420772       1.02761591      -0.61263999
C        0.98174954       0.51632607      -0.76162345
O        1.68795607       0.22973689       0.42546228
C        0.95006503      -0.83267288      -0.15865619
H       -1.90386609       0.07016416       1.46040673
H       -0.19076561       0.43675296       1.90865826
H       -0.93750294      -1.98024720       0.25579069
H       -0.62295070       2.07276670      -0.34065890
H        1.54752238       0.73607888      -1.65977365
H        1.52304403      -1.65890933      -0.56047266
13
Frame=13 idx=006391 GeodesicLength=0.9911198907047476 rxn_smarts="[C:1]1([H:8])([H:9])[C@:2]2([H:10])[O:3][C@@:4]1([H:11])[C@:5]1([H:12])[O:6][C@:7]21[H:13]>>[C:1](=[C:2]([C@@:7]1([H:13])[C@:5]([C:4](=[O:3])[H:11])([H:12])[O:6]1)[H:10])([H:8])[H:9]"
C       -0.87278429       0.07098970       1.15237084
C       -0.48237484      -0.99532206       0.28654322
O       -1.22996204       0.30449498      -1.40023102
C       -0.44508158       1.03647631      -0.63155811
C        0.98679369       0.51809693      -0.77127513
O        1.68511756       0.23551066       0.42331604
C        0.94599396      -0.82496786      -0.15923338
H       -1.90568704       0.05783068       1.48276520
H       -0.19340267       0.42912939       1.92121653
H       -0.93775654      -1.97820727       0.25775817
H       -0.62522812       2.07267051      -0.33813805
H        1.55591905       0.72840768      -1.66915595
H        1.51845287      -1.65510965      -0.55437837
13
Frame=14 idx=006391 GeodesicLength=1.0672514872414567 rxn_smarts="[C:1]1([H:8])([H:9])[C@:2]2([H:10])[O:3][C@@:4]1([H:11])[C@:5]1([H:12])[O:6][C@:7]21[H:13]>>[C:1](=[C:2]([C@@:7]1([H:13])[C@:5]([C:4](=[O:3])[H:11])([H:12])[O:6]1)[H:10])([H:8])[H:9]"
C       -0.87702627       0.06366712       1.16715582
C       -0.49446809      -0.98662994       0.27880169
O       -1.21792161       0.30125175      -1.41186214
C       -0.43566790       1.04563132      -0.65125463
C        0.99196049       0.51982422      -0.78114112
O        1.68208528       0.24165013       0.42113487
C        0.94172818      -0.81698876      -0.15968307
H       -1.90726047       0.04454187       1.50596760
H       -0.19594756       0.42139914       1.93398768
H       -0.93812024      -1.97546645       0.25913714
H       -0.62756933       2.07203111      -0.33583493
H        1.56459821       0.72027789      -1.67863705
H        1.51360929      -1.65118940      -0.54777186
13
Frame=15 idx=006391 GeodesicLength=1.1433551049954318 rxn_smarts="[C:1]1([H:8])([H:9])[C@:2]2([H:10])[O:3][C@@:4]1([H:11])[C@:5]1([H:12])[O:6][C@:7]21[H:13]>>[C:1](=[C:2]([C@@:7]1([H:13])[C@:5]([C:4](=[O:3])[H:11])([H:12])[O:6]1)[H:10])([H:8])[H:9]"
C       -0.88124732       0.05594273       1.18238331
C       -0.50685911      -0.97731903       0.27108552
O       -1.20580847       0.29818636      -1.42366857
C       -0.42594726       1.05508289      -0.67176073
C        0.99725297       0.52150306      -0.79122026
O        1.67884695       0.24818656       0.41890628
C        0.93725047      -0.80869761      -0.15999646
H       -1.90853481       0.03019603       1.53006136
H       -0.19838379       0.41356292       1.94696546
H       -0.93865946      -1.97195102       0.25985043
H       -0.62996835       2.07076474      -0.33380426
H        1.57357048       0.71165016      -1.68819242
H        1.50848771      -1.64710779      -0.54060967
13
Frame=16 idx=006391 GeodesicLength=1.2194703558318654 rxn_smarts="[C:1]1([H:8])([H:9])[C@:2]2([H:10])[O:3][C@@:4]1([H:11])[C@:5]1([H:12])[O:6][C@:7]21[H:13]>>[C:1](=[C:2]([C@@:7]1([H:13])[C@:5]([C:4](=[O:3])[H:11])([H:12])[O:6]1)[H:10])([H:8])[H:9]"
C       -0.88543433       0.04778399       1.19810262
C       -0.51955772      -0.96735190       0.26342168
O       -1.19360438       0.29530808      -1.43567834
C       -0.41589924       1.06485299      -0.69312069
C        1.00267514       0.52313878      -0.80151886
O        1.67538965       0.25515146       0.41664006
C        0.93254860      -0.80007912      -0.16016248
H       -1.90946462       0.01468723       1.55510672
H       -0.20070516       0.40563113       1.96019666
H       -0.93943219      -1.96761531       0.25983167
H       -0.63242571       2.06885151      -0.33213091
H        1.58284513       0.70250357      -1.69782305
H        1.50306482      -1.64286241      -0.53286508
