13
Frame=0 idx=009763 GeodesicLength=0.0 rxn_smarts="[O:1]([C:2]([C:3]#[C:4][C:5]([C:6](=[O:7])[H:13])([H:11])[H:12])([H:9])[H:10])[H:8]>>[C-:6]#[O+:7].[C:2](=[C:3]=[C:4]=[C:5]([H:11])[H:12])([H:9])[H:10].[O:1]([H:8])[H:13]"
O        1.00248460       0.50620080      -1.24268487
C        1.91953947      -0.14921713       0.03983506
C        1.02824566      -0.62373077       1.00271258
C       -0.19321677      -0.67359290       1.18689798
C       -1.55087705      -0.57491252       1.10366062
C       -1.56822486       0.43802240      -0.77223482
O       -2.64633458       0.66773197      -1.09642250
H        1.32595174       1.37019110      -1.52525644
H        2.53039090       0.70556633       0.32198226
H        2.48135119      -0.89195533      -0.51837427
H       -2.06529583       0.15889801       1.71575183
H       -2.12945296      -1.45893529       0.85480595
H       -0.13456152       0.52573337      -1.07067337
13
Frame=1 idx=009763 GeodesicLength=0.09234643848837272 rxn_smarts="[O:1]([C:2]([C:3]#[C:4][C:5]([C:6](=[O:7])[H:13])([H:11])[H:12])([H:9])[H:10])[H:8]>>[C-:6]#[O+:7].[C:2](=[C:3]=[C:4]=[C:5]([H:11])[H:12])([H:9])[H:10].[O:1]([H:8])[H:13]"
O        1.01262854       0.50500472      -1.26718318
C        1.93117477      -0.14817936       0.04115294
C        1.02733214      -0.60842865       0.99901039
C       -0.19217640      -0.66312373       1.19332509
C       -1.55243892      -0.57290522       1.10996191
C       -1.57788854       0.44127407      -0.77470161
O       -2.65560288       0.66318611      -1.11033881
H        1.31950955       1.38955437      -1.50295668
H        2.56039958       0.68953082       0.33700419
H        2.48638829      -0.89229343      -0.52204197
H       -2.07009073       0.14273437       1.74338798
H       -2.14305941      -1.44732864       0.85272726
H       -0.14617598       0.50097457      -1.09934751
13
Frame=2 idx=009763 GeodesicLength=0.18465742003265484 rxn_smarts="[O:1]([C:2]([C:3]#[C:4][C:5]([C:6](=[O:7])[H:13])([H:11])[H:12])([H:9])[H:10])[H:8]>>[C-:6]#[O+:7].[C:2](=[C:3]=[C:4]=[C:5]([H:11])[H:12])([H:9])[H:10].[O:1]([H:8])[H:13]"
O        1.02278470       0.50688939      -1.29081326
C        1.94294963      -0.14739605       0.04212433
C        1.02631055      -0.59376629       0.99427027
C       -0.19106152      -0.65236065       1.19952554
C       -1.55391101      -0.56995846       1.11650567
C       -1.58762319       0.44150240      -0.77918322
O       -2.66478158       0.65497004      -1.12667625
H        1.31224680       1.40926169      -1.47893058
H        2.59199432       0.67050654       0.35350996
H        2.49008255      -0.89247313      -0.52798019
H       -2.07362737       0.12791207       1.77060578
H       -2.15744987      -1.43453842       0.85311037
H       -0.15791401       0.47945086      -1.12606840
13
Frame=3 idx=009763 GeodesicLength=0.27689156583692115 rxn_smarts="[O:1]([C:2]([C:3]#[C:4][C:5]([C:6](=[O:7])[H:13])([H:11])[H:12])([H:9])[H:10])[H:8]>>[C-:6]#[O+:7].[C:2](=[C:3]=[C:4]=[C:5]([H:11])[H:12])([H:9])[H:10].[O:1]([H:8])[H:13]"
O        1.03302719       0.51093733      -1.31405770
C        1.95485778      -0.14653254       0.04300593
C        1.02517273      -0.57906783       0.98884867
C       -0.18990224      -0.64123918       1.20550529
C       -1.55533609      -0.56641178       1.12315572
C       -1.59751121       0.44000760      -0.78487931
O       -2.67392365       0.64441729      -1.14457077
H        1.30444664       1.42826675      -1.45444352
H        2.62461806       0.64901856       0.37135316
H        2.49290320      -0.89224173      -0.53524511
H       -2.07628603       0.11329844       1.79790209
H       -2.17227674      -1.42087776       0.85485918
H       -0.16978964       0.46042484      -1.15143363
13
Frame=4 idx=009763 GeodesicLength=0.36913742506432645 rxn_smarts="[O:1]([C:2]([C:3]#[C:4][C:5]([C:6](=[O:7])[H:13])([H:11])[H:12])([H:9])[H:10])[H:8]>>[C-:6]#[O+:7].[C:2](=[C:3]=[C:4]=[C:5]([H:11])[H:12])([H:9])[H:10].[O:1]([H:8])[H:13]"
O        1.04343288       0.51669020      -1.33722742
C        1.96691708      -0.14538254       0.04395184
C        1.02387947      -0.56390266       0.98285669
C       -0.18870915      -0.62973016       1.21124922
C       -1.55673777      -0.56242773       1.12985827
C       -1.60759286       0.43760198      -0.79129685
O       -2.68307332       0.63222876      -1.16354040
H        1.29620963       1.44606222      -1.43017243
H        2.65793098       0.62520883       0.39053675
H        2.49517386      -0.89139548      -0.54325178
H       -2.07820950       0.09824269       1.82558145
H       -2.18736194      -1.40646424       0.85737944
H       -0.18185935       0.44326812      -1.17592477
13
Frame=5 idx=009763 GeodesicLength=0.46142345107346694 rxn_smarts="[O:1]([C:2]([C:3]#[C:4][C:5]([C:6](=[O:7])[H:13])([H:11])[H:12])([H:9])[H:10])[H:8]>>[C-:6]#[O+:7].[C:2](=[C:3]=[C:4]=[C:5]([H:11])[H:12])([H:9])[H:10].[O:1]([H:8])[H:13]"
O        1.05406146       0.52389691      -1.36048571
C        1.97912821      -0.14380705       0.04506528
C        1.02242517      -0.54808767       0.97636396
C       -0.18749311      -0.61790741       1.21671121
C       -1.55813366      -0.55809117       1.13659120
C       -1.61788198       0.43465334      -0.79820458
O       -2.69221550       0.61890712      -1.18326081
H        1.28759073       1.46245261      -1.40659066
H        2.69161070       0.59917431       0.41116788
H        2.49711717      -0.88975263      -0.55168617
H       -2.07936208       0.08241606       1.85380612
H       -2.20267584      -1.39132211       0.86039531
H       -0.19417128       0.42746767      -1.19987303
13
Frame=6 idx=009763 GeodesicLength=0.5537349151047803 rxn_smarts="[O:1]([C:2]([C:3]#[C:4][C:5]([C:6](=[O:7])[H:13])([H:11])[H:12])([H:9])[H:10])[H:8]>>[C-:6]#[O+:7].[C:2](=[C:3]=[C:4]=[C:5]([H:11])[H:12])([H:9])[H:10].[O:1]([H:8])[H:13]"
O        1.06492478       0.53217021      -1.38402845
C        1.99148717      -0.14162768       0.04646800
C        1.02079100      -0.53128621       0.96949799
C       -0.18626787      -0.60575102       1.22192267
C       -1.55953350      -0.55350173       1.14334040
C       -1.62836499       0.43166924      -0.80530588
O       -2.70132714       0.60496658      -1.20340813
H        1.27876185       1.47723268      -1.38434743
H        2.72537313       0.57095484       0.43322980
H        2.49887776      -0.88718481      -0.56015776
H       -2.07983959       0.06525083       1.88273943
H       -2.21809273      -1.37552528       0.86353522
H       -0.20678987       0.41263235      -1.22348584
13
Frame=7 idx=009763 GeodesicLength=0.6460077726586116 rxn_smarts="[O:1]([C:2]([C:3]#[C:4][C:5]([C:6](=[O:7])[H:13])([H:11])[H:12])([H:9])[H:10])[H:8]>>[C-:6]#[O+:7].[C:2](=[C:3]=[C:4]=[C:5]([H:11])[H:12])([H:9])[H:10].[O:1]([H:8])[H:13]"
O        1.07605383       0.54117542      -1.40800006
C        2.00397349      -0.13865464       0.04827253
C        1.01896237      -0.51333343       0.96232197
C       -0.18504554      -0.59338294       1.22685722
C       -1.56094388      -0.54873906       1.15010232
C       -1.63902485       0.42890967      -0.81244295
O       -2.71036521       0.59093311      -1.22368710
H        1.26985790       1.49025234      -1.36398194
H        2.75885208       0.54064972       0.45680345
H        2.50062267      -0.88349740      -0.56839123
H       -2.07956645       0.04637160       1.91246384
H       -2.23360236      -1.35907658       0.86660609
H       -0.21977406       0.39839221      -1.24692414
13
Frame=8 idx=009763 GeodesicLength=0.7383040767776021 rxn_smarts="[O:1]([C:2]([C:3]#[C:4][C:5]([C:6](=[O:7])[H:13])([H:11])[H:12])([H:9])[H:10])[H:8]>>[C-:6]#[O+:7].[C:2](=[C:3]=[C:4]=[C:5]([H:11])[H:12])([H:9])[H:10].[O:1]([H:8])[H:13]"
O        1.08748877       0.55094299      -1.43244709
C        2.01663250      -0.13480892       0.05051907
C        1.01692086      -0.49413613       0.95480762
C       -0.18381950      -0.58080201       1.23151129
C       -1.56237268      -0.54374539       1.15691447
C       -1.64987470       0.42636732      -0.81962006
O       -2.71935834       0.57679425      -1.24408247
H        1.26087497       1.50172984      -1.34554059
H        2.79194136       0.50795409       0.48195719
H        2.50240399      -0.87859537      -0.57634868
H       -2.07844849       0.02568953       1.94296344
H       -2.24922699      -1.34189127       0.86966855
H       -0.23316174       0.38450106      -1.27030275
13
Frame=9 idx=009763 GeodesicLength=0.8304559561903407 rxn_smarts="[O:1]([C:2]([C:3]#[C:4][C:5]([C:6](=[O:7])[H:13])([H:11])[H:12])([H:9])[H:10])[H:8]>>[C-:6]#[O+:7].[C:2](=[C:3]=[C:4]=[C:5]([H:11])[H:12])([H:9])[H:10].[O:1]([H:8])[H:13]"
O        1.09923105       0.56026419      -1.45780245
C        2.02938609      -0.12957826       0.05353599
C        1.01456442      -0.47289350       0.94728566
C       -0.18265755      -0.56787280       1.23598354
C       -1.56385522      -0.53881324       1.16373047
C       -1.66087512       0.42506361      -0.82630762
O       -2.72821413       0.56395901      -1.26388744
H        1.25220427       1.51072010      -1.33032422
H        2.82439280       0.47339651       0.50823761
H        2.50442755      -0.87235188      -0.58313445
H       -2.07687198       0.00169982       1.97439355
H       -2.26459778      -1.32428988       0.87191949
H       -0.24713440       0.37069632      -1.29363014
13
Frame=10 idx=009763 GeodesicLength=0.9226065977129491 rxn_smarts="[O:1]([C:2]([C:3]#[C:4][C:5]([C:6](=[O:7])[H:13])([H:11])[H:12])([H:9])[H:10])[H:8]>>[C-:6]#[O+:7].[C:2](=[C:3]=[C:4]=[C:5]([H:11])[H:12])([H:9])[H:10].[O:1]([H:8])[H:13]"
O        1.11138480       0.57017902      -1.48379546
C        2.04233221      -0.12323558       0.05713425
C        1.01193372      -0.45029127       0.93926754
C       -0.18146328      -0.55498129       1.24003917
C       -1.56532141      -0.53356419       1.17068506
C       -1.67203847       0.42385004      -0.83310992
O       -2.73703358       0.55132099      -1.28363652
H        1.24348438       1.51845121      -1.31719794
H        2.85586984       0.43611472       0.53629998
H        2.50669326      -0.86459063      -0.58945396
H       -2.07403247      -0.02432268       2.00648052
H       -2.28022504      -1.30571076       0.87439816
H       -0.26158395       0.35678042      -1.31711089
13
Frame=11 idx=009763 GeodesicLength=1.014655920939568 rxn_smarts="[O:1]([C:2]([C:3]#[C:4][C:5]([C:6](=[O:7])[H:13])([H:11])[H:12])([H:9])[H:10])[H:8]>>[C-:6]#[O+:7].[C:2](=[C:3]=[C:4]=[C:5]([H:11])[H:12])([H:9])[H:10].[O:1]([H:8])[H:13]"
O        1.12403053       0.58042867      -1.51052256
C        2.05546425      -0.11561676       0.06139567
C        1.00899839      -0.42639841       0.93067432
C       -0.18020559      -0.54248285       1.24356646
C       -1.56675540      -0.52800478       1.17780885
C       -1.68330197       0.42271227      -0.84000787
O       -2.74577327       0.53932045      -1.30312304
H        1.23475558       1.52482130      -1.30639036
H        2.88578199       0.39629052       0.56625898
H        2.50942077      -0.85500985      -0.59517767
H       -2.06963891      -0.05252280       2.03917204
H       -2.29625437      -1.28595743       0.87716607
H       -0.27652200       0.34241967      -1.34082089
13
Frame=12 idx=009763 GeodesicLength=1.1066193614418791 rxn_smarts="[O:1]([C:2]([C:3]#[C:4][C:5]([C:6](=[O:7])[H:13])([H:11])[H:12])([H:9])[H:10])[H:8]>>[C-:6]#[O+:7].[C:2](=[C:3]=[C:4]=[C:5]([H:11])[H:12])([H:9])[H:10].[O:1]([H:8])[H:13]"
O        1.13722599       0.59096290      -1.53803868
C        2.06882721      -0.10659625       0.06642891
C        1.00570833      -0.40114056       0.92144482
C       -0.17885896      -0.53048454       1.24653163
C       -1.56813376      -0.52206711       1.18515454
C       -1.69463403       0.42162742      -0.84699697
O       -2.75445910       0.52803237      -1.32228571
H        1.22602338       1.52992656      -1.29797517
H        2.91378797       0.35370758       0.59808180
H        2.51273180      -0.84346063      -0.60022048
H       -2.06353687      -0.08307258       2.07234754
H       -2.31271514      -1.26485953       0.88032641
H       -0.29196682       0.32742437      -1.36479863
13
Frame=13 idx=009763 GeodesicLength=1.1984903374786087 rxn_smarts="[O:1]([C:2]([C:3]#[C:4][C:5]([C:6](=[O:7])[H:13])([H:11])[H:12])([H:9])[H:10])[H:8]>>[C-:6]#[O+:7].[C:2](=[C:3]=[C:4]=[C:5]([H:11])[H:12])([H:9])[H:10].[O:1]([H:8])[H:13]"
O        1.15103812       0.60076718      -1.56674546
C        2.08233946      -0.09574148       0.07256124
C        1.00194072      -0.37372852       0.91174504
C       -0.17740919      -0.51890920       1.24901546
C       -1.56944573      -0.51598024       1.19273976
C       -1.70596633       0.42135426      -0.85368466
O       -2.76307626       0.51870775      -1.34052716
H        1.21774223       1.53308458      -1.29315521
H        2.93941098       0.30880225       0.63142914
H        2.51676518      -0.82988291      -0.60374811
H       -2.05593166      -0.11739249       2.10606058
H       -2.32931527      -1.24263091       0.88335974
H       -0.30809225       0.31154975      -1.38905038
13
Frame=14 idx=009763 GeodesicLength=1.2902676246235247 rxn_smarts="[O:1]([C:2]([C:3]#[C:4][C:5]([C:6](=[O:7])[H:13])([H:11])[H:12])([H:9])[H:10])[H:8]>>[C-:6]#[O+:7].[C:2](=[C:3]=[C:4]=[C:5]([H:11])[H:12])([H:9])[H:10].[O:1]([H:8])[H:13]"
O        1.16557649       0.61072696      -1.59631524
C        2.09612862      -0.08329416       0.07966774
C        0.99770268      -0.34522820       0.90111153
C       -0.17576296      -0.50835931       1.25074133
C       -1.57063051      -0.50933185       1.20069897
C       -1.71725641       0.42090881      -0.86053032
O       -2.77165042       0.51032820      -1.35833548
H        1.20948769       1.53512492      -1.29070747
H        2.96198859       0.26110831       0.66667759
H        2.52180149      -0.81387140      -0.60652521
H       -2.04604100      -0.15423517       2.13993643
H       -2.34660519      -1.21846863       0.88723448
H       -0.32473907       0.29459150      -1.41365434
13
Frame=15 idx=009763 GeodesicLength=1.3818785085891192 rxn_smarts="[O:1]([C:2]([C:3]#[C:4][C:5]([C:6](=[O:7])[H:13])([H:11])[H:12])([H:9])[H:10])[H:8]>>[C-:6]#[O+:7].[C:2](=[C:3]=[C:4]=[C:5]([H:11])[H:12])([H:9])[H:10].[O:1]([H:8])[H:13]"
O        1.18097193       0.62093429      -1.62664933
C        2.11019317      -0.06922329       0.08789349
C        0.99295912      -0.31632942       0.88926346
C       -0.17385984      -0.49942970       1.25147227
C       -1.57165525      -0.50194373       1.20915456
C       -1.72843135       0.41999547      -0.86761939
O       -2.78016102       0.50281990      -1.37572390
H        1.20120671       1.53613653      -1.29031120
H        2.98074002       0.21078941       0.70368684
H        2.52827470      -0.79494732      -0.60861598
H       -2.03346109      -0.19332785       2.17371701
H       -2.36492335      -1.19178106       0.89240735
H       -0.34185375       0.27630677      -1.43867517
13
Frame=16 idx=009763 GeodesicLength=1.4734679787046123 rxn_smarts="[O:1]([C:2]([C:3]#[C:4][C:5]([C:6](=[O:7])[H:13])([H:11])[H:12])([H:9])[H:10])[H:8]>>[C-:6]#[O+:7].[C:2](=[C:3]=[C:4]=[C:5]([H:11])[H:12])([H:9])[H:10].[O:1]([H:8])[H:13]"
O        1.19730312       0.63163896      -1.65765720
C        2.12457374      -0.05360654       0.09742372
C        0.98768784      -0.28758997       0.87603703
C       -0.17167332      -0.49231304       1.25108071
C       -1.57249098      -0.49353212       1.21824066
C       -1.73946670       0.41840805      -0.87505910
O       -2.78860637       0.49584387      -1.39284774
H        1.19281328       1.53630280      -1.29156778
H        2.99520304       0.15778228       0.74210706
H        2.53652658      -0.77285070      -0.61007418
H       -2.01805837      -0.23463638       2.20720219
H       -2.38438748      -1.16200811       0.89928058
H       -0.35942437       0.25656090      -1.46416596
