14
Frame=0 idx=008367 GeodesicLength=0.0 rxn_smarts="[O:1]([C@@:2]1([H:9])[C:3]([H:10])([H:11])[N:4]([H:12])[C@:5]1([C:6](=[O:7])[H:14])[H:13])[H:8]>>[O:1]=[C:2]([C:3]([N:4]([C:5](=[C:6]([O:7][H:8])[H:14])[H:13])[H:12])([H:10])[H:11])[H:9]"
O       -0.84457762      -0.98133896       1.21424579
C       -0.99703279      -0.58506186       0.00676645
C       -1.19610064       0.90477142      -0.26711824
N        0.19178234       1.33105894      -0.40014620
C        0.80882641       0.07073248      -0.74324826
C        1.56354824      -0.67404061       0.14576489
O        1.44927904      -0.55471801       1.40889297
H        0.22072901      -0.68127025       1.56057544
H       -1.37692063      -1.32205785      -0.70571025
H       -1.73362311       1.39754811       0.54578011
H       -1.74352285       1.05987723      -1.20131465
H        0.55575876       1.65142743       0.48885449
H        0.93773925      -0.11604083      -1.80495076
H        2.16411458      -1.50088723      -0.24839172
14
Frame=1 idx=008367 GeodesicLength=0.09945122951091663 rxn_smarts="[O:1]([C@@:2]1([H:9])[C:3]([H:10])([H:11])[N:4]([H:12])[C@:5]1([C:6](=[O:7])[H:14])[H:13])[H:8]>>[O:1]=[C:2]([C:3]([N:4]([C:5](=[C:6]([O:7][H:8])[H:14])[H:13])[H:12])([H:10])[H:11])[H:9]"
O       -0.86401584      -0.99475803       1.20981705
C       -1.00821004      -0.58443207       0.00498476
C       -1.19792838       0.90648286      -0.26492453
N        0.19102065       1.32612396      -0.40590112
C        0.80458329       0.06427296      -0.74493177
C        1.57435240      -0.66761135       0.14561145
O        1.45895226      -0.54808836       1.40928095
H        0.21370860      -0.68579179       1.58097958
H       -1.36644307      -1.32118535      -0.71929060
H       -1.72455434       1.40150035       0.55379433
H       -1.75230146       1.06820049      -1.19375411
H        0.56123164       1.65633876       0.47678173
H        0.93761851      -0.12350079      -1.80613422
H        2.17198578      -1.49755164      -0.24631351
14
Frame=2 idx=008367 GeodesicLength=0.19887413969189818 rxn_smarts="[O:1]([C@@:2]1([H:9])[C:3]([H:10])([H:11])[N:4]([H:12])[C@:5]1([C:6](=[O:7])[H:14])[H:13])[H:8]>>[O:1]=[C:2]([C:3]([N:4]([C:5](=[C:6]([O:7][H:8])[H:14])[H:13])[H:12])([H:10])[H:11])[H:9]"
O       -0.88394502      -1.00817490       1.20508520
C       -1.01950692      -0.58386962       0.00303050
C       -1.19970192       0.90813009      -0.26274303
N        0.19025298       1.32106720      -0.41165241
C        0.80038409       0.05769289      -0.74650588
C        1.58542167      -0.66092383       0.14529891
O        1.46877868      -0.54140933       1.40953655
H        0.20651423      -0.69047250       1.60177291
H       -1.35624595      -1.32009222      -0.73246066
H       -1.71533112       1.40521786       0.56177098
H       -1.76093744       1.07664249      -1.18609795
H        0.56667521       1.66119002       0.46449741
H        0.93753375      -0.13100498      -1.80721682
H        2.18010776      -1.49399317      -0.24431572
14
Frame=3 idx=008367 GeodesicLength=0.29828252124488075 rxn_smarts="[O:1]([C@@:2]1([H:9])[C:3]([H:10])([H:11])[N:4]([H:12])[C@:5]1([C:6](=[O:7])[H:14])[H:13])[H:8]>>[O:1]=[C:2]([C:3]([N:4]([C:5](=[C:6]([O:7][H:8])[H:14])[H:13])[H:12])([H:10])[H:11])[H:9]"
O       -0.90440159      -1.02159248       1.20003904
C       -1.03092246      -0.58337290       0.00090101
C       -1.20141853       0.90971017      -0.26057118
N        0.18948249       1.31588426      -0.41739541
C        0.79623334       0.05098783      -0.74796128
C        1.59676021      -0.65397597       0.14481783
O        1.47878412      -0.53467685       1.40965241
H        0.19913930      -0.69528331       1.62298664
H       -1.34633709      -1.31879468      -0.74524026
H       -1.70595124       1.40869055       0.56971510
H       -1.76942230       1.08520745      -1.17834161
H        0.57209104       1.66597996       0.45199921
H        0.93747861      -0.13855982      -1.80819116
H        2.18848410      -1.49020423      -0.24241033
14
Frame=4 idx=008367 GeodesicLength=0.3976798421792615 rxn_smarts="[O:1]([C@@:2]1([H:9])[C:3]([H:10])([H:11])[N:4]([H:12])[C@:5]1([C:6](=[O:7])[H:14])[H:13])[H:8]>>[O:1]=[C:2]([C:3]([N:4]([C:5](=[C:6]([O:7][H:8])[H:14])[H:13])[H:12])([H:10])[H:11])[H:9]"
O       -0.92542275      -1.03501286       1.19466711
C       -1.04245678      -0.58294022      -0.00140721
C       -1.20307521       0.91122042      -0.25840634
N        0.18871197       1.31057007      -0.42312539
C        0.79213506       0.04415249      -0.74928818
C        1.60837224      -0.64676515       0.14415768
O        1.48899301      -0.52788997       1.40962079
H        0.19157368      -0.70019246       1.64465529
H       -1.33672253      -1.31730894      -0.75764881
H       -1.69641117       1.41190781       0.57763153
H       -1.77774701       1.09389958      -1.17047971
H        0.57748095       1.67070593       0.43928510
H        0.93744591      -0.14617247      -1.80905007
H        2.19712265      -1.48617424      -0.24061178
14
Frame=5 idx=008367 GeodesicLength=0.497070794835897 rxn_smarts="[O:1]([C@@:2]1([H:9])[C:3]([H:10])([H:11])[N:4]([H:12])[C@:5]1([C:6](=[O:7])[H:14])[H:13])[H:8]>>[O:1]=[C:2]([C:3]([N:4]([C:5](=[C:6]([O:7][H:8])[H:14])[H:13])[H:12])([H:10])[H:11])[H:9]"
O       -0.94704928      -1.04844014       1.18895454
C       -1.05411038      -0.58257018      -0.00389901
C       -1.20466995       0.91265794      -0.25624485
N        0.18794511       1.30511937      -0.42883654
C        0.78809276       0.03718102      -0.75047729
C        1.62026061      -0.63929205       0.14330778
O        1.49943203      -0.52104542       1.40943301
H        0.18380779      -0.70516126       1.66681406
H       -1.32740681      -1.31565007      -0.76970761
H       -1.68670965       1.41485846       0.58552757
H       -1.78590432       1.10272475      -1.16250597
H        0.58284656       1.67536503       0.42635404
H        0.93742756      -0.15385120      -1.80978585
H        2.20603796      -1.48189625      -0.23893388
14
Frame=6 idx=008367 GeodesicLength=0.59647716235928 rxn_smarts="[O:1]([C@@:2]1([H:9])[C:3]([H:10])([H:11])[N:4]([H:12])[C@:5]1([C:6](=[O:7])[H:14])[H:13])[H:8]>>[O:1]=[C:2]([C:3]([N:4]([C:5](=[C:6]([O:7][H:8])[H:14])[H:13])[H:12])([H:10])[H:11])[H:9]"
O       -0.96933073      -1.06187925       1.18288181
C       -1.06588546      -0.58226191      -0.00657838
C       -1.20619897       0.91401929      -0.25408224
N        0.18718551       1.29952369      -0.43452328
C        0.78410949       0.03006420      -0.75151673
C        1.63242532      -0.63156106       0.14225647
O        1.51013395      -0.51414106       1.40907863
H        0.17582059      -0.71014702       1.68950796
H       -1.31839372      -1.31383240      -0.78143806
H       -1.67683921       1.41752970       0.59341142
H       -1.79388388       1.11168877      -1.15441218
H        0.58819137       1.67995118       0.41320258
H        0.93741440      -0.16160759      -1.81039031
H        2.21525134      -1.47734654      -0.23739770
14
Frame=7 idx=008367 GeodesicLength=0.6959027633465947 rxn_smarts="[O:1]([C@@:2]1([H:9])[C:3]([H:10])([H:11])[N:4]([H:12])[C@:5]1([C:6](=[O:7])[H:14])[H:13])[H:8]>>[O:1]=[C:2]([C:3]([N:4]([C:5](=[C:6]([O:7][H:8])[H:14])[H:13])[H:12])([H:10])[H:11])[H:9]"
O       -0.99231458      -1.07533800       1.17642627
C       -1.07778336      -0.58201443      -0.00945219
C       -1.20765969       0.91530121      -0.25191378
N        0.18643712       1.29377698      -0.44017819
C        0.78018907       0.02279572      -0.75239582
C        1.64486986      -0.62357183       0.14099037
O        1.52112756      -0.50717619       1.40854784
H        0.16759929      -0.71509833       1.71278153
H       -1.30968249      -1.31187058      -0.79286098
H       -1.66679739       1.41990693       0.60129232
H       -1.80167733       1.12079643      -1.14619031
H        0.59351705       1.68446008       0.39982958
H        0.93739719      -0.16944999      -1.81085506
H        2.22477772      -1.47251800      -0.23602158
14
Frame=8 idx=008367 GeodesicLength=0.7953479172660037 rxn_smarts="[O:1]([C@@:2]1([H:9])[C:3]([H:10])([H:11])[N:4]([H:12])[C@:5]1([C:6](=[O:7])[H:14])[H:13])[H:8]>>[O:1]=[C:2]([C:3]([N:4]([C:5](=[C:6]([O:7][H:8])[H:14])[H:13])[H:12])([H:10])[H:11])[H:9]"
O       -1.01605143      -1.08882094       1.16956557
C       -1.08980726      -0.58182774      -0.01252749
C       -1.20904898       0.91649887      -0.24973390
N        0.18570357       1.28786954      -0.44579499
C        0.77633408       0.01536454      -0.75310265
C        1.65759347      -0.61533109       0.13949630
O        1.53244825      -0.50014708       1.40782927
H        0.15911644      -0.71996275       1.73668465
H       -1.30127406      -1.30977776      -0.80400206
H       -1.65657662       1.42197414       0.60918180
H       -1.80927537       1.13005568      -1.13782933
H        0.59882698       1.68888373       0.38623354
H        0.93736588      -0.17739153      -1.81117189
H        2.23464505      -1.46738761      -0.23482881
14
Frame=9 idx=008367 GeodesicLength=0.8947988179321132 rxn_smarts="[O:1]([C@@:2]1([H:9])[C:3]([H:10])([H:11])[N:4]([H:12])[C@:5]1([C:6](=[O:7])[H:14])[H:13])[H:8]>>[O:1]=[C:2]([C:3]([N:4]([C:5](=[C:6]([O:7][H:8])[H:14])[H:13])[H:12])([H:10])[H:11])[H:9]"
O       -1.04059248      -1.10233871       1.16226583
C       -1.10195822      -0.58170179      -0.01581340
C       -1.21036436       0.91760896      -0.24753537
N        0.18498848       1.28179510      -0.45136538
C        0.77254726       0.00776347      -0.75362773
C        1.67059657      -0.60684283       0.13776141
O        1.54412624      -0.49305209       1.40691300
H        0.15035544      -0.72468146       1.76126579
H       -1.29316770      -1.30756615      -0.81487844
H       -1.64617285       1.42371306       0.61709176
H       -1.81667158       1.13947377      -1.12931897
H        0.60412456       1.69321611       0.37241226
H        0.93730994      -0.18544253      -1.81133319
H        2.24487870      -1.46194490      -0.23383756
14
Frame=10 idx=008367 GeodesicLength=0.9942789811598018 rxn_smarts="[O:1]([C@@:2]1([H:9])[C:3]([H:10])([H:11])[N:4]([H:12])[C@:5]1([C:6](=[O:7])[H:14])[H:13])[H:8]>>[O:1]=[C:2]([C:3]([N:4]([C:5](=[C:6]([O:7][H:8])[H:14])[H:13])[H:12])([H:10])[H:11])[H:9]"
O       -1.06599843      -1.11590075       1.15449163
C       -1.11423756      -0.58163935      -0.01931996
C       -1.21160191       0.91862322      -0.24531145
N        0.18429536       1.27554268      -0.45687971
C        0.76883375      -0.00001710      -0.75395518
C        1.68388147      -0.59811216       0.13576898
O        1.55621136      -0.48588116       1.40578297
H        0.14128014      -0.72917948       1.78659168
H       -1.28535606      -1.30524680      -0.82552036
H       -1.63557879       1.42509879       0.62503792
H       -1.82385313       1.14905487      -1.12064333
H        0.60941059       1.69744872       0.35836499
H        0.93722113      -0.19361332      -1.81132781
H        2.25549208      -1.45617816      -0.23308039
14
Frame=11 idx=008367 GeodesicLength=1.0937873732050436 rxn_smarts="[O:1]([C@@:2]1([H:9])[C:3]([H:10])([H:11])[N:4]([H:12])[C@:5]1([C:6](=[O:7])[H:14])[H:13])[H:8]>>[O:1]=[C:2]([C:3]([N:4]([C:5](=[C:6]([O:7][H:8])[H:14])[H:13])[H:12])([H:10])[H:11])[H:9]"
O       -1.09233195      -1.12951889       1.14619890
C       -1.12664412      -0.58164324      -0.02305840
C       -1.21275780       0.91953437      -0.24305187
N        0.18362850       1.26910378      -0.46232644
C        0.76519829      -0.00798563      -0.75407258
C        1.69745170      -0.58914394       0.13350132
O        1.56874632      -0.47862908       1.40442550
H        0.13186496      -0.73337228       1.81272671
H       -1.27783259      -1.30283316      -0.83595329
H       -1.62479015       1.42610409       0.63303664
H       -1.83081164       1.15880381      -1.11178718
H        0.61468693       1.70157317       0.34409259
H        0.93709111      -0.20191094      -1.81114795
H        2.26650045      -1.45008208      -0.23258394
14
Frame=12 idx=008367 GeodesicLength=1.1933214899296969 rxn_smarts="[O:1]([C@@:2]1([H:9])[C:3]([H:10])([H:11])[N:4]([H:12])[C@:5]1([C:6](=[O:7])[H:14])[H:13])[H:8]>>[O:1]=[C:2]([C:3]([N:4]([C:5](=[C:6]([O:7][H:8])[H:14])[H:13])[H:12])([H:10])[H:11])[H:9]"
O       -1.11965587      -1.14320641       1.13733808
C       -1.13917824      -0.58171674      -0.02704099
C       -1.21382823       0.92033352      -0.24074657
N        0.18299143       1.26246755      -0.46769439
C        0.76164569      -0.01615208      -0.75396502
C        1.71130903      -0.57994505       0.13093980
O        1.58178348      -0.47128320       1.40282392
H        0.12207023      -0.73717241       1.83974346
H       -1.27058896      -1.30033617      -0.84620717
H       -1.61379841       1.42669852       0.64110747
H       -1.83753651       1.16872626      -1.10273104
H        0.61995518       1.70557988       0.32959460
H        0.93691006      -0.21034543      -1.81078295
H        2.27792113      -1.44364824      -0.23237920
14
Frame=13 idx=008367 GeodesicLength=1.2928679841412933 rxn_smarts="[O:1]([C@@:2]1([H:9])[C:3]([H:10])([H:11])[N:4]([H:12])[C@:5]1([C:6](=[O:7])[H:14])[H:13])[H:8]>>[O:1]=[C:2]([C:3]([N:4]([C:5](=[C:6]([O:7][H:8])[H:14])[H:13])[H:12])([H:10])[H:11])[H:9]"
O       -1.14803453      -1.15697868       1.12785339
C       -1.15183848      -0.58186427      -0.03128426
C       -1.21481035       0.92101091      -0.23838422
N        0.18238770       1.25562533      -0.47296979
C        0.75818183      -0.02452387      -0.75361844
C        1.72545682      -0.57052051       0.12806402
O        1.59537650      -0.46383057       1.40096006
H        0.11185964      -0.74047916       1.86771788
H       -1.26361348      -1.29776926      -0.85631013
H       -1.60259822       1.42684735       0.64927213
H       -1.84401886       1.17882788      -1.09345435
H        0.62521540       1.70945990       0.31487404
H        0.93667038      -0.21892284      -1.81022358
H        2.28976565      -1.43688220      -0.23249676
14
Frame=14 idx=008367 GeodesicLength=1.3924284648057614 rxn_smarts="[O:1]([C@@:2]1([H:9])[C:3]([H:10])([H:11])[N:4]([H:12])[C@:5]1([C:6](=[O:7])[H:14])[H:13])[H:8]>>[O:1]=[C:2]([C:3]([N:4]([C:5](=[C:6]([O:7][H:8])[H:14])[H:13])[H:12])([H:10])[H:11])[H:9]"
O       -1.17754268      -1.17085318       1.11767469
C       -1.16462219      -0.58209330      -0.03580572
C       -1.21569884       0.92155324      -0.23595018
N        0.18182140       1.24856479      -0.47813664
C        0.75481378      -0.03311117      -0.75301615
C        1.73990009      -0.56087741       0.12485021
O        1.60958763      -0.45625529       1.39881340
H        0.10118888      -0.74317305       1.89673913
H       -1.25689295      -1.29514283      -0.86629463
H       -1.59118157       1.42650695       0.65755673
H       -1.85024664       1.18911283      -1.08393014
H        0.63046794       1.71320220       0.29993116
H        0.93636401      -0.22764865      -1.80945922
H        2.30204114      -1.42978515      -0.23297264
14
Frame=15 idx=008367 GeodesicLength=1.4919886165802019 rxn_smarts="[O:1]([C@@:2]1([H:9])[C:3]([H:10])([H:11])[N:4]([H:12])[C@:5]1([C:6](=[O:7])[H:14])[H:13])[H:8]>>[O:1]=[C:2]([C:3]([N:4]([C:5](=[C:6]([O:7][H:8])[H:14])[H:13])[H:12])([H:10])[H:11])[H:9]"
O       -1.20825422      -1.18484929       1.10672484
C       -1.17752636      -0.58241112      -0.04062608
C       -1.21648955       0.92194701      -0.23342831
N        0.18129607       1.24127486      -0.48317858
C        0.75154862      -0.04192286      -0.75214241
C        1.75464294      -0.55102375       0.12127330
O        1.62448294      -0.44853703       1.39636138
H        0.09001235      -0.74512390       1.92690057
H       -1.25041260      -1.29246921      -0.87619678
H       -1.57954087       1.42563010       0.66599076
H       -1.85621052       1.19958573      -1.07412841
H        0.63571289       1.71679522       0.28477108
H        0.93598301      -0.23652799      -1.80847992
H        2.31475532      -1.42236777      -0.23384144
14
Frame=16 idx=008367 GeodesicLength=1.5915364940078014 rxn_smarts="[O:1]([C@@:2]1([H:9])[C:3]([H:10])([H:11])[N:4]([H:12])[C@:5]1([C:6](=[O:7])[H:14])[H:13])[H:8]>>[O:1]=[C:2]([C:3]([N:4]([C:5](=[C:6]([O:7][H:8])[H:14])[H:13])[H:12])([H:10])[H:11])[H:9]"
O       -1.24024963      -1.19898838       1.09491202
C       -1.19054577      -0.58282821      -0.04576817
C       -1.21717738       0.92217526      -0.23079939
N        0.18081565       1.23374295      -0.48807551
C        0.74839515      -0.05096821      -0.75097954
C        1.76969220      -0.54096763       0.11730430
O        1.64013660      -0.44065211       1.39357769
H        0.07827561      -0.74618335       1.95830601
H       -1.24415454      -1.28976078      -0.88605266
H       -1.56766641       1.42416142       0.67460798
H       -1.86189949       1.21025043      -1.06401429
H        0.64094920       1.72022639       0.26939813
H        0.93551937      -0.24556312      -1.80727472
H        2.32790943      -1.41464466      -0.23514186
