14
Frame=0 idx=011220 GeodesicLength=0.0 rxn_smarts="[N:1](=[C:2]1\[O:3][C@@:4]2([H:9])[C:5]([H:10])([H:11])[C:6]([H:12])([H:13])[C@@:7]12[H:14])\[H:8]>>[N:1]([C:2]1=[O+:3][C-:4]2[C:5]([H:10])([H:11])[C:6]([H:12])([H:13])[C@@:7]12[H:14])([H:8])[H:9]"
N        2.25763831      -0.15885387      -0.80197016
C        1.38988218       0.06215697       0.19550851
O        0.81604564      -1.07384050       0.68837820
C       -0.09765625      -0.73294716      -0.44729965
C       -1.47918472      -0.52222762       0.15362851
C       -1.01962273       0.84931907       0.70294897
C        0.25682239       0.86934103      -0.14585711
H        2.79752978      -0.99279105      -0.58012299
H        1.18864219      -0.73808221      -1.33521470
H       -1.79494874      -1.27240893       0.87683197
H       -2.22563266      -0.41501477      -0.63294985
H       -0.81247608       0.83554886       1.77058795
H       -1.68459435       1.67926561       0.47601688
H        0.40755504       1.61053461      -0.92048650
14
Frame=1 idx=011220 GeodesicLength=0.0765984075307405 rxn_smarts="[N:1](=[C:2]1\[O:3][C@@:4]2([H:9])[C:5]([H:10])([H:11])[C:6]([H:12])([H:13])[C@@:7]12[H:14])\[H:8]>>[N:1]([C:2]1=[O+:3][C-:4]2[C:5]([H:10])([H:11])[C:6]([H:12])([H:13])[C@@:7]12[H:14])([H:8])[H:9]"
N        2.26992070      -0.15858166      -0.78773112
C        1.38995741       0.05517457       0.19824234
O        0.81011313      -1.08278774       0.67392341
C       -0.10789545      -0.73155449      -0.46070887
C       -1.48372833      -0.52018719       0.15623071
C       -1.02004241       0.85020659       0.70438181
C        0.25418823       0.86231653      -0.14863928
H        2.81803901      -0.98635730      -0.56524894
H        1.19232404      -0.73455495      -1.35916246
H       -1.79056613      -1.27016250       0.88365324
H       -2.24209958      -0.41543862      -0.61918644
H       -0.81058554       0.84383895       1.77177259
H       -1.68323359       1.68025579       0.47236736
H        0.40360853       1.60783201      -0.91989436
14
Frame=2 idx=011220 GeodesicLength=0.15309564665891373 rxn_smarts="[N:1](=[C:2]1\[O:3][C@@:4]2([H:9])[C:5]([H:10])([H:11])[C:6]([H:12])([H:13])[C@@:7]12[H:14])\[H:8]>>[N:1]([C:2]1=[O+:3][C-:4]2[C:5]([H:10])([H:11])[C:6]([H:12])([H:13])[C@@:7]12[H:14])([H:8])[H:9]"
N        2.28197258      -0.15863356      -0.77336467
C        1.38990901       0.04798523       0.20086746
O        0.80414866      -1.09182718       0.65906079
C       -0.11839085      -0.73007876      -0.47421624
C       -1.48827212      -0.51815433       0.15889450
C       -1.02038297       0.85109088       0.70578778
C        0.25152377       0.85521470      -0.15154690
H        2.83870274      -0.97965375      -0.54948516
H        1.19593880      -0.73061005      -1.38365442
H       -1.78599926      -1.26794378       0.89045841
H       -2.25852851      -0.41590257      -0.60504458
H       -0.80850372       0.85221631       1.77285378
H       -1.68181094       1.68121157       0.46873589
H        0.39969282       1.60508528      -0.91934663
14
Frame=3 idx=011220 GeodesicLength=0.22952837474184512 rxn_smarts="[N:1](=[C:2]1\[O:3][C@@:4]2([H:9])[C:5]([H:10])([H:11])[C:6]([H:12])([H:13])[C@@:7]12[H:14])\[H:8]>>[N:1]([C:2]1=[O+:3][C-:4]2[C:5]([H:10])([H:11])[C:6]([H:12])([H:13])[C@@:7]12[H:14])([H:8])[H:9]"
N        2.29380179      -0.15902309      -0.75886171
C        1.38973128       0.04057619       0.20337396
O        0.79814736      -1.10096568       0.64376763
C       -0.12915530      -0.72851950      -0.48782407
C       -1.49281509      -0.51613007       0.16162679
C       -1.02063767       0.85197150       0.70716485
C        0.24882854       0.84802945      -0.15458923
H        2.85951797      -0.97265488      -0.53277279
H        1.19946317      -0.72622416      -1.40872665
H       -1.78123803      -1.26575350       0.89725324
H       -2.27491637      -0.41640778      -0.59050792
H       -0.80621685       0.86068250       1.77382547
H       -1.68032142       1.68213191       0.46512221
H        0.39581064       1.60228712      -0.91885178
14
Frame=4 idx=011220 GeodesicLength=0.3059464786446301 rxn_smarts="[N:1](=[C:2]1\[O:3][C@@:4]2([H:9])[C:5]([H:10])([H:11])[C:6]([H:12])([H:13])[C@@:7]12[H:14])\[H:8]>>[N:1]([C:2]1=[O+:3][C-:4]2[C:5]([H:10])([H:11])[C:6]([H:12])([H:13])[C@@:7]12[H:14])([H:8])[H:9]"
N        2.30541410      -0.15976522      -0.74420419
C        1.38941781       0.03293224       0.20574508
O        0.79210601      -1.11020963       0.62801104
C       -0.14020524      -0.72687437      -0.50153868
C       -1.49735540      -0.51411587       0.16443560
C       -1.02079757       0.85284748       0.70851050
C        0.24610152       0.84075458      -0.15777868
H        2.88048100      -0.96533320      -0.51503285
H        1.20286738      -0.72137043      -1.43442400
H       -1.77626676      -1.26359369       0.90404371
H       -2.29126299      -0.41695542      -0.57555340
H       -0.80370643       0.86923771       1.77467980
H       -1.67875806       1.68301559       0.46152717
H        0.39196461       1.59943024      -0.91842110
14
Frame=5 idx=011220 GeodesicLength=0.3823574491946806 rxn_smarts="[N:1](=[C:2]1\[O:3][C@@:4]2([H:9])[C:5]([H:10])([H:11])[C:6]([H:12])([H:13])[C@@:7]12[H:14])\[H:8]>>[N:1]([C:2]1=[O+:3][C-:4]2[C:5]([H:10])([H:11])[C:6]([H:12])([H:13])[C@@:7]12[H:14])([H:8])[H:9]"
N        2.31681765      -0.16087649      -0.72938941
C        1.38896535       0.02504172       0.20797241
O        0.78601861      -1.11956548       0.61177343
C       -0.15155232      -0.72514467      -0.51536144
C       -1.50189098      -0.51211252       0.16732872
C       -1.02085499       0.85371823       0.70982258
C        0.24334234       0.83338349      -0.16112416
H        2.90157574      -0.95765816      -0.49621131
H        1.20613384      -0.71602538      -1.46077434
H       -1.77107644      -1.26146546       0.91083248
H       -2.30756341      -0.41754650      -0.56016605
H       -0.80095808       0.87788324       1.77540987
H       -1.67711535       1.68386121       0.45795011
H        0.38815805       1.59650676      -0.91806288
14
Frame=6 idx=011220 GeodesicLength=0.45881122388106405 rxn_smarts="[N:1](=[C:2]1\[O:3][C@@:4]2([H:9])[C:5]([H:10])([H:11])[C:6]([H:12])([H:13])[C@@:7]12[H:14])\[H:8]>>[N:1]([C:2]1=[O+:3][C-:4]2[C:5]([H:10])([H:11])[C:6]([H:12])([H:13])[C@@:7]12[H:14])([H:8])[H:9]"
N        2.32801726      -0.16237885      -0.71439556
C        1.38836562       0.01688516       0.21003582
O        0.77988299      -1.12903954       0.59501106
C       -0.16321647      -0.72332612      -0.52930138
C       -1.50641748      -0.51012290       0.17031534
C       -1.02079873       0.85458223       0.71109697
C        0.24055076       0.82590877      -0.16464079
H        2.92278738      -0.94959569      -0.47620746
H        1.20922562      -0.71015298      -1.48783174
H       -1.76564333      -1.25937212       0.91762800
H       -2.32381600      -0.41818362      -0.54431654
H       -0.79794885       0.88662001       1.77600542
H       -1.67538477       1.68466698       0.45439062
H        0.38439600       1.59350866      -0.91778974
14
Frame=7 idx=011220 GeodesicLength=0.5352937582987533 rxn_smarts="[N:1](=[C:2]1\[O:3][C@@:4]2([H:9])[C:5]([H:10])([H:11])[C:6]([H:12])([H:13])[C@@:7]12[H:14])\[H:8]>>[N:1]([C:2]1=[O+:3][C-:4]2[C:5]([H:10])([H:11])[C:6]([H:12])([H:13])[C@@:7]12[H:14])([H:8])[H:9]"
N        2.33901806      -0.16429511      -0.69922028
C        1.38761581       0.00844927       0.21192541
O        0.77369154      -1.13863827       0.57770774
C       -0.17520829      -0.72142045      -0.54335833
C       -1.51093216      -0.50814803       0.17340164
C       -1.02061982       0.85543838       0.71233054
C        0.23772729       0.81832293      -0.16833793
H        2.94408989      -0.94111017      -0.45496551
H        1.21212724      -0.70372305      -1.51562390
H       -1.75995699      -1.25731382       0.92443227
H       -2.34001185      -0.41886953      -0.52798639
H       -0.79466336       0.89544926       1.77645838
H       -1.67356020       1.68543165       0.45084719
H        0.38068283       1.59042695      -0.91761085
14
Frame=8 idx=011220 GeodesicLength=0.611849089513624 rxn_smarts="[N:1](=[C:2]1\[O:3][C@@:4]2([H:9])[C:5]([H:10])([H:11])[C:6]([H:12])([H:13])[C@@:7]12[H:14])\[H:8]>>[N:1]([C:2]1=[O+:3][C-:4]2[C:5]([H:10])([H:11])[C:6]([H:12])([H:13])[C@@:7]12[H:14])([H:8])[H:9]"
N        2.34982706      -0.16664749      -0.68383048
C        1.38670748      -0.00028219       0.21362740
O        0.76744537      -1.14836196       0.55982181
C       -0.18754537      -0.71942129      -0.55753936
C       -1.51542639      -0.50619286       0.17659789
C       -1.02030830       0.85628616       0.71351741
C        0.23487206       0.81062006      -0.17222981
H        2.96544748      -0.93218263      -0.43240244
H        1.21480368      -0.69669174      -1.54420220
H       -1.75398690      -1.25529605       0.93125240
H       -2.35614406      -0.41961209      -0.51114480
H       -0.79108161       0.90437617       1.77675613
H       -1.67163623       1.68615168       0.44731445
H        0.37702572       1.58725422      -0.91753841
14
Frame=9 idx=011220 GeodesicLength=0.6884650950904178 rxn_smarts="[N:1](=[C:2]1\[O:3][C@@:4]2([H:9])[C:5]([H:10])([H:11])[C:6]([H:12])([H:13])[C@@:7]12[H:14])\[H:8]>>[N:1]([C:2]1=[O+:3][C-:4]2[C:5]([H:10])([H:11])[C:6]([H:12])([H:13])[C@@:7]12[H:14])([H:8])[H:9]"
N        2.36044484      -0.16946087      -0.66821050
C        1.38563814      -0.00932097       0.21513740
O        0.76113674      -1.15821332       0.54133426
C       -0.20023805      -0.71732775      -0.57184160
C       -1.51989741      -0.50425920       0.17991299
C       -1.01985756       0.85712575       0.71465275
C        0.23198452       0.80279375      -0.17632571
H        2.98684314      -0.92278821      -0.40847982
H        1.21723672      -0.68902667      -1.57359259
H       -1.74771920      -1.25332015       0.93809323
H       -2.37220075      -0.42041605      -0.49377770
H       -0.78719058       0.91340614       1.77689014
H       -1.66960999       1.68682519       0.44378828
H        0.37342943       1.58398235      -0.91758113
14
Frame=10 idx=011220 GeodesicLength=0.7651456808655891 rxn_smarts="[N:1](=[C:2]1\[O:3][C@@:4]2([H:9])[C:5]([H:10])([H:11])[C:6]([H:12])([H:13])[C@@:7]12[H:14])\[H:8]>>[N:1]([C:2]1=[O+:3][C-:4]2[C:5]([H:10])([H:11])[C:6]([H:12])([H:13])[C@@:7]12[H:14])([H:8])[H:9]"
N        2.37087694      -0.17277347      -0.65234390
C        1.38439884      -0.01869263       0.21643053
O        0.75476247      -1.16819899       0.52219609
C       -0.21330799      -0.71513707      -0.58627516
C       -1.52433403      -0.50235160       0.18335704
C       -1.01924992       0.85795487       0.71573020
C        0.22906709       0.79483342      -0.18064391
H        3.00820689      -0.91287179      -0.38307493
H        1.21939478      -0.68067314      -1.60384732
H       -1.74111990      -1.25139044       0.94495955
H       -2.38817154      -0.42128887      -0.47584264
H       -0.78295937       0.92254069       1.77684434
H       -1.66746848       1.68744937       0.44026462
H        0.36990421       1.58059963      -0.91775450
14
Frame=11 idx=011220 GeodesicLength=0.841892416070842 rxn_smarts="[N:1](=[C:2]1\[O:3][C@@:4]2([H:9])[C:5]([H:10])([H:11])[C:6]([H:12])([H:13])[C@@:7]12[H:14])\[H:8]>>[N:1]([C:2]1=[O+:3][C-:4]2[C:5]([H:10])([H:11])[C:6]([H:12])([H:13])[C@@:7]12[H:14])([H:8])[H:9]"
N        2.38113593      -0.17660950      -0.63620291
C        1.38298689      -0.02841133       0.21749547
O        0.74832133      -1.17831991       0.50238370
C       -0.22676871      -0.71284887      -0.60083853
C       -1.52872619      -0.50047535       0.18694009
C       -1.01847393       0.85877226       0.71674370
C        0.22612038       0.78673066      -0.18519835
H        3.02947968      -0.90240315      -0.35613324
H        1.22125131      -0.67158832      -1.63499625
H       -1.73416728      -1.24951166       0.95185552
H       -2.40404339      -0.42223350      -0.45731969
H       -0.77836781       0.93178406       1.77660538
H       -1.66520510       1.68801977       0.43673838
H        0.36645689       1.57709482      -0.91807326
14
Frame=12 idx=011220 GeodesicLength=0.9186733802446574 rxn_smarts="[N:1](=[C:2]1\[O:3][C@@:4]2([H:9])[C:5]([H:10])([H:11])[C:6]([H:12])([H:13])[C@@:7]12[H:14])\[H:8]>>[N:1]([C:2]1=[O+:3][C-:4]2[C:5]([H:10])([H:11])[C:6]([H:12])([H:13])[C@@:7]12[H:14])([H:8])[H:9]"
N        2.39122136      -0.18100992      -0.61976785
C        1.38139656      -0.03849570       0.21831633
O        0.74180928      -1.18857774       0.48185499
C       -0.24063709      -0.71045847      -0.61553468
C       -1.53306242      -0.49863520       0.19067262
C       -1.01751502       0.85957701       0.71768490
C        0.22314575       0.77847742      -0.19000606
H        3.05058160      -0.89134600      -0.32756710
H        1.22278892      -0.66171274      -1.66707413
H       -1.72682709      -1.24768821       0.95878337
H       -2.41979673      -0.42326405      -0.43816858
H       -0.77338993       0.94114218       1.77615608
H       -1.66281200       1.68853298       0.43320221
H        0.36309680       1.57345844      -0.91855210
14
Frame=13 idx=011220 GeodesicLength=0.9954458715849522 rxn_smarts="[N:1](=[C:2]1\[O:3][C@@:4]2([H:9])[C:5]([H:10])([H:11])[C:6]([H:12])([H:13])[C@@:7]12[H:14])\[H:8]>>[N:1]([C:2]1=[O+:3][C-:4]2[C:5]([H:10])([H:11])[C:6]([H:12])([H:13])[C@@:7]12[H:14])([H:8])[H:9]"
N        2.40114399      -0.18600547      -0.60301311
C        1.37962571      -0.04895503       0.21890090
O        0.73522291      -1.19896554       0.46060540
C       -0.25491792      -0.70796629      -0.63035166
C       -1.53733195      -0.49683629       0.19456277
C       -1.01636659       0.86037005       0.71854581
C        0.22014537       0.77006701      -0.19507291
H        3.07143717      -0.87968569      -0.29738177
H        1.22400008      -0.65099663      -1.70008926
H       -1.71908073      -1.24592236       0.96574493
H       -2.43540451      -0.42439319      -0.41837692
H       -0.76801833       0.95062611       1.77548261
H       -1.66028835       1.68898442       0.42964255
H        0.35983317       1.56967890      -0.91919935
14
Frame=14 idx=011220 GeodesicLength=1.0722028418145817 rxn_smarts="[N:1](=[C:2]1\[O:3][C@@:4]2([H:9])[C:5]([H:10])([H:11])[C:6]([H:12])([H:13])[C@@:7]12[H:14])\[H:8]>>[N:1]([C:2]1=[O+:3][C-:4]2[C:5]([H:10])([H:11])[C:6]([H:12])([H:13])[C@@:7]12[H:14])([H:8])[H:9]"
N        2.41090715      -0.19163392      -0.58589777
C        1.37766664      -0.05981430       0.21922263
O        0.72855961      -1.20948574       0.43858045
C       -0.26963143      -0.70536785      -0.64529635
C       -1.54151829      -0.49508532       0.19862342
C       -1.01500930       0.86114959       0.71931584
C        0.21712127       0.76148934      -0.20042206
H        3.09193705      -0.86737790      -0.26547085
H        1.22485819      -0.63937508      -1.73408375
H       -1.71088272      -1.24421959       0.97274512
H       -2.45084605      -0.42563352      -0.39789550
H       -0.76221727       0.96024131       1.77456282
H       -1.65762179       1.68936900       0.42605211
H        0.35667693       1.56574397      -0.92003612
14
Frame=15 idx=011220 GeodesicLength=1.1489033767552803 rxn_smarts="[N:1](=[C:2]1\[O:3][C@@:4]2([H:9])[C:5]([H:10])([H:11])[C:6]([H:12])([H:13])[C@@:7]12[H:14])\[H:8]>>[N:1]([C:2]1=[O+:3][C-:4]2[C:5]([H:10])([H:11])[C:6]([H:12])([H:13])[C@@:7]12[H:14])([H:8])[H:9]"
N        2.42052352      -0.19792974      -0.56838963
C        1.37551553      -0.07108706       0.21928364
O        0.72181762      -1.22013448       0.41576132
C       -0.28478601      -0.70266296      -0.66035942
C       -1.54560736      -0.49338746       0.20286406
C       -1.01343118       0.86191575       0.71998487
C        0.21407655       0.75273557      -0.20606532
H        3.11196641      -0.85439513      -0.23181495
H        1.22535220      -0.62679177      -1.76906921
H       -1.70220214      -1.24258205       0.97978397
H       -2.46608863      -0.42700052      -0.37669948
H       -0.75596945       0.96999788       1.77337785
H       -1.65480716       1.68968186       0.42241786
H        0.35364010       1.56164010      -0.92107556
14
Frame=16 idx=011220 GeodesicLength=1.225501312334619 rxn_smarts="[N:1](=[C:2]1\[O:3][C@@:4]2([H:9])[C:5]([H:10])([H:11])[C:6]([H:12])([H:13])[C@@:7]12[H:14])\[H:8]>>[N:1]([C:2]1=[O+:3][C-:4]2[C:5]([H:10])([H:11])[C:6]([H:12])([H:13])[C@@:7]12[H:14])([H:8])[H:9]"
N        2.42999885      -0.20493187      -0.55045579
C        1.37316662      -0.08279064       0.21908033
O        0.71499821      -1.23090872       0.39212247
C       -0.30039302      -0.69985214      -0.67553401
C       -1.54958182      -0.49174943       0.20729496
C       -1.01161782       0.86266870       0.72054244
C        0.21101424       0.74379599      -0.21201690
H        3.13140035      -0.84070445      -0.19637990
H        1.22547333      -0.61318656      -1.80505860
H       -1.69300242      -1.24101260       0.98686119
H       -2.48110087      -0.42850856      -0.35475765
H       -0.74925259       0.97990682       1.77190658
H       -1.65183832       1.68991896       0.41872726
H        0.35073525       1.55735450      -0.92233240
