11
Frame=0 idx=009952 GeodesicLength=0.0 rxn_smarts="[C:1]([C:2](=[O:3])[C:4](=[O:5])[C:6](=[O:7])[H:11])([H:8])([H:9])[H:10]>>[C:1](=[C:2]=[O:3])([H:8])[H:9].[C:4](=[O:5])=[C:6]([O:7][H:10])[H:11]"
C       -1.19868808       0.27506556      -0.78373626
C       -0.64439592      -0.94322247      -0.38414601
O       -0.55046048      -2.08228908      -0.25186008
C        1.06612184      -0.36936508       1.37701934
O        0.89885684      -1.11463743       2.24889190
C        1.36041429       0.51836084       0.40196184
O        0.70300101       1.62529803       0.23112816
H       -2.19304382       0.39600442      -0.35705286
H       -1.18402675       0.36625448      -1.86932261
H       -0.40997182       1.14942099      -0.33775162
H        2.15219287       0.17910976      -0.27513185
11
Frame=1 idx=009952 GeodesicLength=0.08972177595735238 rxn_smarts="[C:1]([C:2](=[O:3])[C:4](=[O:5])[C:6](=[O:7])[H:11])([H:8])([H:9])[H:10]>>[C:1](=[C:2]=[O:3])([H:8])[H:9].[C:4](=[O:5])=[C:6]([O:7][H:10])[H:11]"
C       -1.22164376       0.27008180      -0.78100293
C       -0.65970617      -0.94384618      -0.37816536
O       -0.53724037      -2.08633697      -0.29737363
C        1.02680993      -0.36797444       1.37078351
O        0.89787310      -1.12324300       2.24172968
C        1.37438278       0.51638317       0.40536126
O        0.72804214       1.61989932       0.18683543
H       -2.19362885       0.41124085      -0.31130244
H       -1.25538533       0.34352981      -1.86712365
H       -0.40109682       1.15475074      -0.38199930
H        2.24159335       0.20551488      -0.18774257
11
Frame=2 idx=009952 GeodesicLength=0.1759163499449962 rxn_smarts="[C:1]([C:2](=[O:3])[C:4](=[O:5])[C:6](=[O:7])[H:11])([H:8])([H:9])[H:10]>>[C:1](=[C:2]=[O:3])([H:8])[H:9].[C:4](=[O:5])=[C:6]([O:7][H:10])[H:11]"
C       -1.24457151       0.26487732      -0.77744728
C       -0.67548629      -0.94561812      -0.37329005
O       -0.52376627      -2.08845854      -0.34395410
C        0.99094176      -0.36797675       1.36103968
O        0.89540964      -1.12799935       2.23352576
C        1.38958760       0.51254761       0.40661387
O        0.75467144       1.61064678       0.13987265
H       -2.19166005       0.42711854      -0.26574119
H       -1.32732254       0.32204158      -1.86152859
H       -0.39248632       1.15734199      -0.42624782
H        2.32468255       0.23547893      -0.09284294
11
Frame=3 idx=009952 GeodesicLength=0.25841706729659114 rxn_smarts="[C:1]([C:2](=[O:3])[C:4](=[O:5])[C:6](=[O:7])[H:11])([H:8])([H:9])[H:10]>>[C:1](=[C:2]=[O:3])([H:8])[H:9].[C:4](=[O:5])=[C:6]([O:7][H:10])[H:11]"
C       -1.26686376       0.25950274      -0.77268506
C       -0.69026371      -0.94850739      -0.37035821
O       -0.50825907      -2.08851936      -0.39248997
C        0.95816352      -0.36875456       1.34858584
O        0.88962247      -1.12831660       2.22554561
C        1.40644740       0.50731614       0.40643886
O        0.78342974       1.59766499       0.08987605
H       -2.18635019       0.44254926      -0.21947645
H       -1.39971072       0.30258163      -1.85204498
H       -0.38414666       1.15773831      -0.46978130
H        2.39793099       0.26674485       0.00638961
11
Frame=4 idx=009952 GeodesicLength=0.3378341143186424 rxn_smarts="[C:1]([C:2](=[O:3])[C:4](=[O:5])[C:6](=[O:7])[H:11])([H:8])([H:9])[H:10]>>[C:1](=[C:2]=[O:3])([H:8])[H:9].[C:4](=[O:5])=[C:6]([O:7][H:10])[H:11]"
C       -1.28812639       0.25382054      -0.76694058
C       -0.70378027      -0.95245553      -0.36899482
O       -0.49296668      -2.08688418      -0.44148052
C        0.92907074      -0.37067713       1.33323860
O        0.88128859      -1.12471285       2.21794542
C        1.42499019       0.50115061       0.40503430
O        0.81390425       1.58104316       0.03765758
H       -2.17807300       0.45700364      -0.17405011
H       -1.46992381       0.28536168      -1.83914826
H       -0.37691630       1.15651621      -0.51075909
H        2.46053266       0.29983385       0.10749748
11
Frame=5 idx=009952 GeodesicLength=0.4148297630440933 rxn_smarts="[C:1]([C:2](=[O:3])[C:4](=[O:5])[C:6](=[O:7])[H:11])([H:8])([H:9])[H:10]>>[C:1](=[C:2]=[O:3])([H:8])[H:9].[C:4](=[O:5])=[C:6]([O:7][H:10])[H:11]"
C       -1.30830498       0.24802481      -0.76045526
C       -0.71656760      -0.95718908      -0.36819831
O       -0.47779452      -2.08333560      -0.49047745
C        0.90359054      -0.37379923       1.31579696
O        0.87154913      -1.11843626       2.21085117
C        1.44496977       0.49423049       0.40311834
O        0.84586903       1.56067578      -0.01629822
H       -2.16744049       0.47085058      -0.13046250
H       -1.53720446       0.26989914      -1.82345302
H       -0.37076583       1.15431777      -0.54908938
H        2.51209942       0.33476160       0.20866766
11
Frame=6 idx=009952 GeodesicLength=0.4897127301793599 rxn_smarts="[C:1]([C:2](=[O:3])[C:4](=[O:5])[C:6](=[O:7])[H:11])([H:8])([H:9])[H:10]>>[C:1](=[C:2]=[O:3])([H:8])[H:9].[C:4](=[O:5])=[C:6]([O:7][H:10])[H:11]"
C       -1.32729028       0.24224595      -0.75371201
C       -0.72927568      -0.96244066      -0.36714921
O       -0.46479569      -2.07807308      -0.53811231
C        0.88247535      -0.37933098       1.29619291
O        0.86176398      -1.11091583       2.20395231
C        1.46621071       0.48655608       0.40111071
O        0.87864469       1.53632254      -0.07068364
H       -2.15473483       0.48500271      -0.08975249
H       -1.60106807       0.25546445      -1.80578573
H       -0.36511816       1.15118569      -0.58543449
H        2.55318799       0.37398313       0.30937395
11
Frame=7 idx=009952 GeodesicLength=0.563232368812355 rxn_smarts="[C:1]([C:2](=[O:3])[C:4](=[O:5])[C:6](=[O:7])[H:11])([H:8])([H:9])[H:10]>>[C:1](=[C:2]=[O:3])([H:8])[H:9].[C:4](=[O:5])=[C:6]([O:7][H:10])[H:11]"
C       -1.34507774       0.23648345      -0.74648093
C       -0.74119638      -0.96821462      -0.36644752
O       -0.45388928      -2.07160830      -0.58459988
C        0.86483674      -0.38659448       1.27491568
O        0.85174571      -1.10233188       2.19709802
C        1.48868207       0.47875304       0.39960360
O        0.91279446       1.50789075      -0.12666273
H       -2.14005446       0.49873092      -0.05115002
H       -1.66161757       0.24255571      -1.78615339
H       -0.36004348       1.14770361      -0.61933754
H        2.58381994       0.41663179       0.40921471
11
Frame=8 idx=009952 GeodesicLength=0.6354975200428213 rxn_smarts="[C:1]([C:2](=[O:3])[C:4](=[O:5])[C:6](=[O:7])[H:11])([H:8])([H:9])[H:10]>>[C:1](=[C:2]=[O:3])([H:8])[H:9].[C:4](=[O:5])=[C:6]([O:7][H:10])[H:11]"
C       -1.36143997       0.23074319      -0.73856420
C       -0.75169254      -0.97441593      -0.36651735
O       -0.44420374      -2.06405172      -0.63046242
C        0.84982347      -0.39498249       1.25262129
O        0.84096451      -1.09247634       2.19047052
C        1.51174982       0.47179478       0.39968751
O        0.94841518       1.47528474      -0.18450368
H       -2.12306989       0.51148443      -0.01389265
H       -1.71893616       0.23134889      -1.76448268
H       -0.35531635       1.14432457      -0.65065285
H        2.60370568       0.46094589       0.50629650
11
Frame=9 idx=009952 GeodesicLength=0.706810124681725 rxn_smarts="[C:1]([C:2](=[O:3])[C:4](=[O:5])[C:6](=[O:7])[H:11])([H:8])([H:9])[H:10]>>[C:1](=[C:2]=[O:3])([H:8])[H:9].[C:4](=[O:5])=[C:6]([O:7][H:10])[H:11]"
C       -1.37652455       0.22541647      -0.73050388
C       -0.76216217      -0.98080685      -0.36643260
O       -0.43982150      -2.05646086      -0.67392286
C        0.83953306      -0.40735763       1.22793575
O        0.83149666      -1.08366615       2.18290124
C        1.53584040       0.46498652       0.40092035
O        0.98546389       1.43698622      -0.24398501
H       -2.10391114       0.52523098       0.02105631
H       -1.77323918       0.22142937      -1.74147019
H       -0.34986274       1.14039756      -0.68069085
H        2.61318728       0.51384437       0.60419174
11
Frame=10 idx=009952 GeodesicLength=0.77699536396574 rxn_smarts="[C:1]([C:2](=[O:3])[C:4](=[O:5])[C:6](=[O:7])[H:11])([H:8])([H:9])[H:10]>>[C:1](=[C:2]=[O:3])([H:8])[H:9].[C:4](=[O:5])=[C:6]([O:7][H:10])[H:11]"
C       -1.39010845       0.22060242      -0.72255866
C       -0.77224573      -0.98712122      -0.36576533
O       -0.44069445      -2.04927271      -0.71436152
C        0.83428554      -0.42383415       1.20146474
O        0.82400299      -1.07606419       2.17477217
C        1.56015905       0.45968966       0.40434750
O        1.02332977       1.39400173      -0.30324012
H       -2.08333211       0.53966388       0.05285032
H       -1.82320919       0.21293584      -1.71805029
H       -0.34356035       1.13651680      -0.70869870
H        2.61137293       0.57288195       0.69923989
11
Frame=11 idx=009952 GeodesicLength=0.845805683055767 rxn_smarts="[C:1]([C:2](=[O:3])[C:4](=[O:5])[C:6](=[O:7])[H:11])([H:8])([H:9])[H:10]>>[C:1](=[C:2]=[O:3])([H:8])[H:9].[C:4](=[O:5])=[C:6]([O:7][H:10])[H:11]"
C       -1.40185887       0.21631086      -0.71443083
C       -0.78132110      -0.99329437      -0.36490142
O       -0.44621238      -2.04276256      -0.75236280
C        0.83413947      -0.44454396       1.17296974
O        0.81755753      -1.06853904       2.16625706
C        1.58362074       0.45714383       0.41047492
O        1.06181499       1.34696175      -0.36143512
H       -2.06085330       0.55429566       0.08235762
H       -1.86902072       0.20594095      -1.69392140
H       -0.33586000       1.13268616      -0.73496599
H        2.59799366       0.63580072       0.78995821
11
Frame=12 idx=009952 GeodesicLength=0.9137878908848249 rxn_smarts="[C:1]([C:2](=[O:3])[C:4](=[O:5])[C:6](=[O:7])[H:11])([H:8])([H:9])[H:10]>>[C:1](=[C:2]=[O:3])([H:8])[H:9].[C:4](=[O:5])=[C:6]([O:7][H:10])[H:11]"
C       -1.41187005       0.21301654      -0.70628059
C       -0.79032778      -0.99908832      -0.36288371
O       -0.45955354      -2.03792860      -0.78660998
C        0.84216779      -0.47268653       1.14074860
O        0.81365738      -1.06274887       2.15609563
C        1.60687038       0.45650718       0.41841566
O        1.10163393       1.29453741      -0.41871383
H       -2.03654063       0.57072966       0.10917454
H       -1.91074784       0.20083520      -1.66953752
H       -0.32567382       1.12826612      -0.76023823
H        2.57038418       0.70856020       0.87982943
11
Frame=13 idx=009952 GeodesicLength=0.980482293197942 rxn_smarts="[C:1]([C:2](=[O:3])[C:4](=[O:5])[C:6](=[O:7])[H:11])([H:8])([H:9])[H:10]>>[C:1](=[C:2]=[O:3])([H:8])[H:9].[C:4](=[O:5])=[C:6]([O:7][H:10])[H:11]"
C       -1.41996715       0.21098535      -0.69894280
C       -0.79900826      -1.00358229      -0.35836528
O       -0.48082518      -2.03494183      -0.81409321
C        0.85886790      -0.50761748       1.10584025
O        0.81484224      -1.06140313       2.14278697
C        1.62850849       0.45854382       0.42861721
O        1.14147767       1.23984293      -0.47112827
H       -2.01100015       0.59012980       0.13161160
H       -1.94744652       0.19673419      -1.64634869
H       -0.31260928       1.12329272      -0.78552155
H        2.52716023       0.78801592       0.96554377
11
Frame=14 idx=009952 GeodesicLength=1.0461692632048138 rxn_smarts="[C:1]([C:2](=[O:3])[C:4](=[O:5])[C:6](=[O:7])[H:11])([H:8])([H:9])[H:10]>>[C:1](=[C:2]=[O:3])([H:8])[H:9].[C:4](=[O:5])=[C:6]([O:7][H:10])[H:11]"
C       -1.42636751       0.21050849      -0.69328703
C       -0.80731840      -1.00570954      -0.34987716
O       -0.50885877      -2.03364948      -0.83102367
C        0.88186757      -0.54527032       1.07042397
O        0.82558528      -1.06944622       2.12409357
C        1.64730054       0.46365968       0.44087236
O        1.18038811       1.18706190      -0.51576426
H       -1.98536223       0.61377146       0.14787528
H       -1.97881430       0.19230919      -1.62581409
H       -0.29677752       1.11782985      -0.81286310
H        2.46835723       0.86893499       1.04536412
11
Frame=15 idx=009952 GeodesicLength=1.1115653255864415 rxn_smarts="[C:1]([C:2](=[O:3])[C:4](=[O:5])[C:6](=[O:7])[H:11])([H:8])([H:9])[H:10]>>[C:1](=[C:2]=[O:3])([H:8])[H:9].[C:4](=[O:5])=[C:6]([O:7][H:10])[H:11]"
C       -1.43151326       0.21188602      -0.69006067
C       -0.81571146      -1.00448916      -0.33600760
O       -0.54314232      -2.03354916      -0.83474319
C        0.90923278      -0.58309841       1.03575293
O        0.85040571      -1.09126655       2.09918876
C        1.66324566       0.47094142       0.45493507
O        1.21797694       1.13810829      -0.55154549
H       -1.96091138       0.64305678       0.15623164
H       -2.00446517       0.18692315      -1.60947705
H       -0.27866935       1.11199033      -0.84302041
H        2.39355185       0.94949728       1.11874602
11
Frame=16 idx=009952 GeodesicLength=1.1773416665642278 rxn_smarts="[C:1]([C:2](=[O:3])[C:4](=[O:5])[C:6](=[O:7])[H:11])([H:8])([H:9])[H:10]>>[C:1](=[C:2]=[O:3])([H:8])[H:9].[C:4](=[O:5])=[C:6]([O:7][H:10])[H:11]"
C       -1.43571692       0.21431118      -0.68906558
C       -0.82288123      -1.00014740      -0.31829532
O       -0.58134881      -2.03465465      -0.82648967
C        0.93864000      -0.61850347       1.00148105
O        0.88616524      -1.12194666       2.06956276
C        1.67620308       0.48084524       0.47038713
O        1.25324170       1.09805288      -0.57685476
H       -1.93786443       0.67580244       0.15768875
H       -2.02591856       0.17957907      -1.59664870
H       -0.25950135       1.10585279      -0.87637290
H        2.30898129       1.02080859       1.18460726
