15
Frame=0 idx=008657 GeodesicLength=0.0 rxn_smarts="[C:1]([C@@:2]1([H:11])[O:3][C:4]12[C:5]([H:12])([H:13])[O:6][C:7]2([H:14])[H:15])([H:8])([H:9])[H:10]>>[C:1]([O:3][C:4]1([C:2][H:11])[C:5]([H:12])([H:13])[O:6][C:7]1([H:14])[H:15])([H:8])([H:9])[H:10]"
C        2.18887768      -0.23265109       0.07576631
C        0.54456229       0.19855185       1.19218296
O        0.76045569       0.65127740      -0.45984522
C       -0.41113761       0.11859962       0.10551703
C       -1.69600618       0.90242129      -0.13423941
O       -2.30822552      -0.25580094      -0.72085377
C       -1.13762941      -1.06391485      -0.51462959
H        2.77054451      -0.00452888       0.96144609
H        1.98469782      -1.29197757      -0.00550420
H        2.68565728       0.16147340      -0.81136166
H        0.48333170       1.18075841       1.67713102
H       -2.22116227       1.23121433       0.76655685
H       -1.60212950       1.73106067      -0.84066723
H       -0.71328135      -1.42681576      -1.45521155
H       -1.32855509      -1.89966786       0.16371231
15
Frame=1 idx=008657 GeodesicLength=0.04730616404446085 rxn_smarts="[C:1]([C@@:2]1([H:11])[O:3][C:4]12[C:5]([H:12])([H:13])[O:6][C:7]2([H:14])[H:15])([H:8])([H:9])[H:10]>>[C:1]([O:3][C:4]1([C:2][H:11])[C:5]([H:12])([H:13])[O:6][C:7]1([H:14])[H:15])([H:8])([H:9])[H:10]"
C        2.17942040      -0.23918721       0.07490989
C        0.55105419       0.22552692       1.18432898
O        0.75960451       0.66634067      -0.45895948
C       -0.41192636       0.12924562       0.10566521
C       -1.70368111       0.89961923      -0.13685761
O       -2.30814844      -0.26942403      -0.71019399
C       -1.12793770      -1.06389145      -0.50569771
H        2.75821346      -0.08179951       0.97834556
H        1.96734954      -1.29149289      -0.06431468
H        2.70834981       0.18852216      -0.77735035
H        0.48797143       1.20761996       1.66824822
H       -2.22868204       1.23237595       0.76259841
H       -1.61910934       1.72245657      -0.85127098
H       -0.70618487      -1.42755366      -1.44711463
H       -1.30629350      -1.89835832       0.17766316
15
Frame=2 idx=008657 GeodesicLength=0.09443359067432963 rxn_smarts="[C:1]([C@@:2]1([H:11])[O:3][C:4]12[C:5]([H:12])([H:13])[O:6][C:7]2([H:14])[H:15])([H:8])([H:9])[H:10]>>[C:1]([O:3][C:4]1([C:2][H:11])[C:5]([H:12])([H:13])[O:6][C:7]1([H:14])[H:15])([H:8])([H:9])[H:10]"
C        2.17002387      -0.24557870       0.07410923
C        0.55777511       0.25231645       1.17599219
O        0.75886709       0.68092687      -0.45878526
C       -0.41250492       0.13967587       0.10564573
C       -1.71102642       0.89670144      -0.13932959
O       -2.30790977      -0.28293170      -0.69899423
C       -1.11833261      -1.06388328      -0.49645078
H        2.74131665      -0.16035173       0.99255294
H        1.95208402      -1.28767660      -0.12452912
H        2.73166386       0.21470516      -0.73934558
H        0.49309199       1.23437831       1.65870870
H       -2.23569917       1.23363212       0.75880341
H       -1.63576563       1.71346067      -0.86178894
H       -0.69945694      -1.42867510      -1.43868607
H       -1.28412714      -1.89669978       0.19209740
15
Frame=3 idx=008657 GeodesicLength=0.14158732725440373 rxn_smarts="[C:1]([C@@:2]1([H:11])[O:3][C:4]12[C:5]([H:12])([H:13])[O:6][C:7]2([H:14])[H:15])([H:8])([H:9])[H:10]>>[C:1]([O:3][C:4]1([C:2][H:11])[C:5]([H:12])([H:13])[O:6][C:7]1([H:14])[H:15])([H:8])([H:9])[H:10]"
C        2.16054130      -0.25187466       0.07334455
C        0.56471326       0.27902237       1.16714838
O        0.75824806       0.69518534      -0.45925457
C       -0.41281341       0.14996236       0.10545563
C       -1.71795504       0.89365846      -0.14161592
O       -2.30737555      -0.29643354      -0.68715267
C       -1.10867193      -1.06392121      -0.48688205
H        2.71937498      -0.24007854       1.00388387
H        1.93888693      -1.28031967      -0.18625698
H        2.75524045       0.23953027      -0.69722083
H        0.49870824       1.26118201       1.64846309
H       -2.24207651       1.23498190       0.75518796
H       -1.65207670       1.70405685      -0.87217509
H       -0.69296024      -1.43017031      -1.42990066
H       -1.26178384      -1.89478163       0.20697530
15
Frame=4 idx=008657 GeodesicLength=0.18852070364174756 rxn_smarts="[C:1]([C@@:2]1([H:11])[O:3][C:4]12[C:5]([H:12])([H:13])[O:6][C:7]2([H:14])[H:15])([H:8])([H:9])[H:10]>>[C:1]([O:3][C:4]1([C:2][H:11])[C:5]([H:12])([H:13])[O:6][C:7]1([H:14])[H:15])([H:8])([H:9])[H:10]"
C        2.15093111      -0.25817438       0.07250060
C        0.57190664       0.30547835       1.15786714
O        0.75770836       0.70903729      -0.46030673
C       -0.41288046       0.16002295       0.10515600
C       -1.72445354       0.89047289      -0.14367517
O       -2.30646334      -0.30975167      -0.67505202
C       -1.09902520      -1.06395380      -0.47710823
H        2.69270812      -0.31977439       1.01176116
H        1.92815016      -1.26953195      -0.24850074
H        2.77856536       0.26232936      -0.65132841
H        0.50484709       1.28778718       1.63768750
H       -2.24789971       1.23622977       0.75182431
H       -1.66792201       1.69435618      -0.88218331
H       -0.68656141      -1.43204670      -1.42077634
H       -1.23961117      -1.89248108       0.22213424
15
Frame=5 idx=008657 GeodesicLength=0.23536196494086067 rxn_smarts="[C:1]([C@@:2]1([H:11])[O:3][C:4]12[C:5]([H:12])([H:13])[O:6][C:7]2([H:14])[H:15])([H:8])([H:9])[H:10]>>[C:1]([O:3][C:4]1([C:2][H:11])[C:5]([H:12])([H:13])[O:6][C:7]1([H:14])[H:15])([H:8])([H:9])[H:10]"
C        2.14126544      -0.26453768       0.07155551
C        0.57933769       0.33170770       1.14818411
O        0.75730788       0.72266859      -0.46190433
C       -0.41270630       0.16994640       0.10474588
C       -1.73065401       0.88718821      -0.14549915
O       -2.30523614      -0.32291947      -0.66264447
C       -1.08929658      -1.06397471      -0.46711367
H        2.66128559      -0.39925725       1.01610245
H        1.92000202      -1.25521204      -0.31116517
H        2.80157000       0.28243757      -0.60187722
H        0.51142778       1.31423793       1.62641830
H       -2.25335493       1.23737020       0.74874259
H       -1.68350396       1.68445401      -0.89185518
H       -0.68004583      -1.43422259      -1.41130592
H       -1.21739866      -1.88988685       0.23761627
15
Frame=6 idx=008657 GeodesicLength=0.2822977239677065 rxn_smarts="[C:1]([C@@:2]1([H:11])[O:3][C:4]12[C:5]([H:12])([H:13])[O:6][C:7]2([H:14])[H:15])([H:8])([H:9])[H:10]>>[C:1]([O:3][C:4]1([C:2][H:11])[C:5]([H:12])([H:13])[O:6][C:7]1([H:14])[H:15])([H:8])([H:9])[H:10]"
C        2.13144669      -0.27098950       0.07038323
C        0.58700556       0.35770037       1.13809907
O        0.75703894       0.73616244      -0.46402248
C       -0.41228940       0.17976227       0.10423326
C       -1.73653197       0.88380080      -0.14708587
O       -2.30362216      -0.33596902      -0.64997782
C       -1.07945687      -1.06400500      -0.45687715
H        2.62505999      -0.47828922       1.01660471
H        1.91453753      -1.23730728      -0.37400408
H        2.82400420       0.29961823      -0.54885631
H        0.51846870       1.34052610       1.61468750
H       -2.25843406       1.23838604       0.74594581
H       -1.69879656       1.67435704      -0.90117848
H       -0.67327256      -1.43675231      -1.40140976
H       -1.19515806      -1.88700096       0.25345837
15
Frame=7 idx=008657 GeodesicLength=0.3297251660973763 rxn_smarts="[C:1]([C@@:2]1([H:11])[O:3][C:4]12[C:5]([H:12])([H:13])[O:6][C:7]2([H:14])[H:15])([H:8])([H:9])[H:10]>>[C:1]([O:3][C:4]1([C:2][H:11])[C:5]([H:12])([H:13])[O:6][C:7]1([H:14])[H:15])([H:8])([H:9])[H:10]"
C        2.12155880      -0.27751611       0.06888984
C        0.59503303       0.38339278       1.12753702
O        0.75689999       0.74957011      -0.46663861
C       -0.41165394       0.18950054       0.10360591
C       -1.74221059       0.88027497      -0.14850709
O       -2.30176893      -0.34891271      -0.63703223
C       -1.06956639      -1.06398788      -0.44629276
H        2.58406294      -0.55702512       1.01291585
H        1.91207831      -1.21559985      -0.43688252
H        2.84578786       0.31383605      -0.49193662
H        0.52614333       1.36652336       1.60237926
H       -2.26324660       1.23926251       0.74328584
H       -1.71398367       1.66396616      -0.91026681
H       -0.66622673      -1.43958348      -1.39085240
H       -1.17290740      -1.88370133       0.26979532
15
Frame=8 idx=008657 GeodesicLength=0.37791278307597553 rxn_smarts="[C:1]([C@@:2]1([H:11])[O:3][C:4]12[C:5]([H:12])([H:13])[O:6][C:7]2([H:14])[H:15])([H:8])([H:9])[H:10]>>[C:1]([O:3][C:4]1([C:2][H:11])[C:5]([H:12])([H:13])[O:6][C:7]1([H:14])[H:15])([H:8])([H:9])[H:10]"
C        2.11111770      -0.28404816       0.06708339
C        0.60321987       0.40894644       1.11661039
O        0.75679236       0.76296108      -0.46958064
C       -0.41069466       0.19924423       0.10288475
C       -1.74734626       0.87651486      -0.14959652
O       -2.29909520      -0.36182262      -0.62397191
C       -1.05925842      -1.06387479      -0.43558321
H        2.53794634      -0.63407939       1.00492729
H        1.91194639      -1.19018238      -0.49893183
H        2.86603988       0.32355297      -0.43227249
H        0.53417660       1.39236943       1.58978729
H       -2.26740509       1.23975130       0.74102408
H       -1.72874589       1.65318349      -0.91874160
H       -0.65845542      -1.44261882      -1.37990676
H       -1.15023821      -1.87989765       0.28626777
15
Frame=9 idx=008657 GeodesicLength=0.4264885064855518 rxn_smarts="[C:1]([C@@:2]1([H:11])[O:3][C:4]12[C:5]([H:12])([H:13])[O:6][C:7]2([H:14])[H:15])([H:8])([H:9])[H:10]>>[C:1]([O:3][C:4]1([C:2][H:11])[C:5]([H:12])([H:13])[O:6][C:7]1([H:14])[H:15])([H:8])([H:9])[H:10]"
C        2.10074913      -0.29060386       0.06487332
C        0.61159717       0.43401061       1.10541471
O        0.75685352       0.77648034      -0.47290023
C       -0.40960649       0.20893292       0.10212352
C       -1.75243434       0.87277763      -0.15040812
O       -2.29611053      -0.37448405      -0.61113877
C       -1.04882595      -1.06378422      -0.42476671
H        2.48804814      -0.70878846       0.99254216
H        1.91488824      -1.16176323      -0.55903856
H        2.88510331       0.32872801      -0.37073329
H        0.54247903       1.41777309       1.57707738
H       -2.27173134       1.23992983       0.73917759
H       -1.74340629       1.64270273      -0.92664276
H       -0.64982717      -1.44594215      -1.36853881
H       -1.12777642      -1.87596918       0.30295856
15
Frame=10 idx=008657 GeodesicLength=0.47610722481303336 rxn_smarts="[C:1]([C@@:2]1([H:11])[O:3][C:4]12[C:5]([H:12])([H:13])[O:6][C:7]2([H:14])[H:15])([H:8])([H:9])[H:10]>>[C:1]([O:3][C:4]1([C:2][H:11])[C:5]([H:12])([H:13])[O:6][C:7]1([H:14])[H:15])([H:8])([H:9])[H:10]"
C        2.09004798      -0.29696189       0.06234244
C        0.62032464       0.45848247       1.09385652
O        0.75679586       0.78984481      -0.47641276
C       -0.40830015       0.21849413       0.10131035
C       -1.75712725       0.86875091      -0.15098544
O       -2.29251414      -0.38685771      -0.59867832
C       -1.03820590      -1.06342143      -0.41394283
H        2.43456785      -0.78020539       0.97573625
H        1.92019258      -1.13045437      -0.61634190
H        2.90201506       0.32913413      -0.30769017
H        0.55137300       1.44233220       1.56417625
H       -2.27553248       1.23941567       0.73756916
H       -1.75776889       1.63194172      -0.93383898
H       -0.64054922      -1.44916391      -1.35668859
H       -1.10531893      -1.87133132       0.31958802
15
Frame=11 idx=008657 GeodesicLength=0.5265479722793827 rxn_smarts="[C:1]([C@@:2]1([H:11])[O:3][C:4]12[C:5]([H:12])([H:13])[O:6][C:7]2([H:14])[H:15])([H:8])([H:9])[H:10]>>[C:1]([O:3][C:4]1([C:2][H:11])[C:5]([H:12])([H:13])[O:6][C:7]1([H:14])[H:15])([H:8])([H:9])[H:10]"
C        2.07936222      -0.30315755       0.05939927
C        0.62910696       0.48242609       1.08208040
O        0.75690868       0.80340806      -0.48014677
C       -0.40689918       0.22804067       0.10049265
C       -1.76170078       0.86471755      -0.15126166
O       -2.28850472      -0.39906719      -0.58651506
C       -1.02740140      -1.06307196      -0.40311810
H        2.37806809      -0.84820376       0.95454682
H        1.92799642      -1.09688587      -0.67060747
H        2.91733554       0.32458849      -0.24393107
H        0.56035828       1.46636479       1.55134700
H       -2.27947491       1.23854832       0.73639069
H       -1.77187430       1.62144546      -0.94039319
H       -0.63020915      -1.45255285      -1.34450840
H       -1.08307178      -1.86660025       0.33622489
15
Frame=12 idx=008657 GeodesicLength=0.5783560757125039 rxn_smarts="[C:1]([C@@:2]1([H:11])[O:3][C:4]12[C:5]([H:12])([H:13])[O:6][C:7]2([H:14])[H:15])([H:8])([H:9])[H:10]>>[C:1]([O:3][C:4]1([C:2][H:11])[C:5]([H:12])([H:13])[O:6][C:7]1([H:14])[H:15])([H:8])([H:9])[H:10]"
C        2.06840927      -0.30908456       0.05625089
C        0.63808221       0.50584747       1.07008350
O        0.75693926       0.81698761      -0.48402191
C       -0.40533513       0.23756889       0.09963756
C       -1.76599336       0.86045493      -0.15130359
O       -2.28387687      -0.41107980      -0.57473569
C       -1.01628089      -1.06248718      -0.39234567
H        2.31874770      -0.91224939       0.92924777
H        1.93768704      -1.06104304      -0.72144150
H        2.93045952       0.31468381      -0.17987860
H        0.56965249       1.48967268       1.53854785
H       -2.28311382       1.23700059       0.73552786
H       -1.78580717       1.61080374      -0.94632066
H       -0.61894095      -1.45573658      -1.33201641
H       -1.06062932      -1.86133919       0.35276860
15
Frame=13 idx=008657 GeodesicLength=0.631132408327676 rxn_smarts="[C:1]([C@@:2]1([H:11])[O:3][C:4]12[C:5]([H:12])([H:13])[O:6][C:7]2([H:14])[H:15])([H:8])([H:9])[H:10]>>[C:1]([O:3][C:4]1([C:2][H:11])[C:5]([H:12])([H:13])[O:6][C:7]1([H:14])[H:15])([H:8])([H:9])[H:10]"
C        2.05762017      -0.31480675       0.05274745
C        0.64711798       0.52868649       1.05803995
O        0.75693406       0.83070131      -0.48818335
C       -0.40375699       0.24708734       0.09880044
C       -1.77030355       0.85630175      -0.15110934
O       -2.27889551      -0.42287081      -0.56340414
C       -1.00494958      -1.06194380      -0.38164362
H        2.25764175      -0.97240749       0.89988740
H        1.94964101      -1.02398490      -0.76869960
H        2.94157347       0.30008722      -0.11583192
H        0.57898533       1.51245260       1.52607740
H       -2.28698715       1.23529907       0.73515233
H       -1.79974487       1.60057615      -0.95180003
H       -0.60660996      -1.45913895      -1.31939178
H       -1.03826616      -1.85603924       0.36935881
15
Frame=14 idx=008657 GeodesicLength=0.6859659482312777 rxn_smarts="[C:1]([C@@:2]1([H:11])[O:3][C:4]12[C:5]([H:12])([H:13])[O:6][C:7]2([H:14])[H:15])([H:8])([H:9])[H:10]>>[C:1]([O:3][C:4]1([C:2][H:11])[C:5]([H:12])([H:13])[O:6][C:7]1([H:14])[H:15])([H:8])([H:9])[H:10]"
C        2.04661483      -0.32001671       0.04924942
C        0.65632660       0.55095937       1.04548632
O        0.75707055       0.84420279      -0.49232972
C       -0.40202330       0.25647790       0.09786814
C       -1.77417994       0.85167239      -0.15063198
O       -2.27345695      -0.43455120      -0.55241411
C       -0.99359163      -1.06108243      -0.37106202
H        2.19431154      -1.02766623       0.86661964
H        1.96312642      -0.98522144      -0.81171080
H        2.95036911       0.28056187      -0.05205998
H        0.58883848       1.53433713       1.51318663
H       -2.29035739       1.23253280       0.73494302
H       -1.81311756       1.58991912      -0.95630906
H       -0.59370141      -1.46204878      -1.30632666
H       -1.01622935      -1.85007657       0.38549115
15
Frame=15 idx=008657 GeodesicLength=0.7417180754187822 rxn_smarts="[C:1]([C@@:2]1([H:11])[O:3][C:4]12[C:5]([H:12])([H:13])[O:6][C:7]2([H:14])[H:15])([H:8])([H:9])[H:10]>>[C:1]([O:3][C:4]1([C:2][H:11])[C:5]([H:12])([H:13])[O:6][C:7]1([H:14])[H:15])([H:8])([H:9])[H:10]"
C        2.03576954      -0.32499903       0.04556737
C        0.66551630       0.57259892       1.03293172
O        0.75702724       0.85774091      -0.49673813
C       -0.40032784       0.26583150       0.09695748
C       -1.77808076       0.84718048      -0.14994824
O       -2.26764692      -0.44595109      -0.54193979
C       -0.98200120      -1.06022220      -0.36066259
H        2.13071647      -1.07830109       0.83000301
H        1.97818181      -0.94624745      -0.85066448
H        2.95672331       0.25649987       0.01083507
H        0.59860740       1.55562418       1.50066947
H       -2.29391683       1.22960898       0.73520586
H       -1.82654181       1.57975052      -0.96039215
H       -0.57984775      -1.46499703      -1.29332538
H       -0.99417895      -1.84411746       0.40150078
15
Frame=16 idx=008657 GeodesicLength=0.799118475819866 rxn_smarts="[C:1]([C@@:2]1([H:11])[O:3][C:4]12[C:5]([H:12])([H:13])[O:6][C:7]2([H:14])[H:15])([H:8])([H:9])[H:10]>>[C:1]([O:3][C:4]1([C:2][H:11])[C:5]([H:12])([H:13])[O:6][C:7]1([H:14])[H:15])([H:8])([H:9])[H:10]"
C        2.02495961      -0.32958090       0.04196436
C        0.67475575       0.59362304       1.02009483
O        0.75702273       0.87104475      -0.50126564
C       -0.39859062       0.27503803       0.09600504
C       -1.78173512       0.84247419      -0.14903084
O       -2.26152093      -0.45716360      -0.53186830
C       -0.97041029      -1.05920243      -0.35043178
H        2.06650722      -1.12400381       0.79021170
H        1.99467851      -0.90673917      -0.88541796
H        2.96047635       0.22827441       0.07272661
H        0.60863306       1.57613219       1.48804006
H       -2.29724717       1.22604616       0.73575219
H       -1.83958555       1.56954072      -0.96378046
H       -0.56545012      -1.46766194      -1.28016804
H       -0.97249342      -1.83782163       0.41716823
