13
Frame=0 idx=011289 GeodesicLength=0.0 rxn_smarts="[C:1]([C:2]([O:3]/[C:4](=[N:5]/[H:13])[C:6]#[N:7])([H:11])[H:12])([H:8])([H:9])[H:10]>>[C:1]([C:2]([O+:3]=[C-:4][N:5]([N+:7]#[C-:6])[H:13])([H:11])[H:12])([H:8])([H:9])[H:10]"
C       -2.19291488      -0.02208145      -0.10096291
C       -0.72704702      -0.36522342      -0.06278657
O        0.01325160       0.86948276       0.12597460
C        1.29679245       0.83392633       0.24052655
N        2.01696303      -0.27451677       0.21881218
C        3.03346973       1.55536787       0.09936588
N        3.32055888       0.31464272       0.08988645
H       -2.40658156       0.66623503      -0.91830318
H       -2.77741845      -0.93085491      -0.25037721
H       -2.50651896       0.43969592       0.83497312
H       -0.39312176      -0.81856542      -0.99980973
H       -0.49081923      -1.03635908       0.76728629
H        1.81338611      -1.23174958      -0.04458553
13
Frame=1 idx=011289 GeodesicLength=0.08519967675399673 rxn_smarts="[C:1]([C:2]([O:3]/[C:4](=[N:5]/[H:13])[C:6]#[N:7])([H:11])[H:12])([H:8])([H:9])[H:10]>>[C:1]([C:2]([O+:3]=[C-:4][N:5]([N+:7]#[C-:6])[H:13])([H:11])[H:12])([H:8])([H:9])[H:10]"
C       -2.19712641      -0.02246068      -0.09688110
C       -0.73108806      -0.36614624      -0.06402752
O        0.00946527       0.86821835       0.12114586
C        1.29634815       0.83362614       0.20850615
N        2.00735255      -0.27857670       0.23787176
C        3.04734479       1.55117586       0.07987573
N        3.33874973       0.32142187       0.14753324
H       -2.41349176       0.66640741      -0.91306335
H       -2.78271714      -0.93083939      -0.24446208
H       -2.50688347       0.43920640       0.84042623
H       -0.40087825      -0.82166118      -1.00133980
H       -0.49321651      -1.03741015       0.76548478
H        1.82614111      -1.22296168      -0.08106989
13
Frame=2 idx=011289 GeodesicLength=0.17035341176803043 rxn_smarts="[C:1]([C:2]([O:3]/[C:4](=[N:5]/[H:13])[C:6]#[N:7])([H:11])[H:12])([H:8])([H:9])[H:10]>>[C:1]([C:2]([O+:3]=[C-:4][N:5]([N+:7]#[C-:6])[H:13])([H:11])[H:12])([H:8])([H:9])[H:10]"
C       -2.20100496      -0.02238065      -0.09350235
C       -0.73497046      -0.36724936      -0.06506320
O        0.00617269       0.86628505       0.11892174
C        1.29580049       0.83131124       0.18182897
N        1.99715427      -0.28317453       0.25617427
C        3.06034935       1.54560221       0.05689506
N        3.35443953       0.33099279       0.19953394
H       -2.41901023       0.66824131      -0.90778903
H       -2.78792040      -0.92993299      -0.24100849
H       -2.50759696       0.43803275       0.84550100
H       -0.40774149      -0.82388307      -1.00290735
H       -0.49654818      -1.04000623       0.76310656
H        1.84087637      -1.21383851      -0.11169112
13
Frame=3 idx=011289 GeodesicLength=0.2554039319233947 rxn_smarts="[C:1]([C:2]([O:3]/[C:4](=[N:5]/[H:13])[C:6]#[N:7])([H:11])[H:12])([H:8])([H:9])[H:10]>>[C:1]([C:2]([O+:3]=[C-:4][N:5]([N+:7]#[C-:6])[H:13])([H:11])[H:12])([H:8])([H:9])[H:10]"
C       -2.20462084      -0.02195894      -0.09073807
C       -0.73876993      -0.36852301      -0.06590896
O        0.00325634       0.86384438       0.11807393
C        1.29510778       0.82748181       0.15948647
N        1.98663292      -0.28817030       0.27319476
C        3.07272507       1.53922820       0.03457755
N        3.36858664       0.34284967       0.24396448
H       -2.42347147       0.67092811      -0.90288290
H       -2.79307440      -0.92838088      -0.23905659
H       -2.50849009       0.43678365       0.85000362
H       -0.41400049      -0.82584219      -1.00430157
H       -0.50062875      -1.04341994       0.76061733
H        1.85674721      -1.20482058      -0.13703004
13
Frame=4 idx=011289 GeodesicLength=0.3405055302716064 rxn_smarts="[C:1]([C:2]([O:3]/[C:4](=[N:5]/[H:13])[C:6]#[N:7])([H:11])[H:12])([H:8])([H:9])[H:10]>>[C:1]([C:2]([O+:3]=[C-:4][N:5]([N+:7]#[C-:6])[H:13])([H:11])[H:12])([H:8])([H:9])[H:10]"
C       -2.20812342      -0.02129413      -0.08842536
C       -0.74255047      -0.36990781      -0.06664545
O        0.00057432       0.86103701       0.11835033
C        1.29429215       0.82256623       0.14095814
N        1.97588313      -0.29357952       0.28914267
C        3.08472964       1.53194855       0.01158339
N        3.38192113       0.35669109       0.28374438
H       -2.42722852       0.67432755      -0.89816905
H       -2.79825773      -0.92636601      -0.23829728
H       -2.50964090       0.43535224       0.85412694
H       -0.41978812      -0.82741596      -1.00566553
H       -0.50534190      -1.04755918       0.75791220
H        1.87353069      -1.19580007      -0.15861537
13
Frame=5 idx=011289 GeodesicLength=0.42562658713233187 rxn_smarts="[C:1]([C:2]([O:3]/[C:4](=[N:5]/[H:13])[C:6]#[N:7])([H:11])[H:12])([H:8])([H:9])[H:10]>>[C:1]([C:2]([O+:3]=[C-:4][N:5]([N+:7]#[C-:6])[H:13])([H:11])[H:12])([H:8])([H:9])[H:10]"
C       -2.21157087      -0.02043646      -0.08643168
C       -0.74636153      -0.37140713      -0.06732273
O       -0.00192562       0.85793898       0.11913812
C        1.29339792       0.81681466       0.12509349
N        1.96497637      -0.29939585       0.30385709
C        3.09648731       1.52412547      -0.01060423
N        3.39489476       0.37217278       0.31929223
H       -2.43053687       0.67810958      -0.89370469
H       -2.80353405      -0.92400356      -0.23818146
H       -2.51091464       0.43399917       0.85791816
H       -0.42535687      -0.82891131      -1.00697687
H       -0.51052881      -1.05211089       0.75513995
H        1.89097289      -1.18689543      -0.17721740
13
Frame=6 idx=011289 GeodesicLength=0.5107651968549234 rxn_smarts="[C:1]([C:2]([O:3]/[C:4](=[N:5]/[H:13])[C:6]#[N:7])([H:11])[H:12])([H:8])([H:9])[H:10]>>[C:1]([C:2]([O+:3]=[C-:4][N:5]([N+:7]#[C-:6])[H:13])([H:11])[H:12])([H:8])([H:9])[H:10]"
C       -2.21499527      -0.01941598      -0.08467526
C       -0.75022627      -0.37301045      -0.06797231
O       -0.00428664       0.85458107       0.12025811
C        1.29244896       0.81037308       0.11132614
N        1.95393517      -0.30564908       0.31742162
C        3.10805208       1.51586749      -0.03197621
N        3.40775341       0.38912936       0.35151122
H       -2.43351763       0.68217605      -0.88943577
H       -2.80892241      -0.92134436      -0.23850843
H       -2.51227502       0.43275105       0.86145225
H       -0.43080905      -0.83037047      -1.00826805
H       -0.51611815      -1.05697932       0.75230155
H        1.90896081      -1.17810844      -0.19343485
13
Frame=7 idx=011289 GeodesicLength=0.595918751716985 rxn_smarts="[C:1]([C:2]([O:3]/[C:4](=[N:5]/[H:13])[C:6]#[N:7])([H:11])[H:12])([H:8])([H:9])[H:10]>>[C:1]([C:2]([O+:3]=[C-:4][N:5]([N+:7]#[C-:6])[H:13])([H:11])[H:12])([H:8])([H:9])[H:10]"
C       -2.21842172      -0.01824784      -0.08310446
C       -0.75416203      -0.37471534      -0.06861182
O       -0.00653310       0.85097893       0.12161275
C        1.29147060       0.80332968       0.09925099
N        1.94278080      -0.31237912       0.32992856
C        3.11945186       1.50728959      -0.05251614
N        3.42067047       0.40745581       0.38096080
H       -2.43624680       0.68647797      -0.88532711
H       -2.81444368      -0.91841739      -0.23915895
H       -2.51370668       0.43162580       0.86477961
H       -0.43621341      -0.83182447      -1.00956030
H       -0.52206959      -1.06211514       0.74939931
H        1.92742328      -1.16945846      -0.20765325
13
Frame=8 idx=011289 GeodesicLength=0.6810825142646038 rxn_smarts="[C:1]([C:2]([O:3]/[C:4](=[N:5]/[H:13])[C:6]#[N:7])([H:11])[H:12])([H:8])([H:9])[H:10]>>[C:1]([C:2]([O+:3]=[C-:4][N:5]([N+:7]#[C-:6])[H:13])([H:11])[H:12])([H:8])([H:9])[H:10]"
C       -2.22186390      -0.01694088      -0.08167444
C       -0.75818095      -0.37652015      -0.06926539
O       -0.00867709       0.84715248       0.12317221
C        1.29048304       0.79575601       0.08860157
N        1.93150799      -0.31964119       0.34148661
C        3.13075031       1.49835608      -0.07253685
N        3.43369627       0.42718254       0.40837228
H       -2.43879482       0.69102276      -0.88132434
H       -2.82011043      -0.91524663      -0.24008275
H       -2.51516984       0.43060126       0.86797960
H       -0.44164458      -0.83327012      -1.01091132
H       -0.52833731      -1.06752459       0.74640448
H        1.94634131      -1.16092755      -0.22022166
13
Frame=9 idx=011289 GeodesicLength=0.7662559883006214 rxn_smarts="[C:1]([C:2]([O:3]/[C:4](=[N:5]/[H:13])[C:6]#[N:7])([H:11])[H:12])([H:8])([H:9])[H:10]>>[C:1]([C:2]([O+:3]=[C-:4][N:5]([N+:7]#[C-:6])[H:13])([H:11])[H:12])([H:8])([H:9])[H:10]"
C       -2.22531130      -0.01549630      -0.08037646
C       -0.76228236      -0.37841633      -0.06992510
O       -0.01074003       0.84303339       0.12494749
C        1.28947912       0.78761867       0.07914705
N        1.92012266      -0.32742819       0.35217623
C        3.14183700       1.48921776      -0.09180067
N        3.44696055       0.44819827       0.43351275
H       -2.44109440       0.69579462      -0.87736756
H       -2.82590291      -0.91177061      -0.24129391
H       -2.51671555       0.42962834       0.87102572
H       -0.44705448      -0.83467633      -1.01226825
H       -0.53495721      -1.07314836       0.74329193
H        1.96565891      -1.15255493      -0.23106920
13
Frame=10 idx=011289 GeodesicLength=0.8514423883089409 rxn_smarts="[C:1]([C:2]([O:3]/[C:4](=[N:5]/[H:13])[C:6]#[N:7])([H:11])[H:12])([H:8])([H:9])[H:10]>>[C:1]([C:2]([O+:3]=[C-:4][N:5]([N+:7]#[C-:6])[H:13])([H:11])[H:12])([H:8])([H:9])[H:10]"
C       -2.22879071      -0.01390817      -0.07916607
C       -0.76648773      -0.38042467      -0.07063343
O       -0.01270506       0.83867326       0.12686673
C        1.28849920       0.77897922       0.07068316
N        1.90861652      -0.33583871       0.36206225
C        3.15283934       1.47983925      -0.11060905
N        3.46044454       0.47064586       0.45714181
H       -2.44326313       0.70083799      -0.87343327
H       -2.83187347      -0.90803855      -0.24271356
H       -2.51825897       0.42874470       0.87402430
H       -0.45257251      -0.83609963      -1.01373628
H       -0.54187388      -1.07904968       0.74004277
H        1.98542586      -1.14436087      -0.24052936
13
Frame=11 idx=011289 GeodesicLength=0.9366395878814274 rxn_smarts="[C:1]([C:2]([O:3]/[C:4](=[N:5]/[H:13])[C:6]#[N:7])([H:11])[H:12])([H:8])([H:9])[H:10]>>[C:1]([C:2]([O+:3]=[C-:4][N:5]([N+:7]#[C-:6])[H:13])([H:11])[H:12])([H:8])([H:9])[H:10]"
C       -2.23230075      -0.01217358      -0.07804298
C       -0.77080058      -0.38254539      -0.07138131
O       -0.01457441       0.83402539       0.12898960
C        1.28755180       0.76980964       0.06317809
N        1.89700152      -0.34492126       0.37122218
C        3.16372203       1.47023153      -0.12904240
N        3.47419604       0.49457213       0.47929733
H       -2.44526569       0.70615194      -0.86950054
H       -2.83802548      -0.90401379      -0.24435852
H       -2.51982695       0.42792959       0.87695873
H       -0.45818161      -0.83749869      -1.01530178
H       -0.54911739      -1.08523422       0.73663344
H        2.00562146      -1.13633327      -0.24865183
13
Frame=12 idx=011289 GeodesicLength=1.021903636689015 rxn_smarts="[C:1]([C:2]([O:3]/[C:4](=[N:5]/[H:13])[C:6]#[N:7])([H:11])[H:12])([H:8])([H:9])[H:10]>>[C:1]([C:2]([O+:3]=[C-:4][N:5]([N+:7]#[C-:6])[H:13])([H:11])[H:12])([H:8])([H:9])[H:10]"
C       -2.23583942      -0.01028926      -0.07698340
C       -0.77522784      -0.38477989      -0.07219345
O       -0.01634073       0.82904999       0.13131671
C        1.28665092       0.76007555       0.05651035
N        1.88525254      -0.35471591       0.37971496
C        3.17452973       1.46027582      -0.14727828
N        3.48816431       0.52013067       0.50023241
H       -2.44709883       0.71177616      -0.86548323
H       -2.84436938      -0.89965949      -0.24624392
H       -2.52140112       0.42712174       0.87986884
H       -0.46390515      -0.83883967      -1.01699075
H       -0.55669951      -1.09171819       0.73299308
H        2.02628449      -1.12842752      -0.25546332
13
Frame=13 idx=011289 GeodesicLength=1.1071429388941003 rxn_smarts="[C:1]([C:2]([O:3]/[C:4](=[N:5]/[H:13])[C:6]#[N:7])([H:11])[H:12])([H:8])([H:9])[H:10]>>[C:1]([C:2]([O+:3]=[C-:4][N:5]([N+:7]#[C-:6])[H:13])([H:11])[H:12])([H:8])([H:9])[H:10]"
C       -2.23941836      -0.00822647      -0.07598356
C       -0.77977172      -0.38714742      -0.07308693
O       -0.01801385       0.82375333       0.13387983
C        1.28579716       0.74977033       0.05060380
N        1.87339210      -0.36530472       0.38761771
C        3.18520863       1.45008401      -0.16531409
N        3.50239581       0.54739706       0.51991163
H       -2.44878897       0.71780192      -0.86137951
H       -2.85091474      -0.89495800      -0.24841007
H       -2.52298875       0.42633557       0.88282084
H       -0.46975269      -0.84014393      -1.01888029
H       -0.56460252      -1.09857049       0.72911855
H        2.04745791      -1.12079119      -0.26089790
13
Frame=14 idx=011289 GeodesicLength=1.1924531322332474 rxn_smarts="[C:1]([C:2]([O:3]/[C:4](=[N:5]/[H:13])[C:6]#[N:7])([H:11])[H:12])([H:8])([H:9])[H:10]>>[C:1]([C:2]([O+:3]=[C-:4][N:5]([N+:7]#[C-:6])[H:13])([H:11])[H:12])([H:8])([H:9])[H:10]"
C       -2.24300502      -0.00599152      -0.07501490
C       -0.78444602      -0.38964395      -0.07409902
O       -0.01953814       0.81806437       0.13661642
C        1.28502623       0.73882093       0.04530551
N        1.86134834      -0.37671109       0.39491931
C        3.19579658       1.43962461      -0.18311784
N        3.51681368       0.57651315       0.53841149
H       -2.45027759       0.72422122      -0.85706635
H       -2.85767962      -0.88985473      -0.25082852
H       -2.52449853       0.42549688       0.88580701
H       -0.47579249      -0.84136904      -1.02095795
H       -0.57287438      -1.10576657       0.72489533
H        2.06912697      -1.11340427      -0.26487048
13
Frame=15 idx=011289 GeodesicLength=1.2777554237039472 rxn_smarts="[C:1]([C:2]([O:3]/[C:4](=[N:5]/[H:13])[C:6]#[N:7])([H:11])[H:12])([H:8])([H:9])[H:10]>>[C:1]([C:2]([O+:3]=[C-:4][N:5]([N+:7]#[C-:6])[H:13])([H:11])[H:12])([H:8])([H:9])[H:10]"
C       -2.24661455      -0.00356397      -0.07413662
C       -0.78923710      -0.39227619      -0.07517718
O       -0.02095636       0.81198253       0.13981874
C        1.28432146       0.72724256       0.04095201
N        1.84918154      -0.38904217       0.40181001
C        3.20620976       1.42885217      -0.20100347
N        3.53152227       0.60759141       0.55546347
H       -2.45152383       0.73112665      -0.85261950
H       -2.86463217      -0.88434250      -0.25369105
H       -2.52606775       0.42458644       0.88881229
H       -0.48191149      -0.84243119      -1.02324830
H       -0.58153544      -1.11341912       0.72035579
H        2.09124366      -1.10630665      -0.26733619
13
Frame=16 idx=011289 GeodesicLength=1.3630671910369254 rxn_smarts="[C:1]([C:2]([O:3]/[C:4](=[N:5]/[H:13])[C:6]#[N:7])([H:11])[H:12])([H:8])([H:9])[H:10]>>[C:1]([C:2]([O+:3]=[C-:4][N:5]([N+:7]#[C-:6])[H:13])([H:11])[H:12])([H:8])([H:9])[H:10]"
C       -2.25022805      -0.00093789      -0.07336421
C       -0.79414301      -0.39503835      -0.07633470
O       -0.02225391       0.80546307       0.14361201
C        1.28369258       0.71499731       0.03761731
N        1.83686023      -0.40234133       0.40842397
C        3.21640537       1.41771853      -0.21912636
N        3.54653619       0.64078365       0.57086441
H       -2.45246307       0.73860111      -0.84795568
H       -2.87175706      -0.87837373      -0.25713377
H       -2.52770330       0.42348776       0.89184310
H       -0.48808739      -0.84322770      -1.02578019
H       -0.59062690      -1.12158327       0.71540211
H        2.11376830      -1.09954916      -0.26806800
