13
Frame=0 idx=008826 GeodesicLength=0.0 rxn_smarts="[C:1]([c:2]1[c:3]([H:11])[c:4]([O:5][H:12])[n:6][n:7]1[H:13])([H:8])([H:9])[H:10]>>[C:1]([C@:2]1([H:13])[C:3]([H:11])=[C:4]([O:5][H:12])[N:6]=[N:7]1)([H:8])([H:9])[H:10]"
C       -2.02620440      -0.09463795       0.10041328
C       -0.54922006       0.14619667       0.07665996
C        0.42191268      -0.31294058      -0.82818531
C        1.60507427      -0.15921481      -0.13855549
O        2.83392773      -0.45540465      -0.57236839
N        1.42154968       0.38493091       1.07602845
N        0.13004782       0.53504294       1.27889032
H       -2.49933878       0.51437322       0.87027568
H       -2.22624127      -1.14294345       0.32556029
H       -2.47583082       0.14080223      -0.86396523
H        0.27392955      -0.69818298      -1.82276140
H        3.45057306      -0.21895382       0.12878215
H       -0.36017941       1.36093223       0.36922564
13
Frame=1 idx=008826 GeodesicLength=0.04038158760685926 rxn_smarts="[C:1]([c:2]1[c:3]([H:11])[c:4]([O:5][H:12])[n:6][n:7]1[H:13])([H:8])([H:9])[H:10]>>[C:1]([C@:2]1([H:13])[C:3]([H:11])=[C:4]([O:5][H:12])[N:6]=[N:7]1)([H:8])([H:9])[H:10]"
C       -2.02379263      -0.09750662       0.09968455
C       -0.54947374       0.15979467       0.07202880
C        0.42189419      -0.30053604      -0.83404269
C        1.60419392      -0.16293049      -0.14052550
O        2.83268327      -0.46446534      -0.57231318
N        1.42097552       0.37373998       1.07906304
N        0.13093740       0.53178431       1.27621019
H       -2.50643665       0.52320344       0.85420603
H       -2.21395069      -1.14270742       0.34687111
H       -2.47386327       0.11259651      -0.87030397
H        0.27278380      -0.68759999      -1.82776248
H        3.44983632      -0.22540266       0.12744005
H       -0.36578744       1.38002966       0.38944407
13
Frame=2 idx=008826 GeodesicLength=0.0807613546325996 rxn_smarts="[C:1]([c:2]1[c:3]([H:11])[c:4]([O:5][H:12])[n:6][n:7]1[H:13])([H:8])([H:9])[H:10]>>[C:1]([C@:2]1([H:13])[C:3]([H:11])=[C:4]([O:5][H:12])[N:6]=[N:7]1)([H:8])([H:9])[H:10]"
C       -2.02122272      -0.10031444       0.09890578
C       -0.54971065       0.17343964       0.06750499
C        0.42186341      -0.28852309      -0.83964673
C        1.60317844      -0.16699304      -0.14242927
O        2.83134768      -0.47318136      -0.57251553
N        1.42029503       0.36276318       1.08186421
N        0.13182708       0.52895581       1.27333391
H       -2.51360381       0.53152168       0.83780317
H       -2.20165765      -1.14188341       0.36786108
H       -2.47124702       0.08446707      -0.87622523
H        0.27158894      -0.67709129      -1.83263033
H        3.44897776      -0.23201406       0.12603898
H       -0.37163651       1.39885331       0.41013498
13
Frame=3 idx=008826 GeodesicLength=0.12111932834363168 rxn_smarts="[C:1]([c:2]1[c:3]([H:11])[c:4]([O:5][H:12])[n:6][n:7]1[H:13])([H:8])([H:9])[H:10]>>[C:1]([C@:2]1([H:13])[C:3]([H:11])=[C:4]([O:5][H:12])[N:6]=[N:7]1)([H:8])([H:9])[H:10]"
C       -2.01857911      -0.10280334       0.09797584
C       -0.54991667       0.18692280       0.06315053
C        0.42180316      -0.27742516      -0.84480702
C        1.60197098      -0.17215354      -0.14396511
O        2.83004994      -0.48095583      -0.57318074
N        1.41945618       0.35133368       1.08471592
N        0.13269419       0.52623781       1.27039309
H       -2.52078530       0.53967666       0.82098218
H       -2.18982364      -1.14019374       0.38832907
H       -2.46791408       0.05691906      -0.88186823
H        0.27032005      -0.66732562      -1.83711835
H        3.44815707      -0.23739317       0.12406431
H       -0.37743277       1.41716037       0.43132849
13
Frame=4 idx=008826 GeodesicLength=0.16142657363133178 rxn_smarts="[C:1]([c:2]1[c:3]([H:11])[c:4]([O:5][H:12])[n:6][n:7]1[H:13])([H:8])([H:9])[H:10]>>[C:1]([C@:2]1([H:13])[C:3]([H:11])=[C:4]([O:5][H:12])[N:6]=[N:7]1)([H:8])([H:9])[H:10]"
C       -2.01588746      -0.10492504       0.09687810
C       -0.55007776       0.20019583       0.05896901
C        0.42171750      -0.26734207      -0.84949768
C        1.60057641      -0.17845072      -0.14512094
O        2.82883483      -0.48761547      -0.57435057
N        1.41846529       0.33937322       1.08768962
N        0.13355112       0.52359165       1.26741821
H       -2.52794152       0.54768082       0.80379404
H       -2.17856024      -1.13763644       0.40815977
H       -2.46391849       0.03015167      -0.88724129
H        0.26897516      -0.65853144      -1.84114136
H        3.44741867      -0.24139634       0.12146040
H       -0.38315351       1.43490433       0.45298269
13
Frame=5 idx=008826 GeodesicLength=0.20164900831030136 rxn_smarts="[C:1]([c:2]1[c:3]([H:11])[c:4]([O:5][H:12])[n:6][n:7]1[H:13])([H:8])([H:9])[H:10]>>[C:1]([C@:2]1([H:13])[C:3]([H:11])=[C:4]([O:5][H:12])[N:6]=[N:7]1)([H:8])([H:9])[H:10]"
C       -2.01315548      -0.10656606       0.09560936
C       -0.55015065       0.21317485       0.05494366
C        0.42158797      -0.25850220      -0.85372127
C        1.59897515      -0.18611128      -0.14593796
O        2.82777569      -0.49254308      -0.57610958
N        1.41726688       0.32661038       1.09066972
N        0.13440598       0.52085085       1.26433735
H       -2.53490490       0.55568028       0.78638363
H       -2.16801556      -1.13417678       0.42721101
H       -2.45928081       0.00450681      -0.89235917
H        0.26746601      -0.65122698      -1.84459509
H        3.44664629      -0.24366799       0.11843448
H       -0.38861659       1.45197120       0.47513386
13
Frame=6 idx=008826 GeodesicLength=0.24181762149152333 rxn_smarts="[C:1]([c:2]1[c:3]([H:11])[c:4]([O:5][H:12])[n:6][n:7]1[H:13])([H:8])([H:9])[H:10]>>[C:1]([C@:2]1([H:13])[C:3]([H:11])=[C:4]([O:5][H:12])[N:6]=[N:7]1)([H:8])([H:9])[H:10]"
C       -2.01030913      -0.10810629       0.09429627
C       -0.55016986       0.22609679       0.05098598
C        0.42144660      -0.25018616      -0.85772859
C        1.59727091      -0.19399602      -0.14676794
O        2.82675787      -0.49672138      -0.57824641
N        1.41599423       0.31409536       1.09346009
N        0.13532061       0.51855598       1.26107407
H       -2.54181200       0.56313708       0.76883098
H       -2.15764209      -1.13022459       0.44575938
H       -2.45416397      -0.02069304      -0.89704124
H        0.26589589      -0.64435871      -1.84783240
H        3.44577521      -0.24626841       0.11554463
H       -0.39436426       1.46866939       0.49766518
13
Frame=7 idx=008826 GeodesicLength=0.28200588448783465 rxn_smarts="[C:1]([c:2]1[c:3]([H:11])[c:4]([O:5][H:12])[n:6][n:7]1[H:13])([H:8])([H:9])[H:10]>>[C:1]([C@:2]1([H:13])[C:3]([H:11])=[C:4]([O:5][H:12])[N:6]=[N:7]1)([H:8])([H:9])[H:10]"
C       -2.00731360      -0.10960358       0.09295582
C       -0.55012549       0.23903500       0.04708377
C        0.42130150      -0.24220305      -0.86160368
C        1.59545523      -0.20198417      -0.14768531
O        2.82565859      -0.50124251      -0.58027007
N        1.41464470       0.30191048       1.09598114
N        0.13629834       0.51673480       1.25759169
H       -2.54865147       0.57004021       0.75115959
H       -2.14732225      -1.12587899       0.46391852
H       -2.44856559      -0.04561641      -0.90132441
H        0.26429089      -0.63751278      -1.85107604
H        3.44480424      -0.24872131       0.11257721
H       -0.40047508       1.48504232       0.52069178
13
Frame=8 idx=008826 GeodesicLength=0.32218195106375036 rxn_smarts="[C:1]([c:2]1[c:3]([H:11])[c:4]([O:5][H:12])[n:6][n:7]1[H:13])([H:8])([H:9])[H:10]>>[C:1]([C@:2]1([H:13])[C:3]([H:11])=[C:4]([O:5][H:12])[N:6]=[N:7]1)([H:8])([H:9])[H:10]"
C       -2.00407106      -0.11133815       0.09171615
C       -0.55006307       0.25216508       0.04315070
C        0.42116118      -0.23401740      -0.86554921
C        1.59358635      -0.20931009      -0.14896756
O        2.82436271      -0.50642304      -0.58213746
N        1.41329033       0.29085111       1.09792201
N        0.13736529       0.51577665       1.25373684
H       -2.55548480       0.57601205       0.73343472
H       -2.13658997      -1.12138814       0.48195990
H       -2.44249418      -0.07082632      -0.90501368
H        0.26271933      -0.62990304      -1.85460278
H        3.44357399      -0.25286828       0.11020850
H       -0.40735610       1.50126957       0.54414187
13
Frame=9 idx=008826 GeodesicLength=0.3623808229596113 rxn_smarts="[C:1]([c:2]1[c:3]([H:11])[c:4]([O:5][H:12])[n:6][n:7]1[H:13])([H:8])([H:9])[H:10]>>[C:1]([C@:2]1([H:13])[C:3]([H:11])=[C:4]([O:5][H:12])[N:6]=[N:7]1)([H:8])([H:9])[H:10]"
C       -2.00065948      -0.11308402       0.09047158
C       -0.54995457       0.26534045       0.03924357
C        0.42101587      -0.22602998      -0.86942077
C        1.59161828      -0.21661600      -0.15035878
O        2.82292882      -0.51210376      -0.58387089
N        1.41189055       0.28025708       1.09958024
N        0.13851451       0.51536596       1.24965569
H       -2.56226175       0.58143338       0.71552352
H       -2.12583254      -1.11653121       0.49976353
H       -2.43592468      -0.09595479      -0.90829552
H        0.26115366      -0.62206797      -1.85823258
H        3.44223100      -0.25716270       0.10782200
H       -0.41471964       1.51715356       0.56811840
13
Frame=10 idx=008826 GeodesicLength=0.4025609978044946 rxn_smarts="[C:1]([c:2]1[c:3]([H:11])[c:4]([O:5][H:12])[n:6][n:7]1[H:13])([H:8])([H:9])[H:10]>>[C:1]([C@:2]1([H:13])[C:3]([H:11])=[C:4]([O:5][H:12])[N:6]=[N:7]1)([H:8])([H:9])[H:10]"
C       -1.99714021      -0.11462180       0.08913062
C       -0.54976288       0.27841807       0.03540532
C        0.42087191      -0.21859306      -0.87308732
C        1.58950376      -0.22447788      -0.15163795
O        2.82138230      -0.51839100      -0.58536968
N        1.41037668       0.26949684       1.10119340
N        0.13972782       0.51518593       1.24545722
H       -2.56891505       0.58662797       0.69732388
H       -2.11540468      -1.11107938       0.51717437
H       -2.42883143      -0.12060907      -0.91129418
H        0.25959671      -0.61448749      -1.86177424
H        3.44089585      -0.25994152       0.10476980
H       -0.42230077       1.53247242       0.59270876
13
Frame=11 idx=008826 GeodesicLength=0.4427222776181867 rxn_smarts="[C:1]([c:2]1[c:3]([H:11])[c:4]([O:5][H:12])[n:6][n:7]1[H:13])([H:8])([H:9])[H:10]>>[C:1]([C@:2]1([H:13])[C:3]([H:11])=[C:4]([O:5][H:12])[N:6]=[N:7]1)([H:8])([H:9])[H:10]"
C       -1.99350950      -0.11598773       0.08773475
C       -0.54949451       0.29140734       0.03158873
C        0.42070924      -0.21170470      -0.87659713
C        1.58730054      -0.23254507      -0.15297225
O        2.81989619      -0.52387179      -0.58720276
N        1.40876504       0.25875165       1.10266053
N        0.14102590       0.51536470       1.24105730
H       -2.57541411       0.59151218       0.67896265
H       -2.10524169      -1.10510773       0.53420615
H       -2.42128507      -0.14478085      -0.91395567
H        0.25798006      -0.60752837      -1.86512300
H        3.43945930      -0.26276358       0.10182017
H       -0.43019141       1.54725395       0.61782052
13
Frame=12 idx=008826 GeodesicLength=0.4828816165785833 rxn_smarts="[C:1]([c:2]1[c:3]([H:11])[c:4]([O:5][H:12])[n:6][n:7]1[H:13])([H:8])([H:9])[H:10]>>[C:1]([C@:2]1([H:13])[C:3]([H:11])=[C:4]([O:5][H:12])[N:6]=[N:7]1)([H:8])([H:9])[H:10]"
C       -1.98972516      -0.11731347       0.08633108
C       -0.54917219       0.30441100       0.02775529
C        0.42053857      -0.20505537      -0.88006069
C        1.58501934      -0.24056046      -0.15443660
O        2.81835909      -0.52925372      -0.58912166
N        1.40709333       0.24834941       1.10388079
N        0.14243038       0.51608421       1.23641174
H       -2.58179750       0.59592835       0.66044105
H       -2.09512471      -1.09873715       0.55099990
H       -2.41329302      -0.16876713      -0.91621735
H        0.25635238      -0.60066365      -1.86848100
H        3.43789930      -0.26599689       0.09903042
H       -0.43857981       1.56157486       0.64346704
13
Frame=13 idx=008826 GeodesicLength=0.5230599140489256 rxn_smarts="[C:1]([c:2]1[c:3]([H:11])[c:4]([O:5][H:12])[n:6][n:7]1[H:13])([H:8])([H:9])[H:10]>>[C:1]([C@:2]1([H:13])[C:3]([H:11])=[C:4]([O:5][H:12])[N:6]=[N:7]1)([H:8])([H:9])[H:10]"
C       -1.98576092      -0.11864511       0.08493208
C       -0.54880087       0.31748593       0.02389290
C        0.42037332      -0.19847998      -0.88352862
C        1.58264350      -0.24847908      -0.15603691
O        2.81668963      -0.53502012      -0.59096084
N        1.40536798       0.23838585       1.10483665
N        0.14394810       0.51741393       1.23150603
H       -2.58808220       0.59984190       0.64171121
H       -2.08495825      -1.09199138       0.56765042
H       -2.40482554      -0.19273335      -0.91806997
H        0.25474765      -0.59362071      -1.87194532
H        3.43620721      -0.26959581       0.09631105
H       -0.44754962       1.57543793       0.66970134
13
Frame=14 idx=008826 GeodesicLength=0.5632788207608598 rxn_smarts="[C:1]([c:2]1[c:3]([H:11])[c:4]([O:5][H:12])[n:6][n:7]1[H:13])([H:8])([H:9])[H:10]>>[C:1]([C@:2]1([H:13])[C:3]([H:11])=[C:4]([O:5][H:12])[N:6]=[N:7]1)([H:8])([H:9])[H:10]"
C       -1.98158078      -0.12006441       0.08356949
C       -0.54840030       0.33070655       0.01998045
C        0.42022458      -0.19176850      -0.88706465
C        1.58015508      -0.25620597      -0.15779381
O        2.81480962      -0.54152129      -0.59261891
N        1.40360739       0.22905811       1.10547431
N        0.14558974       0.51948863       1.22630477
H       -2.59430102       0.60316756       0.62271861
H       -2.07459528      -1.08490621       0.58429832
H       -2.39583874      -0.21693455      -0.91946485
H        0.25320861      -0.58602284      -1.87565030
H        3.43434940      -0.27386666       0.09370056
H       -0.45722831       1.58886958       0.69654603
13
Frame=15 idx=008826 GeodesicLength=0.6035201530280679 rxn_smarts="[C:1]([c:2]1[c:3]([H:11])[c:4]([O:5][H:12])[n:6][n:7]1[H:13])([H:8])([H:9])[H:10]>>[C:1]([C@:2]1([H:13])[C:3]([H:11])=[C:4]([O:5][H:12])[N:6]=[N:7]1)([H:8])([H:9])[H:10]"
C       -1.97722949      -0.12142891       0.08219108
C       -0.54794423       0.34397470       0.01602530
C        0.42009320      -0.18518068      -0.89059384
C        1.57754216      -0.26401504      -0.15960632
O        2.81278202      -0.54851206      -0.59413874
N        1.40176471       0.21999283       1.10593190
N        0.14735642       0.52215204       1.22085312
H       -2.60038255       0.60607232       0.60349195
H       -2.06425538      -1.07737572       0.60078074
H       -2.38636161      -0.24102484      -0.92047126
H        0.25171069      -0.57834226      -1.87943197
H        3.43237909      -0.27803746       0.09095494
H       -0.46745504       1.60172506       0.72401312
13
Frame=16 idx=008826 GeodesicLength=0.6438026578531967 rxn_smarts="[C:1]([c:2]1[c:3]([H:11])[c:4]([O:5][H:12])[n:6][n:7]1[H:13])([H:8])([H:9])[H:10]>>[C:1]([C@:2]1([H:13])[C:3]([H:11])=[C:4]([O:5][H:12])[N:6]=[N:7]1)([H:8])([H:9])[H:10]"
C       -1.97264902      -0.12288642       0.08085838
C       -0.54747311       0.35741525       0.01198465
C        0.41998581      -0.17838072      -0.89422974
C        1.57480612      -0.27158840      -0.16158326
O        2.81053727      -0.55610821      -0.59553993
N        1.39987916       0.21158609       1.10607578
N        0.14926650       0.52565731       1.21506866
H       -2.60637907       0.60834801       0.58402606
H       -2.05367591      -1.06950142       0.61727197
H       -2.37635045      -0.26535728      -0.92099017
H        0.25028168      -0.57014226      -1.88344514
H        3.43022439      -0.28312121       0.08840767
H       -0.47845337       1.61407925       0.75209508
