11
Frame=0 idx=001396 GeodesicLength=0.0 rxn_smarts="[O:1]([C:2]1([C:5]#[N:6])[C:3]([H:8])([H:9])[C:4]1([H:10])[H:11])[H:7]>>[C:5]=[N:6][H:7].[O:1]=[C:2]1[C:3]([H:8])([H:9])[C:4]1([H:10])[H:11]"
O        0.76275108       0.06155439       1.43813903
C       -0.02419465      -0.05776742       0.46699852
C       -0.64102796       0.62494607      -0.64583288
C       -1.39240663      -0.41926411       0.22890480
C        1.88536499      -0.90657221      -0.72876953
N        2.66600030      -0.13160737      -0.33984195
H        1.66382002       0.30836358       1.02190966
H       -0.82378558       1.68302724      -0.48510461
H       -0.39832294       0.33406181      -1.65601855
H       -2.13953551      -0.12313727       0.95604113
H       -1.55866307      -1.37360473      -0.25642564
11
Frame=1 idx=001396 GeodesicLength=0.05845327833173433 rxn_smarts="[O:1]([C:2]1([C:5]#[N:6])[C:3]([H:8])([H:9])[C:4]1([H:10])[H:11])[H:7]>>[C:5]=[N:6][H:7].[O:1]=[C:2]1[C:3]([H:8])([H:9])[C:4]1([H:10])[H:11]"
O        0.75559849       0.06842955       1.43715985
C       -0.01891146      -0.07083849       0.45552807
C       -0.64700431       0.62166448      -0.64777107
C       -1.39459743      -0.42102644       0.22886004
C        1.89641661      -0.89138567      -0.74024115
N        2.68417786      -0.14215904      -0.31896299
H        1.67377718       0.31186232       1.02434131
H       -0.82227699       1.67990872      -0.48134396
H       -0.41655498       0.33406309      -1.66200267
H       -2.13550467      -0.11684727       0.95892735
H       -1.57512029      -1.37367126      -0.25449479
11
Frame=2 idx=001396 GeodesicLength=0.11662353077580395 rxn_smarts="[O:1]([C:2]1([C:5]#[N:6])[C:3]([H:8])([H:9])[C:4]1([H:10])[H:11])[H:7]>>[C:5]=[N:6][H:7].[O:1]=[C:2]1[C:3]([H:8])([H:9])[C:4]1([H:10])[H:11]"
O        0.74848253       0.07695115       1.43590772
C       -0.01361282      -0.08224742       0.44439873
C       -0.65326973       0.61918229      -0.64948655
C       -1.39601078      -0.42312020       0.22857087
C        1.90633170      -0.87667177      -0.75150131
N        2.70165575      -0.15620285      -0.29769497
H        1.68427514       0.31571076       1.02643219
H       -0.82263472       1.67727168      -0.47745256
H       -0.43462034       0.33537344      -1.66762341
H       -2.13136523      -0.11208137       0.96125873
H       -1.58923149      -1.37416571      -0.25280944
11
Frame=3 idx=001396 GeodesicLength=0.17471429028355803 rxn_smarts="[O:1]([C:2]1([C:5]#[N:6])[C:3]([H:8])([H:9])[C:4]1([H:10])[H:11])[H:7]>>[C:5]=[N:6][H:7].[O:1]=[C:2]1[C:3]([H:8])([H:9])[C:4]1([H:10])[H:11]"
O        0.74150218       0.08760529       1.43425598
C       -0.00822952      -0.09166427       0.43350854
C       -0.66007304       0.61766998      -0.65101485
C       -1.39654985      -0.42563203       0.22801704
C        1.91502183      -0.86204209      -0.76289454
N        2.71884065      -0.17515463      -0.27522294
H        1.69543010       0.32016693       1.02800891
H       -0.82539274       1.67526116      -0.47336578
H       -0.45281266       0.33823487      -1.67297594
H       -2.12707158      -0.10916939       0.96313158
H       -1.60066536      -1.37527580      -0.25144802
11
Frame=4 idx=001396 GeodesicLength=0.23240740836153195 rxn_smarts="[O:1]([C:2]1([C:5]#[N:6])[C:3]([H:8])([H:9])[C:4]1([H:10])[H:11])[H:7]>>[C:5]=[N:6][H:7].[O:1]=[C:2]1[C:3]([H:8])([H:9])[C:4]1([H:10])[H:11]"
O        0.73451974       0.09916096       1.43229748
C       -0.00279338      -0.10000428       0.42282425
C       -0.66699995       0.61656979      -0.65244014
C       -1.39654510      -0.42831081       0.22734496
C        1.92336908      -0.84696128      -0.77427996
N        2.73489819      -0.19664192      -0.25236489
H        1.70699852       0.32472160       1.02947839
H       -0.82921217       1.67347481      -0.46934861
H       -0.47098187       0.34173746      -1.67806847
H       -2.12263296      -0.10710074       0.96465342
H       -1.61062010      -1.37664560      -0.25009644
11
Frame=5 idx=001396 GeodesicLength=0.2903022953759869 rxn_smarts="[O:1]([C:2]1([C:5]#[N:6])[C:3]([H:8])([H:9])[C:4]1([H:10])[H:11])[H:7]>>[C:5]=[N:6][H:7].[O:1]=[C:2]1[C:3]([H:8])([H:9])[C:4]1([H:10])[H:11]"
O        0.72762306       0.11202994       1.43004265
C        0.00273293      -0.10705768       0.41228585
C       -0.67422393       0.61600985      -0.65382467
C       -1.39605217      -0.43127039       0.22656783
C        1.93149859      -0.83102789      -0.78603725
N        2.75021073      -0.22177116      -0.22854782
H        1.71918867       0.32962726       1.03079476
H       -0.83440671       1.67210717      -0.46535763
H       -0.48932706       0.34601193      -1.68308944
H       -2.11816814      -0.10611833       0.96599643
H       -1.61907598      -1.37854069      -0.24883071
11
Frame=6 idx=001396 GeodesicLength=0.3478017676765721 rxn_smarts="[O:1]([C:2]1([C:5]#[N:6])[C:3]([H:8])([H:9])[C:4]1([H:10])[H:11])[H:7]>>[C:5]=[N:6][H:7].[O:1]=[C:2]1[C:3]([H:8])([H:9])[C:4]1([H:10])[H:11]"
O        0.72077738       0.12607715       1.42721169
C        0.00837107      -0.11295389       0.40181953
C       -0.68171805       0.61580974      -0.65503446
C       -1.39501817      -0.43434745       0.22563680
C        1.93972517      -0.81413931      -0.79782156
N        2.76427561      -0.25013587      -0.20407024
H        1.73193468       0.33459226       1.03189157
H       -0.84096896       1.67087397      -0.46129053
H       -0.50777887       0.35080185      -1.68767131
H       -2.11362876      -0.10592477       0.96695646
H       -1.62597109      -1.38065368      -0.24762796
11
Frame=7 idx=001396 GeodesicLength=0.4052758900306803 rxn_smarts="[O:1]([C:2]1([C:5]#[N:6])[C:3]([H:8])([H:9])[C:4]1([H:10])[H:11])[H:7]>>[C:5]=[N:6][H:7].[O:1]=[C:2]1[C:3]([H:8])([H:9])[C:4]1([H:10])[H:11]"
O        0.71409171       0.14204346       1.42384612
C        0.01422893      -0.11718752       0.39133483
C       -0.68972139       0.61623614      -0.65633123
C       -1.39319537      -0.43776116       0.22464070
C        1.94789089      -0.79484003      -0.81045974
N        2.77699397      -0.28432513      -0.17751015
H        1.74542532       0.33985066       1.03270919
H       -0.84943941       1.67001521      -0.45741900
H       -0.52676110       0.35650357      -1.69231159
H       -2.10868576      -0.10713611       0.96787381
H       -1.63082779      -1.38339908      -0.24637294
11
Frame=8 idx=001396 GeodesicLength=0.46243737408973634 rxn_smarts="[O:1]([C:2]1([C:5]#[N:6])[C:3]([H:8])([H:9])[C:4]1([H:10])[H:11])[H:7]>>[C:5]=[N:6][H:7].[O:1]=[C:2]1[C:3]([H:8])([H:9])[C:4]1([H:10])[H:11]"
O        0.70739231       0.15838574       1.42021192
C        0.02017497      -0.12085371       0.38099926
C       -0.69762779       0.61664836      -0.65763219
C       -1.39110660      -0.44114632       0.22362371
C        1.95693230      -0.77391111      -0.82301547
N        2.78735819      -0.31994048      -0.15125567
H        1.75951096       0.34439934       1.03397169
H       -0.85821906       1.66914880      -0.45384948
H       -0.54566264       0.36196470      -1.69672408
H       -2.10372949      -0.10838049       0.96854736
H       -1.63502313      -1.38631484      -0.24487704
11
Frame=9 idx=001396 GeodesicLength=0.519427988029749 rxn_smarts="[O:1]([C:2]1([C:5]#[N:6])[C:3]([H:8])([H:9])[C:4]1([H:10])[H:11])[H:7]>>[C:5]=[N:6][H:7].[O:1]=[C:2]1[C:3]([H:8])([H:9])[C:4]1([H:10])[H:11]"
O        0.70066649       0.17548531       1.41634705
C        0.02622887      -0.12374695       0.37084314
C       -0.70545620       0.61708899      -0.65900874
C       -1.38868765      -0.44454394       0.22261215
C        1.96679975      -0.75097500      -0.83552405
N        2.79516362      -0.35746793      -0.12535381
H        1.77432223       0.34797050       1.03586262
H       -0.86747312       1.66826594      -0.45068948
H       -0.56444873       0.36723263      -1.70102385
H       -2.09874507      -0.10983037       0.96903418
H       -1.63837019      -1.38947918      -0.24309921
11
Frame=10 idx=001396 GeodesicLength=0.5761286684215289 rxn_smarts="[O:1]([C:2]1([C:5]#[N:6])[C:3]([H:8])([H:9])[C:4]1([H:10])[H:11])[H:7]>>[C:5]=[N:6][H:7].[O:1]=[C:2]1[C:3]([H:8])([H:9])[C:4]1([H:10])[H:11]"
O        0.69383021       0.19276074       1.41243488
C        0.03232100      -0.12623320       0.36098857
C       -0.71294705       0.61735353      -0.66047877
C       -1.38609467      -0.44781600       0.22162596
C        1.97755071      -0.72661178      -0.84745183
N        2.80013039      -0.39485321      -0.10101749
H        1.78975669       0.34995882       1.03883354
H       -0.87658998       1.66724814      -0.44807701
H       -0.58283037       0.37192403      -1.70516762
H       -2.09382538      -0.11100977       0.96924064
H       -1.64130155      -1.39272132      -0.24093087
11
Frame=11 idx=001396 GeodesicLength=0.632588386586675 rxn_smarts="[O:1]([C:2]1([C:5]#[N:6])[C:3]([H:8])([H:9])[C:4]1([H:10])[H:11])[H:7]>>[C:5]=[N:6][H:7].[O:1]=[C:2]1[C:3]([H:8])([H:9])[C:4]1([H:10])[H:11]"
O        0.68683406       0.20988837       1.40858603
C        0.03839353      -0.12851382       0.35150095
C       -0.71997605       0.61734580      -0.66205777
C       -1.38344954      -0.45089231       0.22068002
C        1.98908390      -0.70133871      -0.85848629
N        2.80244764      -0.43082608      -0.07894838
H        1.80571380       0.35005552       1.04314363
H       -0.88524516       1.66604374      -0.44607174
H       -0.60064513       0.37586204      -1.70915979
H       -2.08906109      -0.11168055       0.96913996
H       -1.64409597      -1.39594399      -0.23832663
11
Frame=12 idx=001396 GeodesicLength=0.6889196550112615 rxn_smarts="[O:1]([C:2]1([C:5]#[N:6])[C:3]([H:8])([H:9])[C:4]1([H:10])[H:11])[H:7]>>[C:5]=[N:6][H:7].[O:1]=[C:2]1[C:3]([H:8])([H:9])[C:4]1([H:10])[H:11]"
O        0.67967183       0.22663472       1.40485007
C        0.04441289      -0.13072949       0.34238036
C       -0.72652775       0.61702385      -0.66376333
C       -1.38084417      -0.45373187       0.21978261
C        2.00130570      -0.67550420      -0.86849872
N        2.80254878      -0.46471156      -0.05940587
H        1.82208915       0.34818740       1.04889867
H       -0.89329925       1.66464538      -0.44468580
H       -0.61789708       0.37896840      -1.71303139
H       -2.08450450      -0.11169901       0.96874413
H       -1.64695559      -1.39908364      -0.23527074
11
Frame=13 idx=001396 GeodesicLength=0.7450306320379575 rxn_smarts="[O:1]([C:2]1([C:5]#[N:6])[C:3]([H:8])([H:9])[C:4]1([H:10])[H:11])[H:7]>>[C:5]=[N:6][H:7].[O:1]=[C:2]1[C:3]([H:8])([H:9])[C:4]1([H:10])[H:11]"
O        0.67233562       0.24320967       1.40113677
C        0.05035987      -0.13276651       0.33362155
C       -0.73262965       0.61643936      -0.66559693
C       -1.37823192      -0.45636105       0.21894296
C        2.01392339      -0.64921685      -0.87743249
N        2.80069832      -0.49656454      -0.04237104
H        1.83880568       0.34421278       1.05609236
H       -0.90085385       1.66306615      -0.44393977
H       -0.63454401       0.38133998      -1.71676188
H       -2.08011740      -0.11119704       0.96804735
H       -1.64974605      -1.40216195      -0.23173888
11
Frame=14 idx=001396 GeodesicLength=0.8011065815089312 rxn_smarts="[O:1]([C:2]1([C:5]#[N:6])[C:3]([H:8])([H:9])[C:4]1([H:10])[H:11])[H:7]>>[C:5]=[N:6][H:7].[O:1]=[C:2]1[C:3]([H:8])([H:9])[C:4]1([H:10])[H:11]"
O        0.66487277       0.25926683       1.39752099
C        0.05620315      -0.13482831       0.32520686
C       -0.73831029       0.61556087      -0.66755429
C       -1.37574699      -0.45874555       0.21815490
C        2.02692300      -0.62289834      -0.88525780
N        2.79748130      -0.52586559      -0.02786149
H        1.85573958       0.33838393       1.06463573
H       -0.90778566       1.66132272      -0.44375369
H       -0.65065054       0.38294234      -1.72039639
H       -2.07598293      -0.11003279       0.96709452
H       -1.65274339      -1.40510611      -0.22778934
11
Frame=15 idx=001396 GeodesicLength=0.8571367311638705 rxn_smarts="[O:1]([C:2]1([C:5]#[N:6])[C:3]([H:8])([H:9])[C:4]1([H:10])[H:11])[H:7]>>[C:5]=[N:6][H:7].[O:1]=[C:2]1[C:3]([H:8])([H:9])[C:4]1([H:10])[H:11]"
O        0.65730553       0.27496616       1.39392619
C        0.06194440      -0.13684323       0.31709768
C       -0.74364000       0.61443259      -0.66964074
C       -1.37336239      -0.46090957       0.21742557
C        2.04017712      -0.59649393      -0.89204504
N        2.79316872      -0.55291479      -0.01563697
H        1.87283681       0.33071190       1.07443956
H       -0.91422384       1.65943890      -0.44411763
H       -0.66627567       0.38385789      -1.72394548
H       -2.07206654      -0.10830665       0.96591509
H       -1.65586415      -1.40793927      -0.22341822
11
Frame=16 idx=001396 GeodesicLength=0.9131191031396084 rxn_smarts="[O:1]([C:2]1([C:5]#[N:6])[C:3]([H:8])([H:9])[C:4]1([H:10])[H:11])[H:7]>>[C:5]=[N:6][H:7].[O:1]=[C:2]1[C:3]([H:8])([H:9])[C:4]1([H:10])[H:11]"
O        0.64966307       0.29027248       1.39033394
C        0.06757051      -0.13884167       0.30927628
C       -0.74865307       0.61307760      -0.67183954
C       -1.37109719      -0.46286354       0.21675084
C        2.05357009      -0.57018781      -0.89780652
N        2.78806957      -0.57770174      -0.00554134
H        1.89000975       0.32135887       1.08534060
H       -0.92018653       1.65743299      -0.44497175
H       -0.68144332       0.38415537      -1.72740710
H       -2.06836785      -0.10605681       0.96452855
H       -1.65913504      -1.41064575      -0.21866396
