7
Frame=0 idx=002472 GeodesicLength=0.0 rxn_smarts="[O:1]=[c:2]1[o:3][c:4]([H:7])[n:5][o:6]1>>[O:1]=[C:2]=[O:6].[O:3]([C:4]#[N:5])[H:7]"
O        2.37558603      -0.54678231       0.15513543
C        1.49982861       0.17868465       0.00509245
O       -0.33921837      -1.19106519       0.19825487
C       -1.10756706      -0.25938194       0.01835469
N       -1.01424714       1.00184505      -0.19881941
O        0.82108166       1.13652695      -0.18057913
H       -2.23546370      -0.31982720       0.00256113
7
Frame=1 idx=002472 GeodesicLength=0.0850329518618788 rxn_smarts="[O:1]=[c:2]1[o:3][c:4]([H:7])[n:5][o:6]1>>[O:1]=[C:2]=[O:6].[O:3]([C:4]#[N:5])[H:7]"
O        2.35222513      -0.56994655       0.13591901
C        1.48946807       0.17759802       0.01215411
O       -0.34971781      -1.17799099       0.19402491
C       -1.10318966      -0.21366459       0.13335211
N       -1.01506390       1.01958204      -0.18897551
O        0.83617700       1.15069558      -0.20663840
H       -2.20989884      -0.38627352      -0.07983621
7
Frame=2 idx=002472 GeodesicLength=0.17854701312570265 rxn_smarts="[O:1]=[c:2]1[o:3][c:4]([H:7])[n:5][o:6]1>>[O:1]=[C:2]=[O:6].[O:3]([C:4]#[N:5])[H:7]"
O        2.32514098      -0.59420993       0.10812536
C        1.47666999       0.17654103       0.02406306
O       -0.36379347      -1.15725790       0.20931306
C       -1.10458228      -0.17437269       0.20702659
N       -1.01672849       1.03748352      -0.17291736
O        0.84850235       1.16265415      -0.22599873
H       -2.16520908      -0.45083817      -0.14961197
7
Frame=3 idx=002472 GeodesicLength=0.2741162567279725 rxn_smarts="[O:1]=[c:2]1[o:3][c:4]([H:7])[n:5][o:6]1>>[O:1]=[C:2]=[O:6].[O:3]([C:4]#[N:5])[H:7]"
O        2.29641148      -0.61797831       0.07544176
C        1.46229486       0.17330504       0.03025850
O       -0.37696683      -1.13519159       0.24420527
C       -1.11135600      -0.14059937       0.25629810
N       -1.01936805       1.05707393      -0.15114023
O        0.85883109       1.17450435      -0.23718084
H       -2.10984655      -0.51111406      -0.21788256
7
Frame=4 idx=002472 GeodesicLength=0.37040415619727274 rxn_smarts="[O:1]=[c:2]1[o:3][c:4]([H:7])[n:5][o:6]1>>[O:1]=[C:2]=[O:6].[O:3]([C:4]#[N:5])[H:7]"
O        2.26455927      -0.64271838       0.02983597
C        1.44777379       0.16958296       0.04105556
O       -0.38950151      -1.11186807       0.28802064
C       -1.12141580      -0.10852146       0.28876244
N       -1.02161883       1.07375686      -0.14633950
O        0.87050873       1.18979172      -0.22878624
H       -2.05030564      -0.57002363      -0.27254887
7
Frame=5 idx=002472 GeodesicLength=0.4677305964885464 rxn_smarts="[O:1]=[c:2]1[o:3][c:4]([H:7])[n:5][o:6]1>>[O:1]=[C:2]=[O:6].[O:3]([C:4]#[N:5])[H:7]"
O        2.22944920      -0.66622647      -0.01333685
C        1.43212488       0.16488422       0.04907174
O       -0.40136933      -1.08870387       0.33504945
C       -1.13446014      -0.07960568       0.31250802
N       -1.02440183       1.09203134      -0.13491808
O        0.88112097       1.20322328      -0.22298439
H       -1.98246376      -0.62560281      -0.32538988
7
Frame=6 idx=002472 GeodesicLength=0.5657317843223002 rxn_smarts="[O:1]=[c:2]1[o:3][c:4]([H:7])[n:5][o:6]1>>[O:1]=[C:2]=[O:6].[O:3]([C:4]#[N:5])[H:7]"
O        2.19124171      -0.68889213      -0.05660720
C        1.41608743       0.15966466       0.05659907
O       -0.41287976      -1.06550233       0.38142428
C       -1.14914517      -0.05303071       0.32804531
N       -1.02717212       1.10997325      -0.12542947
O        0.89210912       1.21663435      -0.21367481
H       -1.91024121      -0.67884710      -0.37035718
7
Frame=7 idx=002472 GeodesicLength=0.664477975813547 rxn_smarts="[O:1]=[c:2]1[o:3][c:4]([H:7])[n:5][o:6]1>>[O:1]=[C:2]=[O:6].[O:3]([C:4]#[N:5])[H:7]"
O        2.15002896      -0.71057900      -0.09960289
C        1.39980132       0.15406735       0.06375415
O       -0.42424622      -1.04222464       0.42622847
C       -1.16494510      -0.02864011       0.33648707
N       -1.02975739       1.12768667      -0.11720565
O        0.90360978       1.22981814      -0.20172923
H       -1.83449135      -0.73012841      -0.40793192
7
Frame=8 idx=002472 GeodesicLength=0.7639391550827673 rxn_smarts="[O:1]=[c:2]1[o:3][c:4]([H:7])[n:5][o:6]1>>[O:1]=[C:2]=[O:6].[O:3]([C:4]#[N:5])[H:7]"
O        2.10645707      -0.73096610      -0.14090836
C        1.38339198       0.14826377       0.07057644
O       -0.43556072      -1.01918271       0.46800508
C       -1.18135509      -0.00659490       0.33877369
N       -1.03218398       1.14542426      -0.10847584
O        0.91550942       1.24221637      -0.18932449
H       -1.75625868      -0.77916070      -0.43864654
7
Frame=9 idx=002472 GeodesicLength=0.8640573202106006 rxn_smarts="[O:1]=[c:2]1[o:3][c:4]([H:7])[n:5][o:6]1>>[O:1]=[C:2]=[O:6].[O:3]([C:4]#[N:5])[H:7]"
O        2.06109023      -0.74980892      -0.18053088
C        1.36713333       0.14239126       0.07732542
O       -0.44687365      -0.99653791       0.50592741
C       -1.19783005       0.01322886       0.33521452
N       -1.03425587       1.16302126      -0.09958665
O        0.92807708       1.25393728      -0.17623029
H       -1.67734106      -0.82623184      -0.46211953
7
Frame=10 idx=002472 GeodesicLength=0.9647641457422463 rxn_smarts="[O:1]=[c:2]1[o:3][c:4]([H:7])[n:5][o:6]1>>[O:1]=[C:2]=[O:6].[O:3]([C:4]#[N:5])[H:7]"
O        2.01439454      -0.76683201      -0.21883174
C        1.35129431       0.13654643       0.08419786
O       -0.45819640      -0.97434391       0.53966699
C       -1.21385686       0.03102056       0.32590972
N       -1.03573887       1.18031403      -0.09104053
O        0.94162974       1.26517487      -0.16179246
H       -1.59952645      -0.87187997      -0.47810984
7
Frame=11 idx=002472 GeodesicLength=1.0660394127774526 rxn_smarts="[O:1]=[c:2]1[o:3][c:4]([H:7])[n:5][o:6]1>>[O:1]=[C:2]=[O:6].[O:3]([C:4]#[N:5])[H:7]"
O        1.96662994      -0.78174485      -0.25640352
C        1.33608849       0.13077846       0.09129635
O       -0.46954567      -0.95251055       0.56937086
C       -1.22897065       0.04700128       0.31077932
N       -1.03641455       1.19720920      -0.08324953
O        0.95645840       1.27610478      -0.14519860
H       -1.52424597      -0.91683832      -0.48659488
7
Frame=12 idx=002472 GeodesicLength=1.1678899787676362 rxn_smarts="[O:1]=[c:2]1[o:3][c:4]([H:7])[n:5][o:6]1>>[O:1]=[C:2]=[O:6].[O:3]([C:4]#[N:5])[H:7]"
O        1.91813898      -0.79436272      -0.29312519
C        1.32156913       0.12512512       0.09851920
O       -0.48097830      -0.93098041       0.59525989
C       -1.24279834       0.06126880       0.28982044
N       -1.03629462       1.21383350      -0.07542762
O        0.97254077       1.28659664      -0.12686250
H       -1.45217763      -0.96148092      -0.48818422
7
Frame=13 idx=002472 GeodesicLength=1.270291351402553 rxn_smarts="[O:1]=[c:2]1[o:3][c:4]([H:7])[n:5][o:6]1>>[O:1]=[C:2]=[O:6].[O:3]([C:4]#[N:5])[H:7]"
O        1.86949407      -0.80463861      -0.32836961
C        1.30770015       0.11963008       0.10571225
O       -0.49258592      -0.90976329       0.61739273
C       -1.25498517       0.07388011       0.26306423
N       -1.03558322       1.23034571      -0.06616330
O        0.98965995       1.29640239      -0.10793948
H       -1.38369986      -1.00585638      -0.48369682
7
Frame=14 idx=002472 GeodesicLength=1.3731916662676853 rxn_smarts="[O:1]=[c:2]1[o:3][c:4]([H:7])[n:5][o:6]1>>[O:1]=[C:2]=[O:6].[O:3]([C:4]#[N:5])[H:7]"
O        1.82135389      -0.81266219      -0.36142412
C        1.29444539       0.11437940       0.11277236
O       -0.50446623      -0.88890428       0.63571262
C       -1.26509030       0.08495260       0.23048789
N       -1.03460169       1.24675471      -0.05402788
O        1.00755246       1.30535157      -0.08965727
H       -1.31919353      -1.04987181      -0.47386361
7
Frame=15 idx=002472 GeodesicLength=1.4765595652845105 rxn_smarts="[O:1]=[c:2]1[o:3][c:4]([H:7])[n:5][o:6]1>>[O:1]=[C:2]=[O:6].[O:3]([C:4]#[N:5])[H:7]"
O        1.77419262      -0.81862688      -0.39188892
C        1.28178749       0.10946624       0.11966518
O       -0.51673014      -0.86839823       0.65029052
C       -1.27256244       0.09470714       0.19209996
N       -1.03374370       1.26275393      -0.03806081
O        1.02597025       1.31341285      -0.07282950
H       -1.25891408      -1.09331504      -0.45927642
7
Frame=16 idx=002472 GeodesicLength=1.580393751289043 rxn_smarts="[O:1]=[c:2]1[o:3][c:4]([H:7])[n:5][o:6]1>>[O:1]=[C:2]=[O:6].[O:3]([C:4]#[N:5])[H:7]"
O        1.72805209      -0.82250800      -0.42029925
C        1.26984104       0.10493617       0.12652863
O       -0.52935263      -0.84826259       0.66136421
C       -1.27668795       0.10346411       0.14837693
N       -1.03331287       1.27747269      -0.01901281
O        1.04482488       1.32074447      -0.05690813
H       -1.20336456      -1.13584685      -0.44004959
