16
Frame=0 idx=005401 GeodesicLength=0.0 rxn_smarts="[C:1]([C@@:2]1([H:10])[O:3][C:4]1([C:5]([H:11])([H:12])[H:13])[C:6]([H:14])([H:15])[H:16])([H:7])([H:8])[H:9]>>[C:1]([C@@:2]1([H:10])[O:3][C:4]1=[C:5]([H:11])[H:12])([H:7])([H:8])[H:9].[C:6]([H:13])([H:14])([H:15])[H:16]"
C       -1.96339813      -0.15727428       0.32976110
C       -0.94016911      -0.37336193      -0.74034640
O       -0.30216534       0.79984825      -1.32708272
C        0.48055369      -0.10527609      -0.69270332
C        1.70116544      -0.74202271      -1.00045611
C        0.82126079       0.87200381       1.16284056
H       -2.94361059      -0.01560275      -0.12760134
H       -1.73469523       0.71273438       0.93880646
H       -2.01618078      -1.03760091       0.97356011
H       -1.21354832      -1.10730265      -1.49710773
H        1.68914462      -1.82000945      -1.08344696
H        2.42886591      -0.17301450      -1.56317128
H        1.45243894      -0.05013054       0.27322572
H        0.22586312       0.38449087       1.93146950
H        0.45336461       1.86245869       0.91194067
H        1.86111043       0.95005976       1.51031169
16
Frame=1 idx=005401 GeodesicLength=0.09336531912792881 rxn_smarts="[C:1]([C@@:2]1([H:10])[O:3][C:4]1([C:5]([H:11])([H:12])[H:13])[C:6]([H:14])([H:15])[H:16])([H:7])([H:8])[H:9]>>[C:1]([C@@:2]1([H:10])[O:3][C:4]1=[C:5]([H:11])[H:12])([H:7])([H:8])[H:9].[C:6]([H:13])([H:14])([H:15])[H:16]"
C       -1.96890792      -0.16051641       0.32288382
C       -0.94313212      -0.37647152      -0.74495742
O       -0.30361249       0.79584407      -1.32982808
C        0.47711339      -0.10681548      -0.68605756
C        1.69562157      -0.74543266      -0.99855916
C        0.83294203       0.87781927       1.16771061
H       -2.94682936      -0.00828055      -0.13606251
H       -1.73641596       0.70397642       0.93852683
H       -2.02986171      -1.04429265       0.96123537
H       -1.21561105      -1.10974528      -1.50269418
H        1.67349936      -1.82065373      -1.11201239
H        2.42598892      -0.17168954      -1.55372973
H        1.47128240      -0.07969194       0.30514012
H        0.25331860       0.39363835       1.95063109
H        0.44169408       1.85912661       0.91475020
H        1.87291028       0.99318503       1.50302298
16
Frame=2 idx=005401 GeodesicLength=0.18658992633966828 rxn_smarts="[C:1]([C@@:2]1([H:10])[O:3][C:4]1([C:5]([H:11])([H:12])[H:13])[C:6]([H:14])([H:15])[H:16])([H:7])([H:8])[H:9]>>[C:1]([C@@:2]1([H:10])[O:3][C:4]1=[C:5]([H:11])[H:12])([H:7])([H:8])[H:9].[C:6]([H:13])([H:14])([H:15])[H:16]"
C       -1.97463686      -0.16382148       0.31579114
C       -0.94633701      -0.37944714      -0.74983340
O       -0.30540567       0.79206862      -1.33276710
C        0.47329983      -0.10810126      -0.67970367
C        1.68995677      -0.74875199      -0.99554463
C        0.84505449       0.88334125       1.17236132
H       -2.95013759      -0.00054049      -0.14458596
H       -1.73808167       0.69465272       0.93848843
H       -2.04402229      -1.05126407       0.94819934
H       -1.21779513      -1.11208332      -1.50855830
H        1.65807743      -1.82041270      -1.13848927
H        2.42265643      -0.17110969      -1.54443110
H        1.49103426      -0.10779478       0.33672289
H        0.28218200       0.40254448       1.96975933
H        0.42993161       1.85494291       0.91845754
H        1.88422340       1.03577693       1.49413344
16
Frame=3 idx=005401 GeodesicLength=0.2796964959328323 rxn_smarts="[C:1]([C@@:2]1([H:10])[O:3][C:4]1([C:5]([H:11])([H:12])[H:13])[C:6]([H:14])([H:15])[H:16])([H:7])([H:8])[H:9]>>[C:1]([C@@:2]1([H:10])[O:3][C:4]1=[C:5]([H:11])[H:12])([H:7])([H:8])[H:9].[C:6]([H:13])([H:14])([H:15])[H:16]"
C       -1.98059826      -0.16718320       0.30847536
C       -0.94979997      -0.38227362      -0.75498655
O       -0.30754038       0.78854087      -1.33588423
C        0.46909898      -0.10914204      -0.67365019
C        1.68413221      -0.75202878      -0.99149946
C        0.85758200       0.88856243       1.17680593
H       -2.95354218       0.00761537      -0.15315939
H       -1.73972580       0.68475803       0.93867168
H       -2.05867060      -1.05849592       0.93443377
H       -1.22012504      -1.11428369      -1.51472600
H        1.64287188      -1.81942533      -1.16284502
H        2.41883340      -0.17126252      -1.53534580
H        1.51197522      -0.13438856       0.36798233
H        0.31249662       0.41118051       1.98880673
H        0.41808148       1.84986787       0.92307358
H        1.89493045       1.07795858       1.48384726
16
Frame=4 idx=005401 GeodesicLength=0.37277809239043186 rxn_smarts="[C:1]([C@@:2]1([H:10])[O:3][C:4]1([C:5]([H:11])([H:12])[H:13])[C:6]([H:14])([H:15])[H:16])([H:7])([H:8])[H:9]>>[C:1]([C@@:2]1([H:10])[O:3][C:4]1=[C:5]([H:11])[H:12])([H:7])([H:8])[H:9].[C:6]([H:13])([H:14])([H:15])[H:16]"
C       -1.98680762      -0.17059330       0.30092737
C       -0.95354502      -0.38493308      -0.76043592
O       -0.31002207       0.78528068      -1.33917560
C        0.46448829      -0.10994223      -0.66791460
C        1.67811121      -0.75529862      -0.98647108
C        0.87051790       0.89346791       1.18104672
H       -2.95705682       0.01618846      -0.16176962
H       -1.74137933       0.67429036       0.93905555
H       -2.07381373      -1.06596470       0.91991938
H       -1.22262899      -1.11631793      -1.52122507
H        1.62786287      -1.81781790      -1.18506409
H        2.41449437      -0.17213334      -1.52651378
H        1.53440599      -0.15945094       0.39895899
H        0.34431280       0.41950890       2.00772300
H        0.40614817       1.84384446       0.92861372
H        1.90491199       1.11987128       1.47232504
16
Frame=5 idx=005401 GeodesicLength=0.4660835651146435 rxn_smarts="[C:1]([C@@:2]1([H:10])[O:3][C:4]1([C:5]([H:11])([H:12])[H:13])[C:6]([H:14])([H:15])[H:16])([H:7])([H:8])[H:9]>>[C:1]([C@@:2]1([H:10])[O:3][C:4]1=[C:5]([H:11])[H:12])([H:7])([H:8])[H:9].[C:6]([H:13])([H:14])([H:15])[H:16]"
C       -1.99328107      -0.17403266       0.29314511
C       -0.95759427      -0.38740310      -0.76618906
O       -0.31286456       0.78231242      -1.34264210
C        0.45944479      -0.11049051      -0.66251242
C        1.67187384      -0.75856885      -0.98048687
C        0.88388685       0.89806551       1.18507720
H       -2.96069164       0.02518788      -0.17038901
H       -1.74306676       0.66325096       0.93961946
H       -2.08946309      -1.07363610       0.90465106
H       -1.22533099      -1.11816025      -1.52806012
H        1.61304757      -1.81573406      -1.20518869
H        2.40962587      -0.17367762      -1.51791765
H        1.55872349      -0.18303395       0.42973103
H        0.37766825       0.42756420       2.02644075
H        0.39413560       1.83680678       0.93511156
H        1.91388611       1.16154934       1.45960976
16
Frame=6 idx=005401 GeodesicLength=0.559582778542094 rxn_smarts="[C:1]([C@@:2]1([H:10])[O:3][C:4]1([C:5]([H:11])([H:12])[H:13])[C:6]([H:14])([H:15])[H:16])([H:7])([H:8])[H:9]>>[C:1]([C@@:2]1([H:10])[O:3][C:4]1=[C:5]([H:11])[H:12])([H:7])([H:8])[H:9].[C:6]([H:13])([H:14])([H:15])[H:16]"
C       -2.00003757      -0.17749246       0.28511269
C       -0.96197691      -0.38966336      -0.77227408
O       -0.31607574       0.77965598      -1.34628503
C        0.45394226      -0.11079071      -0.65745943
C        1.66537778      -0.76185837      -0.97357823
C        0.89769322       0.90233478       1.18888366
H       -2.96446329       0.03461471      -0.17900441
H       -1.74482018       0.65162797       0.94033518
H       -2.10562682      -1.08148647       0.88859652
H       -1.22825741      -1.11978380      -1.53526730
H        1.59839547      -1.81328503      -1.22315546
H        2.40419832      -0.17590684      -1.50957886
H        1.58519755      -0.20506864       0.46029358
H        0.41263936       0.43532638       2.04489844
H        0.38204709       1.82866607       0.94260177
H        1.92176688       1.20310980       1.44588096
16
Frame=7 idx=005401 GeodesicLength=0.6533261013107429 rxn_smarts="[C:1]([C@@:2]1([H:10])[O:3][C:4]1([C:5]([H:11])([H:12])[H:13])[C:6]([H:14])([H:15])[H:16])([H:7])([H:8])[H:9]>>[C:1]([C@@:2]1([H:10])[O:3][C:4]1=[C:5]([H:11])[H:12])([H:7])([H:8])[H:9].[C:6]([H:13])([H:14])([H:15])[H:16]"
C       -2.00710005      -0.18095946       0.27681590
C       -0.96672591      -0.39169378      -0.77871682
O       -0.31966943       0.77732966      -1.35011627
C        0.44795033      -0.11084355      -0.65277702
C        1.65859299      -0.76517783      -0.96572720
C        0.91196476       0.90625491       1.19244340
H       -2.96839019       0.04448460      -0.18760310
H       -1.74666358       0.63941802       0.94117905
H       -2.12232518      -1.08948463       0.87173607
H       -1.23143851      -1.12116988      -1.54287265
H        1.58388232      -1.81055818      -1.23891452
H        2.39818251      -0.17882968      -1.50148976
H        1.61417689      -0.22549458       0.49063497
H        0.44929180       0.44277947       2.06301479
H        0.36988703       1.81932557       0.95113604
H        1.92838423       1.24461932       1.43125712
16
Frame=8 idx=005401 GeodesicLength=0.7472673729528647 rxn_smarts="[C:1]([C@@:2]1([H:10])[O:3][C:4]1([C:5]([H:11])([H:12])[H:13])[C:6]([H:14])([H:15])[H:16])([H:7])([H:8])[H:9]>>[C:1]([C@@:2]1([H:10])[O:3][C:4]1=[C:5]([H:11])[H:12])([H:7])([H:8])[H:9].[C:6]([H:13])([H:14])([H:15])[H:16]"
C       -2.01449530      -0.18442003       0.26823138
C       -0.97187764      -0.39346453      -0.78555328
O       -0.32366317       0.77536444      -1.35414666
C        0.44143459      -0.11064044      -0.64848961
C        1.65147875      -0.76851812      -0.95689594
C        0.92672310       0.90981098       1.19573655
H       -2.97249511       0.05480617      -0.19617401
H       -1.74862975       0.62660117       0.94212039
H       -2.13957760      -1.09760637       0.85402730
H       -1.23489961      -1.12228818      -1.55091455
H        1.56946220      -1.80766746      -1.25232965
H        2.39153669      -0.18251150      -1.49365062
H        1.64603291      -0.24411749       0.52066096
H        0.48773220       0.44989576       2.08069514
H        0.35765480       1.80865047       0.96079388
H        1.93358295       1.28610513       1.41588872
16
Frame=9 idx=005401 GeodesicLength=0.8404207926142656 rxn_smarts="[C:1]([C@@:2]1([H:10])[O:3][C:4]1([C:5]([H:11])([H:12])[H:13])[C:6]([H:14])([H:15])[H:16])([H:7])([H:8])[H:9]>>[C:1]([C@@:2]1([H:10])[O:3][C:4]1=[C:5]([H:11])[H:12])([H:7])([H:8])[H:9].[C:6]([H:13])([H:14])([H:15])[H:16]"
C       -2.02228255      -0.18786548       0.25925683
C       -0.97747924      -0.39484763      -0.79289446
O       -0.32804866       0.77390701      -1.35835323
C        0.43434915      -0.11010990      -0.64464421
C        1.64395031      -0.77187364      -0.94671448
C        0.94203162       0.91289116       1.19877296
H       -2.97680024       0.06565459      -0.20474984
H       -1.75077880       0.61302070       0.94314332
H       -2.15747356      -1.10585877       0.83522334
H       -1.23862743      -1.12297671      -1.55955097
H        1.55493808      -1.80476665      -1.26242425
H        2.38401815      -0.18749361      -1.48630152
H        1.68137555      -0.25966199       0.54956109
H        0.52833240       0.45623599       2.09779027
H        0.34500782       1.79603179       0.97191144
H        1.93748739       1.32771314       1.39997371
16
Frame=10 idx=005401 GeodesicLength=0.9335182928826918 rxn_smarts="[C:1]([C@@:2]1([H:10])[O:3][C:4]1([C:5]([H:11])([H:12])[H:13])[C:6]([H:14])([H:15])[H:16])([H:7])([H:8])[H:9]>>[C:1]([C@@:2]1([H:10])[O:3][C:4]1=[C:5]([H:11])[H:12])([H:7])([H:8])[H:9].[C:6]([H:13])([H:14])([H:15])[H:16]"
C       -2.03046250      -0.19126788       0.24992852
C       -0.98354691      -0.39589309      -0.80070343
O       -0.33284530       0.77289087      -1.36276266
C        0.42667935      -0.10930018      -0.64122236
C        1.63601437      -0.77525945      -0.93539290
C        0.95790049       0.91553562       1.20153376
H       -2.98131790       0.07703308      -0.21329747
H       -1.75310874       0.59876940       0.94421086
H       -2.17600968      -1.11418034       0.81543305
H       -1.24266884      -1.12330783      -1.56871545
H        1.54038680      -1.80198380      -1.26972749
H        2.37575220      -0.19345476      -1.47922997
H        1.72041241      -0.27276744       0.57770048
H        0.57098328       0.46209016       2.11425194
H        0.33229194       1.78165934       0.98441362
H        1.93953901       1.36943629       1.38357949
16
Frame=11 idx=005401 GeodesicLength=1.0265606787196462 rxn_smarts="[C:1]([C@@:2]1([H:10])[O:3][C:4]1([C:5]([H:11])([H:12])[H:13])[C:6]([H:14])([H:15])[H:16])([H:7])([H:8])[H:9]>>[C:1]([C@@:2]1([H:10])[O:3][C:4]1=[C:5]([H:11])[H:12])([H:7])([H:8])[H:9].[C:6]([H:13])([H:14])([H:15])[H:16]"
C       -2.03906774      -0.19460154       0.24020556
C       -0.99010461      -0.39655412      -0.80901622
O       -0.33805025       0.77236266      -1.36736869
C        0.41840064      -0.10819097      -0.63822762
C        1.62762053      -0.77867950      -0.92284814
C        0.97434303       0.91771330       1.20402597
H       -2.98606674       0.08897432      -0.22183549
H       -1.75566451       0.58381748       0.94529100
H       -2.19522936      -1.12253406       0.79457639
H       -1.24702741      -1.12322527      -1.57845655
H        1.52571784      -1.79948414      -1.27398330
H        2.36667176      -0.20052145      -1.47244986
H        1.76359032      -0.28310057       0.60484808
H        0.61581244       0.46732108       2.12998607
H        0.31948848       1.76531549       0.99842980
H        1.93956558       1.41138730       1.36682299
16
Frame=12 idx=005401 GeodesicLength=1.1195256123961146 rxn_smarts="[C:1]([C@@:2]1([H:10])[O:3][C:4]1([C:5]([H:11])([H:12])[H:13])[C:6]([H:14])([H:15])[H:16])([H:7])([H:8])[H:9]>>[C:1]([C@@:2]1([H:10])[O:3][C:4]1=[C:5]([H:11])[H:12])([H:7])([H:8])[H:9].[C:6]([H:13])([H:14])([H:15])[H:16]"
C       -2.04813507      -0.19784035       0.23004155
C       -0.99717638      -0.39678957      -0.81786862
O       -0.34365197       0.77236068      -1.37216436
C        0.40948881      -0.10677500      -0.63565653
C        1.61872342      -0.78214861      -0.90897034
C        0.99139820       0.91938134       1.20626169
H       -2.99105419       0.10154288      -0.23037811
H       -1.75848464       0.56811917       0.94634772
H       -2.21520147      -1.13088310       0.77255746
H       -1.25170600      -1.12267868      -1.58882295
H        1.51084012      -1.79743232      -1.27489997
H        2.35670881      -0.20883254      -1.46598310
H        1.81136472      -0.29023245       0.63068260
H        0.66296141       0.47182100       2.14489358
H        0.30659912       1.74676400       1.01410929
H        1.93732510       1.45362354       1.34985008
16
Frame=13 idx=005401 GeodesicLength=1.2124756201625448 rxn_smarts="[C:1]([C@@:2]1([H:10])[O:3][C:4]1([C:5]([H:11])([H:12])[H:13])[C:6]([H:14])([H:15])[H:16])([H:7])([H:8])[H:9]>>[C:1]([C@@:2]1([H:10])[O:3][C:4]1=[C:5]([H:11])[H:12])([H:7])([H:8])[H:9].[C:6]([H:13])([H:14])([H:15])[H:16]"
C       -2.05770051      -0.20095919       0.21938747
C       -1.00477778      -0.39655966      -0.82729398
O       -0.34963425       0.77292295      -1.37713918
C        0.39992534      -0.10504214      -0.63349836
C        1.60927476      -0.78565042      -0.89365038
C        1.00908409       0.92051668       1.20826128
H       -2.99629274       0.11477608      -0.23896331
H       -1.76162098       0.55165294       0.94733341
H       -2.23598590      -1.13918164       0.74929173
H       -1.25669507      -1.12162270      -1.59986193
H        1.49564461      -1.79597431      -1.27217188
H        2.34578168      -0.21855128      -1.45981676
H        1.86419896      -0.29373912       0.65482847
H        0.71254083       0.47547717       2.15888486
H        0.29364501       1.72576472       1.03161098
H        1.93261195       1.49616992       1.33279759
16
Frame=14 idx=005401 GeodesicLength=1.3053424207386866 rxn_smarts="[C:1]([C@@:2]1([H:10])[O:3][C:4]1([C:5]([H:11])([H:12])[H:13])[C:6]([H:14])([H:15])[H:16])([H:7])([H:8])[H:9]>>[C:1]([C@@:2]1([H:10])[O:3][C:4]1=[C:5]([H:11])[H:12])([H:7])([H:8])[H:9].[C:6]([H:13])([H:14])([H:15])[H:16]"
C       -2.06780712      -0.20392246       0.20817693
C       -1.01292495      -0.39581880      -0.83733137
O       -0.35596949       0.77409138      -1.38227134
C        0.38968961      -0.10298874      -0.63173321
C        1.59923075      -0.78918925      -0.87673175
C        1.02743077       0.92109574       1.21004728
H       -3.00178753       0.12874034      -0.24762756
H       -1.76513101       0.53437348       0.94818414
H       -2.25766156      -1.14736730       0.72465860
H       -1.26197400      -1.12000108      -1.61162659
H        1.48001676      -1.79533534      -1.26536513
H        2.33380696      -0.22987585      -1.45398683
H        1.92249983      -0.29294728       0.67671119
H        0.76476660       0.47818006       2.17182393
H        0.28068716       1.70196525       1.05114281
H        1.92512722       1.53899986       1.31592891
16
Frame=15 idx=005401 GeodesicLength=1.3982332068453998 rxn_smarts="[C:1]([C@@:2]1([H:10])[O:3][C:4]1([C:5]([H:11])([H:12])[H:13])[C:6]([H:14])([H:15])[H:16])([H:7])([H:8])[H:9]>>[C:1]([C@@:2]1([H:10])[O:3][C:4]1=[C:5]([H:11])[H:12])([H:7])([H:8])[H:9].[C:6]([H:13])([H:14])([H:15])[H:16]"
C       -2.07848910      -0.20668821       0.19634103
C       -1.02162005      -0.39453440      -0.84801484
O       -0.36261812       0.77589002      -1.38754059
C        0.37877015      -0.10062088      -0.63033224
C        1.58854633      -0.79274332      -0.85806338
C        1.04645920       0.92110543       1.21165339
H       -3.00753770       0.14347235      -0.25643302
H       -1.76907437       0.51627246       0.94881898
H       -2.28029061      -1.15536421       0.69856352
H       -1.26751011      -1.11777866      -1.62416341
H        1.46382141      -1.79568647      -1.25408397
H        2.32069558      -0.24300995      -1.44848294
H        1.98663458      -0.28723801       0.69570515
H        0.81980070       0.47986825       2.18361293
H        0.26781064       1.67502510       1.07291008
H        1.91460146       1.58203049       1.29950931
16
Frame=16 idx=005401 GeodesicLength=1.4912490443704054 rxn_smarts="[C:1]([C@@:2]1([H:10])[O:3][C:4]1([C:5]([H:11])([H:12])[H:13])[C:6]([H:14])([H:15])[H:16])([H:7])([H:8])[H:9]>>[C:1]([C@@:2]1([H:10])[O:3][C:4]1=[C:5]([H:11])[H:12])([H:7])([H:8])[H:9].[C:6]([H:13])([H:14])([H:15])[H:16]"
C       -2.08979659      -0.20920468       0.18379270
C       -1.03086997      -0.39266550      -0.85938099
O       -0.36952566       0.77835381      -1.39291028
C        0.36715363      -0.09795409      -0.62925119
C        1.57719427      -0.79630677      -0.83745097
C        1.06620788       0.92053268       1.21312156
H       -3.01354629       0.15905192      -0.26545610
H       -1.77352150       0.49732739       0.94914533
H       -2.30397771      -1.16307893       0.67087005
H       -1.27327031      -1.11490255      -1.63752746
H        1.44694859      -1.79726003      -1.23782525
H        2.30637769      -0.25822617      -1.44327890
H        2.05688811      -0.27577410       0.71097358
H        0.87792543       0.48048197       2.19411864
H        0.25514615       1.64444800       1.09720740
H        1.90066627       1.62517705       1.28385189
