18
Frame=0 idx=000852 GeodesicLength=0.0 rxn_smarts="[C:1]([C:2]([C@@:3]1([H:12])[C:4]([H:13])([H:14])[C@:5]1([C:6]([H:16])([H:17])[H:18])[H:15])([H:10])[H:11])([H:7])([H:8])[H:9]>>[C:1](=[C:2]([H:10])[H:11])([H:7])[H:9].[C:3]1([H:8])([H:12])[C:4]([H:13])([H:14])[C:5]1([C:6]([H:16])([H:17])[H:18])[H:15]"
C        2.02955461       1.11095765      -0.33582505
C        1.72220704      -0.21378883       0.10440450
C       -0.04618271      -0.87171441      -0.61237718
C       -0.93419236      -1.48700526       0.42028297
C       -1.39133323      -0.25766648      -0.29134337
C       -1.51111643       1.05053575       0.45556265
H        2.63619883       1.25628396      -1.21585196
H        0.79404309       0.31495330      -0.62489024
H        1.78345221       1.95421533       0.29065373
H        1.44204952      -0.37536383       1.14012096
H        2.24977748      -1.04893608      -0.34191121
H        0.07352917      -1.38176452      -1.56291075
H       -0.64271238      -1.37917537       1.46236131
H       -1.40764092      -2.43483564       0.19446537
H       -2.15600584      -0.40424681      -1.04837446
H       -2.47082560       1.10017808       0.97429682
H       -1.44411889       1.90801477      -0.21612950
H       -0.72668356       1.15935831       1.20746535
18
Frame=1 idx=000852 GeodesicLength=0.10010765628726129 rxn_smarts="[C:1]([C:2]([C@@:3]1([H:12])[C:4]([H:13])([H:14])[C@:5]1([C:6]([H:16])([H:17])[H:18])[H:15])([H:10])[H:11])([H:7])([H:8])[H:9]>>[C:1](=[C:2]([H:10])[H:11])([H:7])[H:9].[C:3]1([H:8])([H:12])[C:4]([H:13])([H:14])[C:5]1([C:6]([H:16])([H:17])[H:18])[H:15]"
C        2.04135720       1.10642846      -0.34204730
C        1.72479060      -0.20963273       0.11601355
C       -0.05132645      -0.86364927      -0.61827050
C       -0.93421781      -1.48926287       0.41362657
C       -1.39852736      -0.25844034      -0.29142114
C       -1.52271992       1.04596653       0.46082351
H        2.64727727       1.23326305      -1.22611220
H        0.78795303       0.33270554      -0.65155339
H        1.82505247       1.95763897       0.28537565
H        1.44938566      -0.35114906       1.15616896
H        2.25639292      -1.05220231      -0.31191291
H        0.06427736      -1.37459365      -1.56903006
H       -0.64106703      -1.38467825       1.45532321
H       -1.40461556      -2.43784920       0.18488880
H       -2.16488884      -0.40635609      -1.04642867
H       -2.48032503       1.08928525       0.98404403
H       -1.46361734       1.90589255      -0.20864512
H       -0.73518116       1.15663341       1.20915700
18
Frame=2 idx=000852 GeodesicLength=0.1997329817933251 rxn_smarts="[C:1]([C:2]([C@@:3]1([H:12])[C:4]([H:13])([H:14])[C@:5]1([C:6]([H:16])([H:17])[H:18])[H:15])([H:10])[H:11])([H:7])([H:8])[H:9]>>[C:1](=[C:2]([H:10])[H:11])([H:7])[H:9].[C:3]1([H:8])([H:12])[C:4]([H:13])([H:14])[C:5]1([C:6]([H:16])([H:17])[H:18])[H:15]"
C        2.05255748       1.10159008      -0.34851513
C        1.72731541      -0.20529957       0.12826791
C       -0.05643810      -0.85525397      -0.62427026
C       -0.93404893      -1.49147639       0.40672643
C       -1.40572717      -0.25919554      -0.29151169
C       -1.53435786       1.04127383       0.46623080
H        2.65808899       1.20923778      -1.23609095
H        0.78145568       0.35099113      -0.67882218
H        1.86747302       1.96042120       0.27923126
H        1.45701330      -0.32623787       1.17259916
H        2.26262011      -1.05510338      -0.28108620
H        0.05506977      -1.36700569      -1.57529243
H       -0.63920429      -1.39024719       1.44803444
H       -1.40126389      -2.44082875       0.17492448
H       -2.17375345      -0.40844135      -1.04450727
H       -2.48983078       1.07814541       0.99387626
H       -1.48317280       1.90369023      -0.20085048
H       -0.74379649       1.15374002       1.21105585
18
Frame=3 idx=000852 GeodesicLength=0.299009335177466 rxn_smarts="[C:1]([C:2]([C@@:3]1([H:12])[C:4]([H:13])([H:14])[C@:5]1([C:6]([H:16])([H:17])[H:18])[H:15])([H:10])[H:11])([H:7])([H:8])[H:9]>>[C:1](=[C:2]([H:10])[H:11])([H:7])[H:9].[C:3]1([H:8])([H:12])[C:4]([H:13])([H:14])[C:5]1([C:6]([H:16])([H:17])[H:18])[H:15]"
C        2.06309336       1.09639641      -0.35521194
C        1.72981654      -0.20080719       0.14124203
C       -0.06149094      -0.84648191      -0.63037019
C       -0.93365709      -1.49362523       0.39956627
C       -1.41291781      -0.25991961      -0.29162147
C       -1.54603893       1.03645963       0.47178682
H        2.66851141       1.18414136      -1.24577678
H        0.77448561       0.36988763      -0.70675261
H        1.91074642       1.96244831       0.27216589
H        1.46497121      -0.30061615       1.18945503
H        2.26846439      -1.05764522      -0.24941385
H        0.04594446      -1.35895906      -1.58168886
H       -0.63711581      -1.39586519       1.44048351
H       -1.39753853      -2.44375636       0.16454056
H       -2.18257597      -0.41049729      -1.04262438
H       -2.49934769       1.06673482       1.00380072
H       -1.50281931       1.90141254      -0.19273790
H       -0.75253134       1.15069249       1.21315712
18
Frame=4 idx=000852 GeodesicLength=0.39807885928894965 rxn_smarts="[C:1]([C:2]([C@@:3]1([H:12])[C:4]([H:13])([H:14])[C@:5]1([C:6]([H:16])([H:17])[H:18])[H:15])([H:10])[H:11])([H:7])([H:8])[H:9]>>[C:1](=[C:2]([H:10])[H:11])([H:7])[H:9].[C:3]1([H:8])([H:12])[C:4]([H:13])([H:14])[C:5]1([C:6]([H:16])([H:17])[H:18])[H:15]"
C        2.07291305       1.09078775      -0.36210813
C        1.73232942      -0.19616814       0.15501264
C       -0.06645644      -0.83727986      -0.63656412
C       -0.93300773      -1.49568589       0.39212825
C       -1.42008404      -0.26059933      -0.29175671
C       -1.55777600       1.03152435       0.47749522
H        2.67842445       1.15789849      -1.25514688
H        0.76696181       0.38949239      -0.73541572
H        1.95490610       1.96359027       0.26410885
H        1.47329710      -0.27425890       1.20677649
H        2.27392796      -1.05984063      -0.21687407
H        0.03694241      -1.35040871      -1.58820879
H       -0.63478862      -1.40151235       1.43265785
H       -1.39338244      -2.44661180       0.15370257
H       -2.19133242      -0.41252076      -1.04079350
H       -2.50888246       1.05502201       1.01382918
H       -1.52260242       1.89906246      -0.18429759
H       -0.76138974       1.14750866       1.21545446
18
Frame=5 idx=000852 GeodesicLength=0.49702817943941796 rxn_smarts="[C:1]([C:2]([C@@:3]1([H:12])[C:4]([H:13])([H:14])[C@:5]1([C:6]([H:16])([H:17])[H:18])[H:15])([H:10])[H:11])([H:7])([H:8])[H:9]>>[C:1](=[C:2]([H:10])[H:11])([H:7])[H:9].[C:3]1([H:8])([H:12])[C:4]([H:13])([H:14])[C:5]1([C:6]([H:16])([H:17])[H:18])[H:15]"
C        2.08193848       1.08470294      -0.36917198
C        1.73490050      -0.19141048       0.16966856
C       -0.07129792      -0.82759723      -0.64283979
C       -0.93206739      -1.49763294       0.38439434
C       -1.42720071      -0.26121753      -0.29192473
C       -1.56956609       1.02647251       0.48335729
H        2.68764483       1.13045501      -1.26418087
H        0.75881383       0.40989288      -0.76487747
H        1.99993528       1.96370947       0.25497171
H        1.48203391      -0.24715516       1.22461117
H        2.27903093      -1.06170862      -0.18344304
H        0.02811464      -1.34130762      -1.59483862
H       -0.63221464      -1.40717068       1.42454580
H       -1.38874401      -2.44937048       0.14237221
H       -2.19998552      -0.41449883      -1.03903400
H       -2.51843120       1.04298954       1.02395979
H       -1.54253567       1.89664602      -0.17552052
H       -0.77036926       1.14420123       1.21795014
18
Frame=6 idx=000852 GeodesicLength=0.5959492091975467 rxn_smarts="[C:1]([C:2]([C@@:3]1([H:12])[C:4]([H:13])([H:14])[C@:5]1([C:6]([H:16])([H:17])[H:18])[H:15])([H:10])[H:11])([H:7])([H:8])[H:9]>>[C:1](=[C:2]([H:10])[H:11])([H:7])[H:9].[C:3]1([H:8])([H:12])[C:4]([H:13])([H:14])[C:5]1([C:6]([H:16])([H:17])[H:18])[H:15]"
C        2.09008786       1.07807164      -0.37636691
C        1.73757270      -0.18654446       0.18531198
C       -0.07597762      -0.81737177      -0.64918972
C       -0.93079382      -1.49943878       0.37633979
C       -1.43424233      -0.26175492      -0.29213351
C       -1.58141130       1.02130576       0.48938146
H        2.69601934       1.10172592      -1.27284995
H        0.74995869       0.43119079      -0.79522714
H        2.04580719       1.96263410       0.24463473
H        1.49121942      -0.21926504       1.24301331
H        2.28378600      -1.06326617      -0.14907874
H        0.01951627      -1.33160157      -1.60156617
H       -0.62937705      -1.41282515       1.41612933
H       -1.38355863      -2.45200397       0.13050074
H       -2.20849863      -0.41641610      -1.03736509
H       -2.52799070       1.03060615       1.03420325
H       -1.56264965       1.89417003      -0.16638611
H       -0.77946776       1.14078355       1.22064874
18
Frame=7 idx=000852 GeodesicLength=0.6949124427455666 rxn_smarts="[C:1]([C:2]([C@@:3]1([H:12])[C:4]([H:13])([H:14])[C@:5]1([C:6]([H:16])([H:17])[H:18])[H:15])([H:10])[H:11])([H:7])([H:8])[H:9]>>[C:1](=[C:2]([H:10])[H:11])([H:7])[H:9].[C:3]1([H:8])([H:12])[C:4]([H:13])([H:14])[C:5]1([C:6]([H:16])([H:17])[H:18])[H:15]"
C        2.09724332       1.07081290      -0.38364638
C        1.74040658      -0.18160016       0.20205205
C       -0.08045103      -0.80654175      -0.65559944
C       -0.92914177      -1.50107134       0.36794309
C       -1.44117524      -0.26218880      -0.29239127
C       -1.59329821       1.01603153       0.49557019
H        2.70334709       1.07164646      -1.28110929
H        0.74031953       0.45348540      -0.82656306
H        2.09241826       1.96018645       0.23296994
H        1.50090519      -0.19057553       1.26204036
H        2.28822553      -1.06454041      -0.11375037
H        0.01120932      -1.32123135      -1.60837629
H       -0.62625659      -1.41845420       1.40739425
H       -1.37776099      -2.45447785       0.11804382
H       -2.21682463      -0.41825126      -1.03580859
H       -2.53754666       1.01785925       1.04455391
H       -1.58294383       1.89164393      -0.15687945
H       -0.78867585       1.13726675       1.22355652
18
Frame=8 idx=000852 GeodesicLength=0.7939326275788471 rxn_smarts="[C:1]([C:2]([C@@:3]1([H:12])[C:4]([H:13])([H:14])[C@:5]1([C:6]([H:16])([H:17])[H:18])[H:15])([H:10])[H:11])([H:7])([H:8])[H:9]>>[C:1](=[C:2]([H:10])[H:11])([H:7])[H:9].[C:3]1([H:8])([H:12])[C:4]([H:13])([H:14])[C:5]1([C:6]([H:16])([H:17])[H:18])[H:15]"
C        2.10327555       1.06284677      -0.39093998
C        1.74344966      -0.17659073       0.22000450
C       -0.08467544      -0.79504902      -0.66205684
C       -0.92706278      -1.50249721       0.35918369
C       -1.44796224      -0.26249568      -0.29270849
C       -1.60520295       1.01066056       0.50192202
H        2.70940296       1.04017261      -1.28890092
H        0.72983010       0.47684729      -0.85901084
H        2.13964101       1.95615804       0.21985726
H        1.51114825      -0.16107398       1.28175369
H        2.29238233      -1.06554288      -0.07744018
H        0.00325299      -1.31015006      -1.61524871
H       -0.62282887      -1.42403691       1.39832510
H       -1.37128409      -2.45675281       0.10496026
H       -2.22491513      -0.41998072      -1.03438692
H       -2.54707181       1.00474136       1.05500547
H       -1.60340959       1.88907840      -0.14699396
H       -0.79796996       1.13366499       1.22667483
18
Frame=9 idx=000852 GeodesicLength=0.8931336649267778 rxn_smarts="[C:1]([C:2]([C@@:3]1([H:12])[C:4]([H:13])([H:14])[C@:5]1([C:6]([H:16])([H:17])[H:18])[H:15])([H:10])[H:11])([H:7])([H:8])[H:9]>>[C:1](=[C:2]([H:10])[H:11])([H:7])[H:9].[C:3]1([H:8])([H:12])[C:4]([H:13])([H:14])[C:5]1([C:6]([H:16])([H:17])[H:18])[H:15]"
C        2.10803176       1.05411099      -0.39816948
C        1.74682677      -0.17154624       0.23921656
C       -0.08860970      -0.78283067      -0.66856503
C       -0.92449961      -1.50367701       0.35004189
C       -1.45456661      -0.26265506      -0.29308880
C       -1.61710328       1.00519778       0.50843201
H        2.71411414       1.00707960      -1.29613326
H        0.71836169       0.50147113      -0.89266369
H        2.18719783       1.95045348       0.20526185
H        1.52205259      -0.13073981       1.30213688
H        2.29623802      -1.06634601      -0.04011127
H       -0.00430498      -1.29830650      -1.62219526
H       -0.61904380      -1.42953151       1.38890636
H       -1.36405409      -2.45878846       0.09122227
H       -2.23273319      -0.42159698      -1.03310246
H       -2.55652595       0.99122767       1.06557342
H       -1.62407023       1.88646838      -0.13673613
H       -0.80731136       1.13000923       1.22997414
18
Frame=10 idx=000852 GeodesicLength=0.9922983934267234 rxn_smarts="[C:1]([C:2]([C@@:3]1([H:12])[C:4]([H:13])([H:14])[C@:5]1([C:6]([H:16])([H:17])[H:18])[H:15])([H:10])[H:11])([H:7])([H:8])[H:9]>>[C:1](=[C:2]([H:10])[H:11])([H:7])[H:9].[C:3]1([H:8])([H:12])[C:4]([H:13])([H:14])[C:5]1([C:6]([H:16])([H:17])[H:18])[H:15]"
C        2.11130711       1.04454481      -0.40520129
C        1.75055679      -0.16651151       0.25984070
C       -0.09220543      -0.76988514      -0.67510044
C       -0.92142890      -1.50458316       0.34051446
C       -1.46092703      -0.26263905      -0.29355106
C       -1.62889520       0.99968295       0.51506898
H        2.71699594       0.97261727      -1.30272741
H        0.70594095       0.52723502      -0.92767131
H        2.23479587       1.94281424       0.18904458
H        1.53370084      -0.09966967       1.32329137
H        2.29992566      -1.06692583      -0.00181289
H       -0.01140275      -1.28571805      -1.62917218
H       -0.61489789      -1.43492569       1.37913618
H       -1.35606266      -2.46054000       0.07681545
H       -2.24020440      -0.42304764      -1.03199312
H       -2.56582778       0.97741194       1.07617788
H       -1.64474199       1.88385012      -0.12613210
H       -0.81662914       1.12628939       1.23347221
18
Frame=11 idx=000852 GeodesicLength=1.0913141793332717 rxn_smarts="[C:1]([C:2]([C@@:3]1([H:12])[C:4]([H:13])([H:14])[C@:5]1([C:6]([H:16])([H:17])[H:18])[H:15])([H:10])[H:11])([H:7])([H:8])[H:9]>>[C:1](=[C:2]([H:10])[H:11])([H:7])[H:9].[C:3]1([H:8])([H:12])[C:4]([H:13])([H:14])[C:5]1([C:6]([H:16])([H:17])[H:18])[H:15]"
C        2.11289367       1.03411848      -0.41190727
C        1.75471947      -0.16155242       0.28195097
C       -0.09542281      -0.75621979      -0.68164864
C       -0.91783011      -1.50518655       0.33060523
C       -1.46698582      -0.26242262      -0.29410570
C       -1.64047290       0.99415393       0.52179857
H        2.71778766       0.93687990      -1.30856270
H        0.69255225       0.55409883      -0.96414742
H        2.28191740       1.93313125       0.17116530
H        1.54621909      -0.06797866       1.34524285
H        2.30355491      -1.06730698       0.03737882
H       -0.01800052      -1.27241449      -1.63615618
H       -0.61037251      -1.44018958       1.36901750
H       -1.34731386      -2.46196127       0.06174857
H       -2.24727016      -0.42429135      -1.03107483
H       -2.57488384       0.96338315       1.08675790
H       -1.66525860       1.88125013      -0.11522376
H       -0.82583333       1.12250804       1.23716080
18
Frame=12 idx=000852 GeodesicLength=1.1900863687241052 rxn_smarts="[C:1]([C:2]([C@@:3]1([H:12])[C:4]([H:13])([H:14])[C@:5]1([C:6]([H:16])([H:17])[H:18])[H:15])([H:10])[H:11])([H:7])([H:8])[H:9]>>[C:1](=[C:2]([H:10])[H:11])([H:7])[H:9].[C:3]1([H:8])([H:12])[C:4]([H:13])([H:14])[C:5]1([C:6]([H:16])([H:17])[H:18])[H:15]"
C        2.11256853       1.02281551      -0.41811200
C        1.75938717      -0.15673157       0.30560709
C       -0.09823339      -0.74187403      -0.68820566
C       -0.91369285      -1.50546387       0.32033085
C       -1.47268470      -0.26198533      -0.29476374
C       -1.65169835       0.98866268       0.52856899
H        2.71621847       0.90006261      -1.31348461
H        0.67821080       0.58194787      -1.00225159
H        2.32793291       1.92132384       0.15165360
H        1.55976214      -0.03583043       1.36801445
H        2.30724784      -1.06751398       0.07733335
H       -0.02408258      -1.25846973      -1.64312737
H       -0.60544583      -1.44529127       1.35856170
H       -1.33783855      -2.46301079       0.04606188
H       -2.25388190      -0.42528788      -1.03035338
H       -2.58356646       0.94927025       1.09724443
H       -1.68541056       1.87870276      -0.10408508
H       -0.83479267       1.11867335       1.24100710
18
Frame=13 idx=000852 GeodesicLength=1.288567131504493 rxn_smarts="[C:1]([C:2]([C@@:3]1([H:12])[C:4]([H:13])([H:14])[C@:5]1([C:6]([H:16])([H:17])[H:18])[H:15])([H:10])[H:11])([H:7])([H:8])[H:9]>>[C:1](=[C:2]([H:10])[H:11])([H:7])[H:9].[C:3]1([H:8])([H:12])[C:4]([H:13])([H:14])[C:5]1([C:6]([H:16])([H:17])[H:18])[H:15]"
C        2.11005662       1.01064649      -0.42360135
C        1.76464993      -0.15215079       0.33083126
C       -0.10061622      -0.72692473      -0.69476626
C       -0.90902158      -1.50539558       0.30973008
C       -1.47796355      -0.26131124      -0.29553369
C       -1.66239804       0.98328110       0.53530477
H        2.71202446       0.86246309      -1.31729874
H        0.66295320       0.61058859      -1.04218335
H        2.37206027       1.90740000       0.13064258
H        1.57451494      -0.00349883       1.39161178
H        2.31116610      -1.06757610       0.11784292
H       -0.02965284      -1.24400241      -1.65006089
H       -0.60009761      -1.45018769       1.34779714
H       -1.32770105      -2.46364965       0.02984015
H       -2.25999739      -0.42600023      -1.02982322
H       -2.59171348       0.93525910       1.10754859
H       -1.70492837       1.87625317      -0.09283149
H       -0.84333539       1.11480570       1.24494971
18
Frame=14 idx=000852 GeodesicLength=1.3866545952939757 rxn_smarts="[C:1]([C:2]([C@@:3]1([H:12])[C:4]([H:13])([H:14])[C@:5]1([C:6]([H:16])([H:17])[H:18])[H:15])([H:10])[H:11])([H:7])([H:8])[H:9]>>[C:1](=[C:2]([H:10])[H:11])([H:7])[H:9].[C:3]1([H:8])([H:12])[C:4]([H:13])([H:14])[C:5]1([C:6]([H:16])([H:17])[H:18])[H:15]"
C        2.10511268       0.99770752      -0.42813302
C        1.77056364      -0.14790785       0.35759688
C       -0.10258004      -0.71151262      -0.70133709
C       -0.90386196      -1.50498394       0.29885928
C       -1.48277321      -0.26039563      -0.29642498
C       -1.67237340       0.97808979       0.54191519
H        2.70501488       0.82446497      -1.31979519
H        0.64687760       0.63972657      -1.08410125
H        2.41343340       1.89149627       0.10835644
H        1.59069085       0.02868476       1.41602127
H        2.31551049      -1.06751485       0.15860595
H       -0.03475892      -1.22920824      -1.65693665
H       -0.59432888      -1.45484771       1.33676438
H       -1.31703897      -2.46385443       0.01320812
H       -2.26559624      -0.42639223      -1.02947042
H       -2.59914335       0.92157857       1.11756925
H       -1.72349014       1.87395215      -0.08160861
H       -0.85125842       1.11091689       1.24891044
18
Frame=15 idx=000852 GeodesicLength=1.4843467253345968 rxn_smarts="[C:1]([C:2]([C@@:3]1([H:12])[C:4]([H:13])([H:14])[C@:5]1([C:6]([H:16])([H:17])[H:18])[H:15])([H:10])[H:11])([H:7])([H:8])[H:9]>>[C:1](=[C:2]([H:10])[H:11])([H:7])[H:9].[C:3]1([H:8])([H:12])[C:4]([H:13])([H:14])[C:5]1([C:6]([H:16])([H:17])[H:18])[H:15]"
C        2.09748621       0.98412702      -0.43144064
C        1.77719069      -0.14413521       0.38582687
C       -0.10414976      -0.69582233      -0.70792651
C       -0.89828354      -1.50424341       0.28779868
C       -1.48707441      -0.25924441      -0.29744202
C       -1.68140753       0.97318596       0.54828896
H        2.69504976       0.78656803      -1.32075381
H        0.63011066       0.66899147      -1.12819323
H        2.45111732       1.87387533       0.08515204
H        1.60851585       0.06028883       1.44120821
H        2.32051372      -1.06736631       0.19924541
H       -0.03947757      -1.21433192      -1.66373301
H       -0.58815150      -1.45923528       1.32552316
H       -1.30603157      -2.46361730      -0.00366133
H       -2.27067752      -0.42644005      -1.02926533
H       -2.60565655       0.90850529       1.12719655
H       -1.74074259       1.87185975      -0.07060284
H       -0.85833166       1.10703453       1.25277883
18
Frame=16 idx=000852 GeodesicLength=1.5817449138409936 rxn_smarts="[C:1]([C:2]([C@@:3]1([H:12])[C:4]([H:13])([H:14])[C@:5]1([C:6]([H:16])([H:17])[H:18])[H:15])([H:10])[H:11])([H:7])([H:8])[H:9]>>[C:1](=[C:2]([H:10])[H:11])([H:7])[H:9].[C:3]1([H:8])([H:12])[C:4]([H:13])([H:14])[C:5]1([C:6]([H:16])([H:17])[H:18])[H:15]"
C        2.08693432       0.97008692      -0.43323865
C        1.78457975      -0.14099837       0.41540693
C       -0.10537129      -0.68008860      -0.71454991
C       -0.89239009      -1.50320845       0.27664665
C       -1.49084117      -0.25787508      -0.29858727
C       -1.68926849       0.96868038       0.55429994
H        2.68206300       0.74937928      -1.31996036
H        0.61280282       0.69792285      -1.17466643
H        2.48415872       1.85499251       0.06149493
H        1.62822722       0.09079023       1.46714553
H        2.32644130      -1.06719685       0.23931113
H       -0.04391903      -1.19968059      -1.67042875
H       -0.58160229      -1.46332294       1.31414832
H       -1.29491442      -2.46295250      -0.02055875
H       -2.27526272      -0.42612759      -1.02916712
H       -2.61103764       0.89635641       1.13632104
H       -1.75630472       1.87004661      -0.06003267
H       -0.86429528       1.10319578       1.25641544
