7
Frame=0 idx=002776 GeodesicLength=0.0 rxn_smarts="[o:1]1[c:2]([H:6])[n:3][n:4][c:5]1[H:7]>>[O:1]=[C:2]([N-:3][N+:4]#[C:5][H:7])[H:6]"
O        0.49285167      -1.17704310       0.24620737
C        1.12715882      -0.21503276      -0.16198094
N        0.60141194       1.03056038      -0.42222931
N       -0.66631822       0.89860590      -0.13108799
C       -1.43074729       0.10551696       0.25267796
H        2.20030038      -0.26280300      -0.36175644
H       -2.32465732      -0.37980437       0.57816936
7
Frame=1 idx=002776 GeodesicLength=0.03762268508643955 rxn_smarts="[o:1]1[c:2]([H:6])[n:3][n:4][c:5]1[H:7]>>[O:1]=[C:2]([N-:3][N+:4]#[C:5][H:7])[H:6]"
O        0.48491610      -1.17077284       0.24817862
C        1.12835778      -0.21305578      -0.16596259
N        0.59964175       1.02860475      -0.42544808
N       -0.66860024       0.90059074      -0.12877385
C       -1.41788483       0.09320609       0.26394626
H        2.20181395      -0.26358213      -0.36104376
H       -2.32824449      -0.37499084       0.56910340
7
Frame=2 idx=002776 GeodesicLength=0.07498722570595279 rxn_smarts="[o:1]1[c:2]([H:6])[n:3][n:4][c:5]1[H:7]>>[O:1]=[C:2]([N-:3][N+:4]#[C:5][H:7])[H:6]"
O        0.47572783      -1.16654715       0.24346989
C        1.13069409      -0.20925643      -0.16342306
N        0.59925172       1.02880750      -0.42058111
N       -0.67351148       0.89859667      -0.13871876
C       -1.40594743       0.08053944       0.27131856
H        2.20304232      -0.26450251      -0.36098343
H       -2.32925704      -0.36763752       0.56891791
7
Frame=3 idx=002776 GeodesicLength=0.1124923929778846 rxn_smarts="[o:1]1[c:2]([H:6])[n:3][n:4][c:5]1[H:7]>>[O:1]=[C:2]([N-:3][N+:4]#[C:5][H:7])[H:6]"
O        0.46762311      -1.16082406       0.24431081
C        1.13181875      -0.20706387      -0.16614566
N        0.59905300       1.02937702      -0.41431011
N       -0.67770986       0.89773890      -0.14488495
C       -1.39504857       0.06756133       0.27553091
H        2.20387766      -0.26579852      -0.36187078
H       -2.32961409      -0.36099080       0.56736978
7
Frame=4 idx=002776 GeodesicLength=0.14993269369034098 rxn_smarts="[o:1]1[c:2]([H:6])[n:3][n:4][c:5]1[H:7]>>[O:1]=[C:2]([N-:3][N+:4]#[C:5][H:7])[H:6]"
O        0.45887257      -1.15634169       0.24130307
C        1.13332377      -0.20428241      -0.16660623
N        0.59838997       1.02931507      -0.40993812
N       -0.68169567       0.89709471      -0.15016512
C       -1.38538634       0.05357215       0.27471644
H        2.20519393      -0.26630341      -0.36013771
H       -2.32869821      -0.35305442       0.57082767
7
Frame=5 idx=002776 GeodesicLength=0.18757624276428297 rxn_smarts="[o:1]1[c:2]([H:6])[n:3][n:4][c:5]1[H:7]>>[O:1]=[C:2]([N-:3][N+:4]#[C:5][H:7])[H:6]"
O        0.45167747      -1.14989813       0.24568772
C        1.13555777      -0.20043501      -0.16302260
N        0.59859407       1.03053501      -0.40054340
N       -0.68559214       0.89639495      -0.15562731
C       -1.37625296       0.03972047       0.27279779
H        2.20426677      -0.26971705      -0.36892285
H       -2.32825097      -0.34660024       0.56963064
7
Frame=6 idx=002776 GeodesicLength=0.22484895965087337 rxn_smarts="[o:1]1[c:2]([H:6])[n:3][n:4][c:5]1[H:7]>>[O:1]=[C:2]([N-:3][N+:4]#[C:5][H:7])[H:6]"
O        0.44310571      -1.14551066       0.24322334
C        1.13734915      -0.19699824      -0.16057080
N        0.59850864       1.03158967      -0.39140970
N       -0.68981363       0.89512694      -0.16271496
C       -1.36912731       0.02378005       0.26183254
H        2.20469002      -0.27090004      -0.36984876
H       -2.32471256      -0.33708771       0.57948833
7
Frame=7 idx=002776 GeodesicLength=0.26230705982388886 rxn_smarts="[o:1]1[c:2]([H:6])[n:3][n:4][c:5]1[H:7]>>[O:1]=[C:2]([N-:3][N+:4]#[C:5][H:7])[H:6]"
O        0.43490679      -1.14074879       0.24253599
C        1.13931862      -0.19328135      -0.15667613
N        0.59825567       1.03246002      -0.38225311
N       -0.69402785       0.89362674      -0.17049050
C       -1.36098889       0.01027097       0.25713568
H        2.20424041      -0.27287788      -0.37396252
H       -2.32170474      -0.32944972       0.58371059
7
Frame=8 idx=002776 GeodesicLength=0.2997392272506103 rxn_smarts="[o:1]1[c:2]([H:6])[n:3][n:4][c:5]1[H:7]>>[O:1]=[C:2]([N-:3][N+:4]#[C:5][H:7])[H:6]"
O        0.42657334      -1.13628098       0.24111523
C        1.14082923      -0.19012758      -0.15455448
N        0.59763773       1.03281229      -0.37486553
N       -0.69808015       0.89245401      -0.17717044
C       -1.35280575      -0.00230930       0.25390053
H        2.20419751      -0.27427398      -0.37578991
H       -2.31835191      -0.32227447       0.58736459
7
Frame=9 idx=002776 GeodesicLength=0.3371207512618615 rxn_smarts="[o:1]1[c:2]([H:6])[n:3][n:4][c:5]1[H:7]>>[O:1]=[C:2]([N-:3][N+:4]#[C:5][H:7])[H:6]"
O        0.41843944      -1.13169435       0.24033835
C        1.14209160      -0.18730861      -0.15348269
N        0.59678628       1.03277027      -0.36881683
N       -0.70194928       0.89156012      -0.18266562
C       -1.34422646      -0.01355955       0.25359926
H        2.20417815      -0.27565140      -0.37738269
H       -2.31531973      -0.31611647       0.58841023
7
Frame=10 idx=002776 GeodesicLength=0.3745171892221449 rxn_smarts="[o:1]1[c:2]([H:6])[n:3][n:4][c:5]1[H:7]>>[O:1]=[C:2]([N-:3][N+:4]#[C:5][H:7])[H:6]"
O        0.41028917      -1.12726216       0.23926331
C        1.14312384      -0.18477598      -0.15327801
N        0.59578460       1.03247222      -0.36360171
N       -0.70573630       0.89080392      -0.18776570
C       -1.33560522      -0.02397533       0.25456228
H        2.20434630      -0.27680186      -0.37799372
H       -2.31220239      -0.31046080       0.58881355
7
Frame=11 idx=002776 GeodesicLength=0.4119439492359619 rxn_smarts="[o:1]1[c:2]([H:6])[n:3][n:4][c:5]1[H:7]>>[O:1]=[C:2]([N-:3][N+:4]#[C:5][H:7])[H:6]"
O        0.40226091      -1.12282523       0.23846356
C        1.14408328      -0.18233256      -0.15322717
N        0.59472150       1.03205546      -0.35863754
N       -0.70945940       0.89009239      -0.19264456
C       -1.32697440      -0.03370544       0.25650447
H        2.20443628      -0.27799998      -0.37876132
H       -2.30906818      -0.30528465       0.58830255
7
Frame=12 idx=002776 GeodesicLength=0.4493341041026544 rxn_smarts="[o:1]1[c:2]([H:6])[n:3][n:4][c:5]1[H:7]>>[O:1]=[C:2]([N-:3][N+:4]#[C:5][H:7])[H:6]"
O        0.39436090      -1.11834962       0.23802696
C        1.14498134      -0.17995865      -0.15330015
N        0.59362180       1.03154229      -0.35393148
N       -0.71309883       0.88946002      -0.19716809
C       -1.31837312      -0.04280951       0.25912243
H        2.20443389      -0.27928632      -0.37974393
H       -2.30592599      -0.30059822       0.58699427
7
Frame=13 idx=002776 GeodesicLength=0.4867428447352929 rxn_smarts="[o:1]1[c:2]([H:6])[n:3][n:4][c:5]1[H:7]>>[O:1]=[C:2]([N-:3][N+:4]#[C:5][H:7])[H:6]"
O        0.38637993      -1.11415285       0.23684155
C        1.14572096      -0.17777632      -0.15393494
N        0.59239171       1.03082459      -0.34987810
N       -0.71674525       0.88882630      -0.20162641
C       -1.30980643      -0.05133663       0.26246938
H        2.20467105      -0.28028425      -0.37959961
H       -2.30261198      -0.29610083       0.58572813
7
Frame=14 idx=002776 GeodesicLength=0.5241488594552557 rxn_smarts="[o:1]1[c:2]([H:6])[n:3][n:4][c:5]1[H:7]>>[O:1]=[C:2]([N-:3][N+:4]#[C:5][H:7])[H:6]"
O        0.37843185      -1.11006363       0.23549001
C        1.14638242      -0.17568710      -0.15479892
N        0.59109641       1.02998043      -0.34621675
N       -0.72036177       0.88821589      -0.20591211
C       -1.30125992      -0.05929918       0.26648633
H        2.20495822      -0.28121841      -0.37912802
H       -2.29924720      -0.29192799       0.58407946
7
Frame=15 idx=002776 GeodesicLength=0.5616278429332774 rxn_smarts="[o:1]1[c:2]([H:6])[n:3][n:4][c:5]1[H:7]>>[O:1]=[C:2]([N-:3][N+:4]#[C:5][H:7])[H:6]"
O        0.37055700      -1.10609239       0.23409020
C        1.14704398      -0.17362600      -0.15567518
N        0.58972246       1.02899740      -0.34336105
N       -0.72392019       0.88767178      -0.20981800
C       -1.29242390      -0.06634090       0.27255065
H        2.20523271      -0.28220532      -0.37870546
H       -2.29621206      -0.28840458       0.58091884
7
Frame=16 idx=002776 GeodesicLength=0.5989878604286505 rxn_smarts="[o:1]1[c:2]([H:6])[n:3][n:4][c:5]1[H:7]>>[O:1]=[C:2]([N-:3][N+:4]#[C:5][H:7])[H:6]"
O        0.36263298      -1.10212521       0.23245118
C        1.14765770      -0.17153704      -0.15629626
N        0.58833756       1.02793034      -0.34022412
N       -0.72749248       0.88704044      -0.21395176
C       -1.28399261      -0.07324881       0.27745372
H        2.20542819      -0.28317581      -0.37811725
H       -2.29257133      -0.28488391       0.57868449
