17
Frame=0 idx=010323 GeodesicLength=0.0 rxn_smarts="[C:1]([C@@:2]1([H:11])[C@:3]([O:4][H:13])([H:12])[C:5]([H:14])([H:15])[C@:6]1([O:7][H:17])[H:16])([H:8])([H:9])[H:10]>>[C:1]([C@@:2]1([H:11])[C:3](=[O:4])[C:5]([H:14])([H:15])[C@:6]1([O:7][H:17])[H:16])([H:8])([H:9])[H:10].[H:12][H:13]"
C       -1.60950215      -0.50273049      -0.57592367
C       -0.62174010       0.02858331       0.44853031
C        0.60485963      -0.90459280       0.54320922
O        0.61905649      -2.21387300       0.52208851
C        1.42609439       0.06215064      -0.31311412
C        0.35069027       1.13003598      -0.07476812
O        0.00660960       1.83311242      -1.23818374
H       -2.41745464       0.21339693      -0.73237502
H       -2.03401288      -1.44366025      -0.22615629
H       -1.13633371      -0.68243247      -1.54137365
H       -1.12500448       0.24334791       1.39194123
H        1.08685622      -0.55060185       1.85645550
H        1.02364133      -1.49510837       1.62862765
H        2.46214778       0.26637436      -0.05341573
H        1.37542858      -0.30657994      -1.34092037
H        0.63323097       1.82002437       0.72696465
H       -0.64456732       2.50255321      -1.02158635
17
Frame=1 idx=010323 GeodesicLength=0.11554284270391754 rxn_smarts="[C:1]([C@@:2]1([H:11])[C@:3]([O:4][H:13])([H:12])[C:5]([H:14])([H:15])[C@:6]1([O:7][H:17])[H:16])([H:8])([H:9])[H:10]>>[C:1]([C@@:2]1([H:11])[C:3](=[O:4])[C:5]([H:14])([H:15])[C@:6]1([O:7][H:17])[H:16])([H:8])([H:9])[H:10].[H:12][H:13]"
C       -1.61960757      -0.49609349      -0.57392148
C       -0.62255679       0.02866984       0.44484606
C        0.60428262      -0.90446640       0.53947731
O        0.58445682      -2.21334048       0.51849278
C        1.43043263       0.07291165      -0.29952908
C        0.34472000       1.13293810      -0.07957490
O        0.00911671       1.82132957      -1.25459994
H       -2.42493497       0.22363342      -0.72773742
H       -2.05322410      -1.43161329      -0.22077680
H       -1.14970387      -0.68228620      -1.53978973
H       -1.12050750       0.24663456       1.39062840
H        1.12863569      -0.58608121       1.86104717
H        1.05804768      -1.53711716       1.62945031
H        2.45853923       0.29516140      -0.02252925
H        1.40863677      -0.29160910      -1.32952385
H        0.61412501       1.83410857       0.71698805
H       -0.65045836       2.48722021      -1.05294762
17
Frame=2 idx=010323 GeodesicLength=0.2310187377836977 rxn_smarts="[C:1]([C@@:2]1([H:11])[C@:3]([O:4][H:13])([H:12])[C:5]([H:14])([H:15])[C@:6]1([O:7][H:17])[H:16])([H:8])([H:9])[H:10]>>[C:1]([C@@:2]1([H:11])[C:3](=[O:4])[C:5]([H:14])([H:15])[C@:6]1([O:7][H:17])[H:16])([H:8])([H:9])[H:10].[H:12][H:13]"
C       -1.63003063      -0.48922173      -0.57179133
C       -0.62383395       0.02931321       0.44110720
C        0.60325287      -0.90380580       0.53602728
O        0.55002114      -2.21148454       0.51679403
C        1.43445673       0.08421061      -0.28501427
C        0.33843942       1.13614937      -0.08464183
O        0.01189673       1.80901207      -1.27156117
H       -2.43257212       0.23415330      -0.72342262
H       -2.07269112      -1.41908361      -0.21488938
H       -1.16339718      -0.68237263      -1.53793252
H       -1.11642586       0.25065552       1.38920008
H        1.17206158      -0.62432388       1.86397896
H        1.09427587      -1.58192820       1.62803858
H        2.45377170       0.32467564       0.00974967
H        1.44241557      -0.27606388      -1.31638323
H        0.59419114       1.84879356       0.70624579
H       -0.65583189       2.47132100      -1.08550525
17
Frame=3 idx=010323 GeodesicLength=0.3464277761292395 rxn_smarts="[C:1]([C@@:2]1([H:11])[C@:3]([O:4][H:13])([H:12])[C:5]([H:14])([H:15])[C@:6]1([O:7][H:17])[H:16])([H:8])([H:9])[H:10]>>[C:1]([C@@:2]1([H:11])[C:3](=[O:4])[C:5]([H:14])([H:15])[C@:6]1([O:7][H:17])[H:16])([H:8])([H:9])[H:10].[H:12][H:13]"
C       -1.64077537      -0.48210865      -0.56948588
C       -0.62560521       0.03060176       0.43735666
C        0.60173654      -0.90251328       0.53296796
O        0.51575684      -2.20825094       0.51717540
C        1.43813856       0.09613506      -0.26941979
C        0.33182417       1.13972105      -0.08999537
O        0.01499485       1.79606321      -1.28913826
H       -2.44036768       0.24495006      -0.71946641
H       -2.09242110      -1.40603189      -0.20838532
H       -1.17738906      -0.68276277      -1.53571486
H       -1.11281306       0.25556533       1.38767064
H        1.21729327      -0.66562515       1.86491871
H        1.13236509      -1.62982047       1.62393519
H        2.44773040       0.35499445       0.04367635
H        1.47683143      -0.25984741      -1.30127469
H        0.57335697       1.86419560       0.69461508
H       -0.66065666       2.45473405      -1.11943543
17
Frame=4 idx=010323 GeodesicLength=0.46174064716888874 rxn_smarts="[C:1]([C@@:2]1([H:11])[C@:3]([O:4][H:13])([H:12])[C:5]([H:14])([H:15])[C@:6]1([O:7][H:17])[H:16])([H:8])([H:9])[H:10]>>[C:1]([C@@:2]1([H:11])[C:3](=[O:4])[C:5]([H:14])([H:15])[C@:6]1([O:7][H:17])[H:16])([H:8])([H:9])[H:10].[H:12][H:13]"
C       -1.65181969      -0.47475619      -0.56700226
C       -0.62792822       0.03262382       0.43364169
C        0.59967939      -0.90048025       0.53047121
O        0.48163230      -2.20357162       0.52004011
C        1.44141045       0.10874483      -0.25260650
C        0.32485253       1.14369821      -0.09562770
O        0.01846433       1.78241378      -1.30733551
H       -2.44829609       0.25600078      -0.71599243
H       -2.11239134      -1.39244255      -0.20124314
H       -1.19159769      -0.68352668      -1.53307831
H       -1.10978781       0.26152149       1.38603594
H        1.26456608      -0.71021011       1.86343356
H        1.17242715      -1.68100684       1.61662110
H        2.44027743       0.38615559       0.07940935
H        1.51181370      -0.24292943      -1.28396302
H        0.55157045       1.88040006       0.68201175
H       -0.66487297       2.43736511      -1.15481583
17
Frame=5 idx=010323 GeodesicLength=0.5769454460253796 rxn_smarts="[C:1]([C@@:2]1([H:11])[C@:3]([O:4][H:13])([H:12])[C:5]([H:14])([H:15])[C@:6]1([O:7][H:17])[H:16])([H:8])([H:9])[H:10]>>[C:1]([C@@:2]1([H:11])[C:3](=[O:4])[C:5]([H:14])([H:15])[C@:6]1([O:7][H:17])[H:16])([H:8])([H:9])[H:10].[H:12][H:13]"
C       -1.66315762      -0.46716969      -0.56427218
C       -0.63084241       0.03549404       0.43002943
C        0.59704463      -0.89756985       0.52871522
O        0.44769446      -2.19734488       0.52565089
C        1.44423618       0.12216113      -0.23436801
C        0.31749916       1.14814310      -0.10156657
O        0.02237844       1.76792147      -1.32623060
H       -2.45635155       0.26727594      -0.71305168
H       -2.13259363      -1.37827881      -0.19331528
H       -1.20597227      -0.68477341      -1.52989553
H       -1.10742465       0.26873808       1.38431870
H        1.31416879      -0.75844800       1.85895041
H        1.21430338      -1.73582432       1.60547649
H        2.43125126       0.41828079       0.11729600
H        1.54744720      -0.22518475      -1.26413911
H        0.52874323       1.89755424       0.66827040
H       -0.66842460       2.41902492      -1.19186857
17
Frame=6 idx=010323 GeodesicLength=0.6920084333674562 rxn_smarts="[C:1]([C@@:2]1([H:11])[C@:3]([O:4][H:13])([H:12])[C:5]([H:14])([H:15])[C@:6]1([O:7][H:17])[H:16])([H:8])([H:9])[H:10]>>[C:1]([C@@:2]1([H:11])[C:3](=[O:4])[C:5]([H:14])([H:15])[C@:6]1([O:7][H:17])[H:16])([H:8])([H:9])[H:10].[H:12][H:13]"
C       -1.67475699      -0.45936880      -0.56124868
C       -0.63440190       0.03933455       0.42659943
C        0.59378790      -0.89362055       0.52795361
O        0.41397506      -2.18944035       0.53443592
C        1.44655190       0.13650195      -0.21448594
C        0.30974128       1.15311711      -0.10781513
O        0.02682550       1.75244451      -1.34585439
H       -2.46450349       0.27872002      -0.71075891
H       -2.15299225      -1.36352244      -0.18449585
H       -1.22040648      -0.68663038      -1.52604025
H       -1.10584896       0.27745069       1.38253072
H        1.36649435      -0.81067738       1.85070233
H        1.25776938      -1.79457754       1.58980805
H        2.42045960       0.45147782       0.15765014
H        1.58373465      -0.20651827      -1.24145722
H        0.50479702       1.91579298       0.65323784
H       -0.67122657       2.39951607      -1.23076167
17
Frame=7 idx=010323 GeodesicLength=0.8068856069430081 rxn_smarts="[C:1]([C@@:2]1([H:11])[C@:3]([O:4][H:13])([H:12])[C:5]([H:14])([H:15])[C@:6]1([O:7][H:17])[H:16])([H:8])([H:9])[H:10]>>[C:1]([C@@:2]1([H:11])[C:3](=[O:4])[C:5]([H:14])([H:15])[C@:6]1([O:7][H:17])[H:16])([H:8])([H:9])[H:10].[H:12][H:13]"
C       -1.68656788      -0.45139157      -0.55786423
C       -0.63865684       0.04428475       0.42345187
C        0.58987748      -0.88843277       0.52851068
O        0.38054902      -2.17968508       0.54685456
C        1.44829321       0.15191895      -0.19270050
C        0.30155997       1.15868939      -0.11437555
O        0.03191562       1.73580293      -1.36623557
H       -2.47270964       0.29024408      -0.70923420
H       -2.17352891      -1.34816555      -0.17464255
H       -1.23476184      -0.68926263      -1.52134792
H       -1.10519822       0.28793868       1.38068881
H        1.42203427      -0.86727519       1.83765597
H        1.30234595      -1.85760300       1.56885798
H        2.40767926       0.48588700       0.20085116
H        1.62069575      -0.18680241      -1.21550871
H        0.47964726       1.93527155       0.63672770
H       -0.67317446       2.37858089      -1.27168951
17
Frame=8 idx=010323 GeodesicLength=0.9215142505197697 rxn_smarts="[C:1]([C@@:2]1([H:11])[C@:3]([O:4][H:13])([H:12])[C:5]([H:14])([H:15])[C@:6]1([O:7][H:17])[H:16])([H:8])([H:9])[H:10]>>[C:1]([C@@:2]1([H:11])[C:3](=[O:4])[C:5]([H:14])([H:15])[C@:6]1([O:7][H:17])[H:16])([H:8])([H:9])[H:10].[H:12][H:13]"
C       -1.69850732      -0.44330374      -0.55404902
C       -0.64366176       0.05049933       0.42071106
C        0.58528731      -0.88176205       0.53082229
O        0.34751657      -2.16785671       0.56348787
C        1.44938091       0.16858497      -0.16871744
C        0.29294381       1.16493196      -0.12123075
O        0.03778684       1.71779195      -1.38736632
H       -2.48090015       0.30171050      -0.70864216
H       -2.19410924      -1.33222469      -0.16361150
H       -1.24883311      -0.69287857      -1.51562344
H       -1.10565326       0.30052843       1.37880446
H        1.48138032      -0.92861132       1.81841100
H        1.34731533      -1.92522670       1.54180693
H        2.39265078       0.52166163       0.24730352
H        1.65831346      -0.16590489      -1.18582607
H        0.45322015       1.95614648       0.61854266
H       -0.67413062       2.35591342      -1.31482309
17
Frame=9 idx=010323 GeodesicLength=1.035822918454895 rxn_smarts="[C:1]([C@@:2]1([H:11])[C@:3]([O:4][H:13])([H:12])[C:5]([H:14])([H:15])[C@:6]1([O:7][H:17])[H:16])([H:8])([H:9])[H:10]>>[C:1]([C@@:2]1([H:11])[C:3](=[O:4])[C:5]([H:14])([H:15])[C@:6]1([O:7][H:17])[H:16])([H:8])([H:9])[H:10].[H:12][H:13]"
C       -1.71046274      -0.43520749      -0.54965867
C       -0.64943191       0.05815801       0.41853460
C        0.58005304      -0.87329400       0.53541309
O        0.31510439      -2.15366799       0.58478174
C        1.44977031       0.18676863      -0.14216470
C        0.28389438       1.17193353      -0.12838461
O        0.04461181       1.69811233      -1.40926793
H       -2.48899388       0.31291510      -0.70908328
H       -2.21459221      -1.31573278      -0.15113084
H       -1.26238789      -0.69775620      -1.50857599
H       -1.10735643       0.31560648       1.37690780
H        1.54513820      -0.99514581       1.79105367
H        1.39141178      -1.99784607       1.50785414
H        2.37507728       0.55903616       0.29758720
H        1.69668151      -0.14357155      -1.15182892
H        0.42541847       1.97862678       0.59839278
H       -0.67393609       2.33106485      -1.36043007
17
Frame=10 idx=010323 GeodesicLength=1.1496724955195865 rxn_smarts="[C:1]([C@@:2]1([H:11])[C@:3]([O:4][H:13])([H:12])[C:5]([H:14])([H:15])[C@:6]1([O:7][H:17])[H:16])([H:8])([H:9])[H:10]>>[C:1]([C@@:2]1([H:11])[C:3](=[O:4])[C:5]([H:14])([H:15])[C@:6]1([O:7][H:17])[H:16])([H:8])([H:9])[H:10].[H:12][H:13]"
C       -1.72221968      -0.42727434      -0.54469149
C       -0.65606057       0.06744000       0.41710946
C        0.57412477      -0.86267108       0.54309700
O        0.28338960      -2.13675881       0.61204386
C        1.44931287       0.20663224      -0.11271538
C        0.27444125       1.17975785      -0.13570330
O        0.05261321       1.67658256      -1.43172294
H       -2.49679622       0.32354381      -0.71097757
H       -2.23476367      -1.29881919      -0.13717692
H       -1.27493197      -0.70423798      -1.49997164
H       -1.11069964       0.33361661       1.37495586
H        1.61393784      -1.06706269       1.75299289
H        1.43354862      -2.07556178       1.46600716
H        2.35464619       0.59808156       0.35200660
H        1.73550931      -0.11976815      -1.11298611
H        0.39628388       2.00279900       0.57616541
H       -0.67233578       2.30370038      -1.40843288
17
Frame=11 idx=010323 GeodesicLength=1.2629589751794879 rxn_smarts="[C:1]([C@@:2]1([H:11])[C@:3]([O:4][H:13])([H:12])[C:5]([H:14])([H:15])[C@:6]1([O:7][H:17])[H:16])([H:8])([H:9])[H:10]>>[C:1]([C@@:2]1([H:11])[C:3](=[O:4])[C:5]([H:14])([H:15])[C@:6]1([O:7][H:17])[H:16])([H:8])([H:9])[H:10].[H:12][H:13]"
C       -1.73353751      -0.41973493      -0.53876481
C       -0.66338206       0.07855651       0.41666037
C        0.56779368      -0.84939704       0.55453330
O        0.25307617      -2.11670654       0.64516709
C        1.44811782       0.22873910      -0.07984427
C        0.26465464       1.18852214      -0.14326016
O        0.06204586       1.65265305      -1.45479893
H       -2.50417714       0.33315812      -0.71413958
H       -2.25426125      -1.28161180      -0.12110368
H       -1.28614579      -0.71278104      -1.48923485
H       -1.11561128       0.35502321       1.37301957
H        1.68780696      -1.14497427       1.70068092
H        1.47082938      -2.15880254       1.41595018
H        2.33100348       0.63923189       0.41159193
H        1.77523826      -0.09380391      -1.06848838
H        0.36567643       2.02896293       0.55132157
H       -0.66912766       2.27296513      -1.45929027
17
Frame=12 idx=010323 GeodesicLength=1.3752093197927033 rxn_smarts="[C:1]([C@@:2]1([H:11])[C@:3]([O:4][H:13])([H:12])[C:5]([H:14])([H:15])[C@:6]1([O:7][H:17])[H:16])([H:8])([H:9])[H:10]>>[C:1]([C@@:2]1([H:11])[C:3](=[O:4])[C:5]([H:14])([H:15])[C@:6]1([O:7][H:17])[H:16])([H:8])([H:9])[H:10].[H:12][H:13]"
C       -1.74383195      -0.41300180      -0.53208885
C       -0.67154775       0.09168815       0.41745183
C        0.56089341      -0.83296758       0.57109782
O        0.22414689      -2.09284529       0.68745047
C        1.44590004       0.25306573      -0.04334031
C        0.25467879       1.19822403      -0.15060981
O        0.07325218       1.62634509      -1.47772288
H       -2.51055420       0.34104705      -0.71956747
H       -2.27252302      -1.26450390      -0.10326971
H       -1.29479490      -0.72398286      -1.47610961
H       -1.12290966       0.38042279       1.37087749
H        1.76642930      -1.22843273       1.62930710
H        1.50196893      -2.24678010       1.35643297
H        2.30391902       0.68213423       0.47609376
H        1.81485933      -0.06601593      -1.01801021
H        0.33398866       2.05694231       0.52412851
H       -0.66387508       2.23866082      -1.51212108
17
Frame=13 idx=010323 GeodesicLength=1.4865718715377938 rxn_smarts="[C:1]([C@@:2]1([H:11])[C@:3]([O:4][H:13])([H:12])[C:5]([H:14])([H:15])[C@:6]1([O:7][H:17])[H:16])([H:8])([H:9])[H:10]>>[C:1]([C@@:2]1([H:11])[C:3](=[O:4])[C:5]([H:14])([H:15])[C@:6]1([O:7][H:17])[H:16])([H:8])([H:9])[H:10].[H:12][H:13]"
C       -1.75250095      -0.40772617      -0.52433809
C       -0.68028333       0.10705643       0.41978738
C        0.55391280      -0.81263995       0.59391804
O        0.19756654      -2.06441389       0.74021538
C        1.44296258       0.28030113      -0.00272913
C        0.24478453       1.20906699      -0.15762399
O        0.08655531       1.59734979      -1.50019472
H       -2.51556273       0.34611141      -0.72746068
H       -2.28879196      -1.24811821      -0.08310423
H       -1.29989107      -0.73877109      -1.45984786
H       -1.13269872       0.41037476       1.36847097
H        1.84777914      -1.31788501       1.53237730
H        1.52299887      -2.33928409       1.28774568
H        2.27347759       0.72709112       0.54628405
H        1.85461699      -0.03557308      -0.96095702
H        0.30142425       2.08700288       0.49430597
H       -0.65634983       2.20005695      -1.56684905
17
Frame=14 idx=010323 GeodesicLength=1.596584164022441 rxn_smarts="[C:1]([C@@:2]1([H:11])[C@:3]([O:4][H:13])([H:12])[C:5]([H:14])([H:15])[C@:6]1([O:7][H:17])[H:16])([H:8])([H:9])[H:10]>>[C:1]([C@@:2]1([H:11])[C:3](=[O:4])[C:5]([H:14])([H:15])[C@:6]1([O:7][H:17])[H:16])([H:8])([H:9])[H:10].[H:12][H:13]"
C       -1.75806599      -0.40500012      -0.51537473
C       -0.68919333       0.12483063       0.42402805
C        0.54734373      -0.78725262       0.62465106
O        0.17453990      -2.02985979       0.80660242
C        1.43941443       0.31097569       0.04201919
C        0.23535079       1.22116316      -0.16379959
O        0.10209180       1.56573525      -1.52126382
H       -2.51804199       0.34632156      -0.73852911
H       -2.30116620      -1.23368911      -0.06048129
H       -1.29913276      -0.75830950      -1.43962931
H       -1.14539671       0.44529412       1.36551228
H        1.92667134      -1.41327085       1.40096481
H        1.52923956      -2.43475195       1.21117520
H        2.24015226       0.77379501       0.62156345
H        1.89356025      -0.00191161      -0.89754470
H        0.26871409       2.11884647       0.46220099
H       -0.64608120       2.15708368      -1.62209490
17
Frame=15 idx=010323 GeodesicLength=1.7049408429461097 rxn_smarts="[C:1]([C@@:2]1([H:11])[C@:3]([O:4][H:13])([H:12])[C:5]([H:14])([H:15])[C@:6]1([O:7][H:17])[H:16])([H:8])([H:9])[H:10]>>[C:1]([C@@:2]1([H:11])[C:3](=[O:4])[C:5]([H:14])([H:15])[C@:6]1([O:7][H:17])[H:16])([H:8])([H:9])[H:10].[H:12][H:13]"
C       -1.75944990      -0.40585867      -0.50508350
C       -0.69736974       0.14439701       0.43012711
C        0.54217254      -0.75688251       0.66246371
O        0.15841406      -1.98954509       0.88606847
C        1.43626540       0.34501241       0.09001544
C        0.22722962       1.23433356      -0.16859017
O        0.12006987       1.53225391      -1.53967053
H       -2.51733511       0.34017240      -0.75207477
H       -2.30787016      -1.22290329      -0.03567818
H       -1.29132403      -0.78280948      -1.41534959
H       -1.16017200       0.48408611       1.36189935
H        1.99129090      -1.51204115       1.22883909
H        1.51700574      -2.52921787       1.13314659
H        2.20566070       0.82177007       0.70027275
H        1.93174140       0.03561549      -0.82939993
H        0.23704553       2.15183700       0.42878343
H       -0.63337480       2.10978008      -1.67576927
17
Frame=16 idx=010323 GeodesicLength=1.8112153344397093 rxn_smarts="[C:1]([C@@:2]1([H:11])[C@:3]([O:4][H:13])([H:12])[C:5]([H:14])([H:15])[C@:6]1([O:7][H:17])[H:16])([H:8])([H:9])[H:10]>>[C:1]([C@@:2]1([H:11])[C:3](=[O:4])[C:5]([H:14])([H:15])[C@:6]1([O:7][H:17])[H:16])([H:8])([H:9])[H:10].[H:12][H:13]"
C       -1.75655169      -0.41027875      -0.49279654
C       -0.70343836       0.16419061       0.43760831
C        0.53954713      -0.72294955       0.70393069
O        0.15381777      -1.94699444       0.96768315
C        1.43467540       0.38181806       0.13969621
C        0.22131285       1.24763118      -0.17215973
O        0.14076499       1.49720318      -1.55496055
H       -2.51347598       0.32796519      -0.76489241
H       -2.30785653      -1.21654671      -0.00829434
H       -1.27778502      -0.81035699      -1.38751700
H       -1.17421727       0.52325570       1.35826976
H        2.02414627      -1.60941890       1.01893799
H        1.48833503      -2.61655756       1.06470772
H        2.17106365       0.87044911       0.78064899
H        1.97042848       0.07831744      -0.75860632
H        0.20726115       2.18425987       0.39445847
H       -0.61802786       2.05801256      -1.72671439
