17
Frame=0 idx=009815 GeodesicLength=0.0 rxn_smarts="[C:1]1([H:8])([H:9])[C:2]([H:10])([H:11])[O:3][C:4]([H:12])([H:13])[C:5]([H:14])=[C:6]([H:15])[C:7]1([H:16])[H:17]>>[C:1]1([H:8])([H:9])[C:2]([H:10])([H:11])[O:3][C:4]([H:12])([H:13])[C:5][C:6]([H:14])([H:15])[C:7]1([H:16])[H:17]"
C       -1.30617251      -0.21417487       0.31634236
C       -0.61963305      -1.45717469      -0.24934472
O        0.68419933      -1.21388449      -0.71561856
C        1.59275729      -0.68234903       0.24047531
C        1.57876648       0.77321330       0.55291312
C        0.49638688       1.53468749       0.10899190
C       -0.86009647       1.05849205      -0.40065854
H       -1.09375626      -0.11073176       1.38439501
H       -2.38807322      -0.34232913       0.22914866
H       -0.61552298      -2.26208727       0.49932627
H       -1.16749143      -1.82048932      -1.12139574
H        1.48765530      -1.18314681       1.21798699
H        2.58391531      -0.95690253      -0.12551794
H        1.50801942       1.52793193      -0.60362359
H        0.52863080       2.59328514       0.37315714
H       -0.82786267       0.89658668      -1.48057139
H       -1.58172224       1.85907333      -0.22600634
17
Frame=1 idx=009815 GeodesicLength=0.03753342909206574 rxn_smarts="[C:1]1([H:8])([H:9])[C:2]([H:10])([H:11])[O:3][C:4]([H:12])([H:13])[C:5]([H:14])=[C:6]([H:15])[C:7]1([H:16])[H:17]>>[C:1]1([H:8])([H:9])[C:2]([H:10])([H:11])[O:3][C:4]([H:12])([H:13])[C:5][C:6]([H:14])([H:15])[C:7]1([H:16])[H:17]"
C       -1.30551469      -0.21387627       0.31670398
C       -0.62066024      -1.45804170      -0.24838323
O        0.68360575      -1.21715181      -0.71527606
C        1.59151950      -0.68379356       0.23940931
C        1.57530144       0.77192506       0.54793120
C        0.49581869       1.53679903       0.10434809
C       -0.86049148       1.05799376      -0.40251066
H       -1.09151626      -0.10958476       1.38440848
H       -2.38756282      -0.34245577       0.23170975
H       -0.61742322      -2.26254075       0.50077129
H       -1.16911483      -1.82113849      -1.12012728
H        1.48693500      -1.18383120       1.21747540
H        2.58355874      -0.95692950      -0.12576137
H        1.52562926       1.53912094      -0.60214228
H        0.52301819       2.59184972       0.38266647
H       -0.82966526       0.89396379      -1.48222519
H       -1.58343776       1.85769152      -0.22899790
17
Frame=2 idx=009815 GeodesicLength=0.07522004285337772 rxn_smarts="[C:1]1([H:8])([H:9])[C:2]([H:10])([H:11])[O:3][C:4]([H:12])([H:13])[C:5]([H:14])=[C:6]([H:15])[C:7]1([H:16])[H:17]>>[C:1]1([H:8])([H:9])[C:2]([H:10])([H:11])[O:3][C:4]([H:12])([H:13])[C:5][C:6]([H:14])([H:15])[C:7]1([H:16])[H:17]"
C       -1.30487608      -0.21357792       0.31707091
C       -0.62171839      -1.45891653      -0.24739708
O        0.68295973      -1.22043939      -0.71495342
C        1.59026256      -0.68521615       0.23825591
C        1.57183565       0.77066732       0.54272073
C        0.49519900       1.53894296       0.09962781
C       -0.86093608       1.05746876      -0.40439916
H       -1.08925351      -0.10840494       1.38440919
H       -2.38706817      -0.34257802       0.23431823
H       -0.61932064      -2.26297470       0.50226547
H       -1.17079573      -1.82182414      -1.11880426
H        1.48622481      -1.18441478       1.21691402
H        2.58316315      -0.95694851      -0.12611861
H        1.54371669       1.55050344      -0.59996169
H        0.51733410       2.59014974       0.39197932
H       -0.83152362       0.89129237      -1.48389978
H       -1.58520349       1.85627050      -0.23202759
17
Frame=3 idx=009815 GeodesicLength=0.11291313854336293 rxn_smarts="[C:1]1([H:8])([H:9])[C:2]([H:10])([H:11])[O:3][C:4]([H:12])([H:13])[C:5]([H:14])=[C:6]([H:15])[C:7]1([H:16])[H:17]>>[C:1]1([H:8])([H:9])[C:2]([H:10])([H:11])[O:3][C:4]([H:12])([H:13])[C:5][C:6]([H:14])([H:15])[C:7]1([H:16])[H:17]"
C       -1.30424730      -0.21327649       0.31744035
C       -0.62279734      -1.45979893      -0.24639016
O        0.68227590      -1.22374711      -0.71464953
C        1.58899365      -0.68662298       0.23703670
C        1.56836453       0.76943460       0.53735277
C        0.49455250       1.54111594       0.09482956
C       -0.86141343       1.05692904      -0.40632330
H       -1.08696830      -0.10719234       1.38440025
H       -2.38658023      -0.34269664       0.23695995
H       -0.62121401      -2.26339381       0.50380402
H       -1.17251779      -1.82254249      -1.11743670
H        1.48552885      -1.18493116       1.21631519
H        2.58274261      -0.95696184      -0.12656288
H        1.56210772       1.56201207      -0.59726172
H        0.51160291       2.58825424       0.40118208
H       -0.83342924       0.88858462      -1.48560196
H       -1.58700102       1.85483329      -0.23509462
17
Frame=4 idx=009815 GeodesicLength=0.15064152559516902 rxn_smarts="[C:1]1([H:8])([H:9])[C:2]([H:10])([H:11])[O:3][C:4]([H:12])([H:13])[C:5]([H:14])=[C:6]([H:15])[C:7]1([H:16])[H:17]>>[C:1]1([H:8])([H:9])[C:2]([H:10])([H:11])[O:3][C:4]([H:12])([H:13])[C:5][C:6]([H:14])([H:15])[C:7]1([H:16])[H:17]"
C       -1.30362914      -0.21297247       0.31781263
C       -0.62389751      -1.46068861      -0.24536233
O        0.68155408      -1.22707425      -0.71436328
C        1.58771286      -0.68801382       0.23575020
C        1.56488904       0.76822423       0.53182353
C        0.49387699       1.54331430       0.08995443
C       -0.86192461       1.05637272      -0.40828205
H       -1.08466123      -0.10594792       1.38438127
H       -2.38610046      -0.34281154       0.23963602
H       -0.62310308      -2.26379744       0.50538630
H       -1.17428184      -1.82329311      -1.11602406
H        1.48484745      -1.18537894       1.21567669
H        2.58229633      -0.95696844      -0.12709673
H        1.58080797       1.57364561      -0.59402771
H        0.50582719       2.58617461       0.41026152
H       -0.83538308       0.88583892      -1.48732953
H       -1.58883096       1.85337614      -0.23819690
17
Frame=5 idx=009815 GeodesicLength=0.18839879860030545 rxn_smarts="[C:1]1([H:8])([H:9])[C:2]([H:10])([H:11])[O:3][C:4]([H:12])([H:13])[C:5]([H:14])=[C:6]([H:15])[C:7]1([H:16])[H:17]>>[C:1]1([H:8])([H:9])[C:2]([H:10])([H:11])[O:3][C:4]([H:12])([H:13])[C:5][C:6]([H:14])([H:15])[C:7]1([H:16])[H:17]"
C       -1.30302118      -0.21266541       0.31818766
C       -0.62501915      -1.46158580      -0.24431247
O        0.68079342      -1.23042202      -0.71409517
C        1.58642039      -0.68938864       0.23439357
C        1.56140873       0.76703559       0.52612960
C        0.49317269       1.54553702       0.08499606
C       -0.86247042       1.05579896      -0.41027752
H       -1.08233032      -0.10466969       1.38435130
H       -2.38562817      -0.34292189       0.24234821
H       -0.62498722      -2.26418485       0.50701455
H       -1.17608930      -1.82407749      -1.11456397
H        1.48418264      -1.18575749       1.21499562
H        2.58182405      -0.95696774      -0.12772468
H        1.59981772       1.58540176      -0.59023608
H        0.50000846       2.58391647       0.41921325
H       -0.83738850       0.88305285      -1.48908409
H       -1.59069384       1.85189835      -0.24133583
17
Frame=6 idx=009815 GeodesicLength=0.22616698245804462 rxn_smarts="[C:1]1([H:8])([H:9])[C:2]([H:10])([H:11])[O:3][C:4]([H:12])([H:13])[C:5]([H:14])=[C:6]([H:15])[C:7]1([H:16])[H:17]>>[C:1]1([H:8])([H:9])[C:2]([H:10])([H:11])[O:3][C:4]([H:12])([H:13])[C:5][C:6]([H:14])([H:15])[C:7]1([H:16])[H:17]"
C       -1.30242282      -0.21235415       0.31856591
C       -0.62616331      -1.46249073      -0.24323861
O        0.67999156      -1.23379205      -0.71384733
C        1.58511619      -0.69074651       0.23296072
C        1.55792473       0.76587017       0.52025818
C        0.49243866       1.54778621       0.07994739
C       -0.86305211       1.05520682      -0.41231343
H       -1.07997184      -0.10335377       1.38430961
H       -2.38516272      -0.34302631       0.24510023
H       -0.62686525      -2.26455425       0.50869281
H       -1.17794357      -1.82489783      -1.11305191
H        1.48353656      -1.18606184       1.21426807
H        2.58132487      -0.95696048      -0.12845485
H        1.61914349       1.59728325      -0.58583743
H        0.49414561       2.58146942       0.42802496
H       -0.83944919       0.88022312      -1.49086886
H       -1.59259088       1.85039893      -0.24451546
17
Frame=7 idx=009815 GeodesicLength=0.26394761810691336 rxn_smarts="[C:1]1([H:8])([H:9])[C:2]([H:10])([H:11])[O:3][C:4]([H:12])([H:13])[C:5]([H:14])=[C:6]([H:15])[C:7]1([H:16])[H:17]>>[C:1]1([H:8])([H:9])[C:2]([H:10])([H:11])[O:3][C:4]([H:12])([H:13])[C:5][C:6]([H:14])([H:15])[C:7]1([H:16])[H:17]"
C       -1.30183386      -0.21203869       0.31894769
C       -0.62733040      -1.46340393      -0.24213972
O        0.67914723      -1.23718560      -0.71362080
C        1.58380029      -0.69208714       0.23144797
C        1.55443760       0.76472810       0.51420228
C        0.49167380       1.55006111       0.07480452
C       -0.86367102       1.05459551      -0.41439156
H       -1.07758368      -0.10199886       1.38425580
H       -2.38470389      -0.34312493       0.24789451
H       -0.62873633      -2.26490521       0.51042313
H       -1.17984641      -1.82575584      -1.11148557
H        1.48291085      -1.18628976       1.21349115
H        2.58079818      -0.95694692      -0.12929244
H        1.63878683       1.60928846      -0.58080020
H        0.48824242       2.57883920       0.43668563
H       -0.84156833       0.87734745      -1.49268517
H       -1.59452328       1.84887707      -0.24773720
17
Frame=8 idx=009815 GeodesicLength=0.30173058466660013 rxn_smarts="[C:1]1([H:8])([H:9])[C:2]([H:10])([H:11])[O:3][C:4]([H:12])([H:13])[C:5]([H:14])=[C:6]([H:15])[C:7]1([H:16])[H:17]>>[C:1]1([H:8])([H:9])[C:2]([H:10])([H:11])[O:3][C:4]([H:12])([H:13])[C:5][C:6]([H:14])([H:15])[C:7]1([H:16])[H:17]"
C       -1.30125342      -0.21171884       0.31933267
C       -0.62852029      -1.46432589      -0.24101512
O        0.67825990      -1.24060404      -0.71341661
C        1.58247324      -0.69341016       0.22985147
C        1.55094897       0.76360992       0.50795289
C        0.49087708       1.55235954       0.06956009
C       -0.86432874       1.05396401      -0.41651486
H       -1.07516305      -0.10060330       1.38418846
H       -2.38425069      -0.34321785       0.25073343
H       -0.63059909      -2.26523711       0.51220731
H       -1.18179890      -1.82665308      -1.10986282
H        1.48230683      -1.18643749       1.21266223
H        2.58024410      -0.95692865      -0.13024124
H        1.65874460       1.62140513      -0.57509429
H        0.48230317       2.57604273       0.44519370
H       -0.84375113       0.87442317      -1.49453505
H       -1.59649259       1.84733192      -0.25100226
17
Frame=9 idx=009815 GeodesicLength=0.3395514707502737 rxn_smarts="[C:1]1([H:8])([H:9])[C:2]([H:10])([H:11])[O:3][C:4]([H:12])([H:13])[C:5]([H:14])=[C:6]([H:15])[C:7]1([H:16])[H:17]>>[C:1]1([H:8])([H:9])[C:2]([H:10])([H:11])[O:3][C:4]([H:12])([H:13])[C:5][C:6]([H:14])([H:15])[C:7]1([H:16])[H:17]"
C       -1.30068174      -0.21139455       0.31972180
C       -0.62973352      -1.46525664      -0.23986385
O        0.67732817      -1.24404754      -0.71323565
C        1.58113461      -0.69471455       0.22816829
C        1.54745901       0.76251657       0.50150311
C        0.49004569       1.55468311       0.06421613
C       -0.86502670       1.05331203      -0.41868342
H       -1.07270845      -0.09916637       1.38410788
H       -2.38380314      -0.34330508       0.25361920
H       -0.63245260      -2.26554945       0.51404682
H       -1.18380268      -1.82759029      -1.10818168
H        1.48172535      -1.18650186       1.21177919
H        2.57966168      -0.95690489      -0.13130572
H        1.67902321       1.63363486      -0.56869478
H        0.47633041       2.57307243       0.45353206
H       -0.84599865       0.87144957      -1.49641838
H       -1.59850064       1.84576266      -0.25431101
17
Frame=10 idx=009815 GeodesicLength=0.37739438310187107 rxn_smarts="[C:1]1([H:8])([H:9])[C:2]([H:10])([H:11])[O:3][C:4]([H:12])([H:13])[C:5]([H:14])=[C:6]([H:15])[C:7]1([H:16])[H:17]>>[C:1]1([H:8])([H:9])[C:2]([H:10])([H:11])[O:3][C:4]([H:12])([H:13])[C:5][C:6]([H:14])([H:15])[C:7]1([H:16])[H:17]"
C       -1.30011779      -0.21106463       0.32011531
C       -0.63097094      -1.46619648      -0.23868370
O        0.67634951      -1.24751826      -0.71308007
C        1.57978431      -0.69599982       0.22639130
C        1.54396898       0.76144895       0.49483806
C        0.48917856       1.55703241       0.05876281
C       -0.86576686       1.05263779      -0.42090133
H       -1.07021513      -0.09768388       1.38401240
H       -2.38335987      -0.34338482       0.25655640
H       -0.63429517      -2.26584028       0.51594620
H       -1.18586134      -1.82856990      -1.10643683
H        1.48116899      -1.18647743       1.21083676
H        2.57905001      -0.95687728      -0.13249516
H        1.69962697       1.64597770      -0.56154292
H        0.47032539       2.56992654       0.46168607
H       -0.84831618       0.86842221      -1.49833838
H       -1.60054944       1.84416719      -0.25766693
17
Frame=11 idx=009815 GeodesicLength=0.41529387545958096 rxn_smarts="[C:1]1([H:8])([H:9])[C:2]([H:10])([H:11])[O:3][C:4]([H:12])([H:13])[C:5]([H:14])=[C:6]([H:15])[C:7]1([H:16])[H:17]>>[C:1]1([H:8])([H:9])[C:2]([H:10])([H:11])[O:3][C:4]([H:12])([H:13])[C:5][C:6]([H:14])([H:15])[C:7]1([H:16])[H:17]"
C       -1.29956191      -0.21072932       0.32051210
C       -0.63223323      -1.46714646      -0.23747319
O        0.67532261      -1.25101808      -0.71294912
C        1.57842188      -0.69726721       0.22451785
C        1.54047841       0.76040441       0.48795329
C        0.48827283       1.55940493       0.05319719
C       -0.86655095       1.05193893      -0.42317107
H       -1.06768182      -0.09615461       1.38389894
H       -2.38291987      -0.34345534       0.25954610
H       -0.63612585      -2.26610938       0.51790873
H       -1.18797707      -1.82959449      -1.10462539
H        1.48063918      -1.18636302       1.20983213
H        2.57840870      -0.95684589      -0.13381476
H        1.72055662       1.65843815      -0.55361967
H        0.46429770       2.56661845       0.46965304
H       -0.85070592       0.86533741      -1.50029533
H       -1.60264130       1.84254152      -0.26107083
17
Frame=12 idx=009815 GeodesicLength=0.45355068031322937 rxn_smarts="[C:1]1([H:8])([H:9])[C:2]([H:10])([H:11])[O:3][C:4]([H:12])([H:13])[C:5]([H:14])=[C:6]([H:15])[C:7]1([H:16])[H:17]>>[C:1]1([H:8])([H:9])[C:2]([H:10])([H:11])[O:3][C:4]([H:12])([H:13])[C:5][C:6]([H:14])([H:15])[C:7]1([H:16])[H:17]"
C       -1.29903354      -0.21038526       0.32092630
C       -0.63354896      -1.46811800      -0.23620480
O        0.67420202      -1.25456604      -0.71286249
C        1.57702944      -0.69847967       0.22243549
C        1.53699482       0.75940725       0.48066381
C        0.48728711       1.56182984       0.04751780
C       -0.86742196       1.05121709      -0.42551394
H       -1.06508180      -0.09457939       1.38377497
H       -2.38251328      -0.34353749       0.26262547
H       -0.63793174      -2.26634113       0.51999061
H       -1.19020616      -1.83070162      -1.10269313
H        1.48014956      -1.18610958       1.20873510
H        2.57771134      -0.95676575      -0.13537457
H        1.74214088       1.67107719      -0.54436887
H        0.45821708       2.56303976       0.47725995
H       -0.85317618       0.86212745      -1.50234123
H       -1.60481862       1.84088535      -0.26457046
17
Frame=13 idx=009815 GeodesicLength=0.4913547635371759 rxn_smarts="[C:1]1([H:8])([H:9])[C:2]([H:10])([H:11])[O:3][C:4]([H:12])([H:13])[C:5]([H:14])=[C:6]([H:15])[C:7]1([H:16])[H:17]>>[C:1]1([H:8])([H:9])[C:2]([H:10])([H:11])[O:3][C:4]([H:12])([H:13])[C:5][C:6]([H:14])([H:15])[C:7]1([H:16])[H:17]"
C       -1.29848030      -0.21003181       0.32133313
C       -0.63485958      -1.46908694      -0.23492323
O        0.67306748      -1.25813109      -0.71280954
C        1.57565338      -0.69971750       0.22034884
C        1.53351509       0.75842953       0.47326563
C        0.48630379       1.56425473       0.04165310
C       -0.86829017       1.05045635      -0.42792413
H       -1.06244498      -0.09290636       1.38362559
H       -2.38206468      -0.34357476       0.26575403
H       -0.63973068      -2.26655180       0.52210211
H       -1.19245176      -1.83183674      -1.10071563
H        1.47969842      -1.18577280       1.20756022
H        2.57700797      -0.95676195      -0.13700513
H        1.76371737       1.68373924      -0.53457831
H        0.45210430       2.55936705       0.48481347
H       -0.85575080       0.85893172      -1.50438624
H       -1.60699484       1.83919315      -0.26811390
17
Frame=14 idx=009815 GeodesicLength=0.5291683683833649 rxn_smarts="[C:1]1([H:8])([H:9])[C:2]([H:10])([H:11])[O:3][C:4]([H:12])([H:13])[C:5]([H:14])=[C:6]([H:15])[C:7]1([H:16])[H:17]>>[C:1]1([H:8])([H:9])[C:2]([H:10])([H:11])[O:3][C:4]([H:12])([H:13])[C:5][C:6]([H:14])([H:15])[C:7]1([H:16])[H:17]"
C       -1.29793300      -0.20966312       0.32174673
C       -0.63620180      -1.47006925      -0.23359774
O        0.67187367      -1.26173814      -0.71278470
C        1.57426497      -0.70092364       0.21811863
C        1.53004021       0.75747492       0.46558863
C        0.48528870       1.56670985       0.03565446
C       -0.86920389       1.04967567      -0.43040079
H       -1.05974589      -0.09117731       1.38345716
H       -2.38162324      -0.34359990       0.26894664
H       -0.64151123      -2.26672963       0.52430315
H       -1.19477338      -1.83302959      -1.09864581
H        1.47928420      -1.18533746       1.20631345
H        2.57627141      -0.95673825      -0.13881032
H        1.78560871       1.69650567      -0.52381643
H        0.44596762       2.55551645       0.49215898
H       -0.85839361       0.85564494      -1.50649858
H       -1.60921346       1.83747879      -0.27173346
17
Frame=15 idx=009815 GeodesicLength=0.5669440442584102 rxn_smarts="[C:1]1([H:8])([H:9])[C:2]([H:10])([H:11])[O:3][C:4]([H:12])([H:13])[C:5]([H:14])=[C:6]([H:15])[C:7]1([H:16])[H:17]>>[C:1]1([H:8])([H:9])[C:2]([H:10])([H:11])[O:3][C:4]([H:12])([H:13])[C:5][C:6]([H:14])([H:15])[C:7]1([H:16])[H:17]"
C       -1.29738756      -0.20927764       0.32216607
C       -0.63757331      -1.47106130      -0.23222661
O        0.67061949      -1.26538644      -0.71279310
C        1.57286627      -0.70210275       0.21574580
C        1.52657552       0.75654624       0.45761696
C        0.48423854       1.56919359       0.02950096
C       -0.87016478       1.04886982      -0.43295450
H       -1.05697807      -0.08937814       1.38326650
H       -2.38118173      -0.34360669       0.27221336
H       -0.64327050      -2.26687038       0.52659913
H       -1.19717207      -1.83428173      -1.09647774
H        1.47891515      -1.18479368       1.20497956
H        2.57550233      -0.95670175      -0.14079990
H        1.80779588       1.70935614      -0.51200597
H        0.43980796       2.55148769       0.49928319
H       -0.86111675       0.85227008      -1.50867698
H       -1.61147636       1.83573694      -0.27543674
17
Frame=16 idx=009815 GeodesicLength=0.6047109351929214 rxn_smarts="[C:1]1([H:8])([H:9])[C:2]([H:10])([H:11])[O:3][C:4]([H:12])([H:13])[C:5]([H:14])=[C:6]([H:15])[C:7]1([H:16])[H:17]>>[C:1]1([H:8])([H:9])[C:2]([H:10])([H:11])[O:3][C:4]([H:12])([H:13])[C:5][C:6]([H:14])([H:15])[C:7]1([H:16])[H:17]"
C       -1.29684035      -0.20887447       0.32259180
C       -0.63897401      -1.47206450      -0.23080665
O        0.66930119      -1.26907935      -0.71284204
C        1.57145993      -0.70325770       0.21322462
C        1.52312502       0.75565069       0.44932088
C        0.48314758       1.57170687       0.02317445
C       -0.87117418       1.04803316      -0.43559459
H       -1.05413437      -0.08749595       1.38305121
H       -2.38073459      -0.34359097       0.27556447
H       -0.64500631      -2.26697181       0.52899508
H       -1.19965258      -1.83559893      -1.09420204
H        1.47859595      -1.18412108       1.20354770
H        2.57469898      -0.95667028      -0.14298719
H        1.83029081       1.72228634      -0.49905891
H        0.43361820       2.54727909       0.50617592
H       -0.86393391       0.84880757      -1.51092207
H       -1.61378735       1.83396134      -0.27923263
