13
Frame=0 idx=005011 GeodesicLength=0.0 rxn_smarts="[O:1]([C@@:2]1([H:8])[C:3]([H:9])([H:10])[N:4]2[C:5]([H:11])([H:12])[C@@:6]12[H:13])[H:7]>>[O:1]([C+:2]([C:3]([H:8])([H:9])[H:10])[C@@:6]1([H:13])[N-:4][C:5]1([H:11])[H:12])[H:7]"
O       -1.45835097      -0.90543297       0.98044921
C       -0.81913573      -0.01647231       0.15336224
C       -0.74102271       1.35668482       0.49891999
N        1.24992979       0.64873619      -0.94711679
C        1.64755719      -0.48427428      -0.19542719
C        0.26063256      -0.41208472      -0.74863205
H       -0.98556651      -1.74028264       0.91779304
H       -1.71215121       0.55859849      -0.43942181
H       -1.18918647       1.74452690       1.41031507
H       -0.35359823       2.00783207      -0.26802539
H        1.86868688      -0.38157837       0.87085626
H        2.22761301      -1.28493461      -0.66781039
H        0.00459239      -1.09131856      -1.56526217
13
Frame=1 idx=005011 GeodesicLength=0.06783268142921066 rxn_smarts="[O:1]([C@@:2]1([H:8])[C:3]([H:9])([H:10])[N:4]2[C:5]([H:11])([H:12])[C@@:6]12[H:13])[H:7]>>[O:1]([C+:2]([C:3]([H:8])([H:9])[H:10])[C@@:6]1([H:13])[N-:4][C:5]1([H:11])[H:12])[H:7]"
O       -1.47041195      -0.91015533       0.96943422
C       -0.82847979      -0.02750462       0.13940459
C       -0.72411209       1.34735940       0.48847752
N        1.23172400       0.65176862      -0.94277777
C        1.64230912      -0.47352682      -0.18857545
C        0.25678895      -0.42536950      -0.75255339
H       -0.99396357      -1.74392275       0.92124989
H       -1.72383714       0.58280607      -0.43699911
H       -1.12961723       1.72484851       1.42411371
H       -0.36526881       2.01622403      -0.27710023
H        1.85413101      -0.36560940       0.87916952
H        2.23739159      -1.26466513      -0.65780702
H        0.01334590      -1.11225308      -1.56603647
13
Frame=2 idx=005011 GeodesicLength=0.13579980394664753 rxn_smarts="[O:1]([C@@:2]1([H:8])[C:3]([H:9])([H:10])[N:4]2[C:5]([H:11])([H:12])[C@@:6]12[H:13])[H:7]>>[O:1]([C+:2]([C:3]([H:8])([H:9])[H:10])[C@@:6]1([H:13])[N-:4][C:5]1([H:11])[H:12])[H:7]"
O       -1.48206127      -0.91467274       0.95832009
C       -0.83783981      -0.03822175       0.12519647
C       -0.70799298       1.33799094       0.47787735
N        1.21348908       0.65440085      -0.93905787
C        1.63674725      -0.46283269      -0.18203505
C        0.25303737      -0.43849548      -0.75638590
H       -1.00136942      -1.74677746       0.92543608
H       -1.73499412       0.60713463      -0.43392215
H       -1.07162047       1.70396632       1.43525406
H       -0.37533031       2.02492514      -0.28344970
H        1.83937829      -0.34970982       0.88698814
H        2.24634674      -1.24453240      -0.64791103
H        0.02220965      -1.13317553      -1.56631048
13
Frame=3 idx=005011 GeodesicLength=0.20385930276664255 rxn_smarts="[O:1]([C@@:2]1([H:8])[C:3]([H:9])([H:10])[N:4]2[C:5]([H:11])([H:12])[C@@:6]12[H:13])[H:7]>>[O:1]([C+:2]([C:3]([H:8])([H:9])[H:10])[C@@:6]1([H:13])[N-:4][C:5]1([H:11])[H:12])[H:7]"
O       -1.49339012      -0.91899854       0.94729065
C       -0.84721946      -0.04863198       0.11082944
C       -0.69259878       1.32861515       0.46718968
N        1.19538725       0.65665690      -0.93599801
C        1.63106467      -0.45221521      -0.17581321
C        0.24941323      -0.45146882      -0.76014104
H       -1.00812054      -1.74895690       0.93023638
H       -1.74572755       0.63156156      -0.43014021
H       -1.01543590       1.68206509       1.44395778
H       -0.38390513       2.03390701      -0.28743078
H        1.82467020      -0.33394302       0.89439686
H        2.25471433      -1.22454455      -0.63821268
H        0.03114781      -1.15404670      -1.56616485
13
Frame=4 idx=005011 GeodesicLength=0.27206215939364736 rxn_smarts="[O:1]([C@@:2]1([H:8])[C:3]([H:9])([H:10])[N:4]2[C:5]([H:11])([H:12])[C@@:6]12[H:13])[H:7]>>[O:1]([C+:2]([C:3]([H:8])([H:9])[H:10])[C@@:6]1([H:13])[N-:4][C:5]1([H:11])[H:12])[H:7]"
O       -1.50428405      -0.92314170       0.93627493
C       -0.85652094      -0.05875382       0.09632832
C       -0.67783466       1.31925295       0.45642470
N        1.17736317       0.65854428      -0.93347458
C        1.62519080      -0.44166860      -0.16989461
C        0.24591789      -0.46430822      -0.76375401
H       -1.01422345      -1.75047785       0.93546632
H       -1.75589842       0.65602310      -0.42558315
H       -0.96111164       1.65929261       1.45031150
H       -0.39109295       2.04310277      -0.28922791
H        1.80992463      -0.31830419       0.90135055
H        2.26239821      -1.20468680      -0.62871799
H        0.04017143      -1.17487455      -1.56550408
13
Frame=5 idx=005011 GeodesicLength=0.3404070086996463 rxn_smarts="[O:1]([C@@:2]1([H:8])[C:3]([H:9])([H:10])[N:4]2[C:5]([H:11])([H:12])[C@@:6]12[H:13])[H:7]>>[O:1]([C+:2]([C:3]([H:8])([H:9])[H:10])[C@@:6]1([H:13])[N-:4][C:5]1([H:11])[H:12])[H:7]"
O       -1.51490426      -0.92712971       0.92521454
C       -0.86579055      -0.06859792       0.08167668
C       -0.66372146       1.30991163       0.44559251
N        1.15945422       0.66006966      -0.93153955
C        1.61920252      -0.43118851      -0.16427889
C        0.24255630      -0.47703292      -0.76725388
H       -1.01975742      -1.75130314       0.94122162
H       -1.76556183       0.68054446      -0.42033239
H       -0.90858435       1.63565064       1.45462444
H       -0.39697456       2.05248575      -0.28902506
H        1.79523415      -0.30277293       0.90788877
H        2.26954602      -1.18495636      -0.61942454
H        0.04930121      -1.19568068      -1.56436425
13
Frame=6 idx=005011 GeodesicLength=0.4088791559967033 rxn_smarts="[O:1]([C@@:2]1([H:8])[C:3]([H:9])([H:10])[N:4]2[C:5]([H:11])([H:12])[C@@:6]12[H:13])[H:7]>>[O:1]([C+:2]([C:3]([H:8])([H:9])[H:10])[C@@:6]1([H:13])[N-:4][C:5]1([H:11])[H:12])[H:7]"
O       -1.52517476      -0.93097712       0.91418577
C       -0.87495472      -0.07818283       0.06694868
C       -0.65016984       1.30062551       0.43471635
N        1.14169788       0.66125478      -0.93011810
C        1.61313233      -0.42079783      -0.15896944
C        0.23934367      -0.48964557      -0.77060738
H       -1.02483427      -1.75151888       0.94734176
H       -1.77466291       0.70505621      -0.41432016
H       -0.85808549       1.61138040       1.45696015
H       -0.40161746       2.06199396      -0.28700466
H        1.78065334      -0.28739734       0.91400940
H        2.27616325      -1.16537906      -0.61039251
H        0.05850898      -1.21641224      -1.56274988
13
Frame=7 idx=005011 GeodesicLength=0.4774973698001655 rxn_smarts="[O:1]([C@@:2]1([H:8])[C:3]([H:9])([H:10])[N:4]2[C:5]([H:11])([H:12])[C@@:6]12[H:13])[H:7]>>[O:1]([C+:2]([C:3]([H:8])([H:9])[H:10])[C@@:6]1([H:13])[N-:4][C:5]1([H:11])[H:12])[H:7]"
O       -1.53511618      -0.93466981       0.90314988
C       -0.88399476      -0.08751886       0.05215457
C       -0.63715180       1.29139506       0.42379505
N        1.12407104       0.66208848      -0.92919209
C        1.60699197      -0.41048466      -0.15396477
C        0.23628606      -0.50216746      -0.77378700
H       -1.02955173      -1.75113146       0.95371672
H       -1.78318297       0.72954424      -0.40753209
H       -0.80956548       1.58656407       1.45748259
H       -0.40510908       2.07154759      -0.28329235
H        1.76619761      -0.27214330       0.91969487
H        2.28230352      -1.14592450      -0.60162466
H        0.06782182      -1.23709939      -1.56060072
13
Frame=8 idx=005011 GeodesicLength=0.5462968684965438 rxn_smarts="[O:1]([C@@:2]1([H:8])[C:3]([H:9])([H:10])[N:4]2[C:5]([H:11])([H:12])[C@@:6]12[H:13])[H:7]>>[O:1]([C+:2]([C:3]([H:8])([H:9])[H:10])[C@@:6]1([H:13])[N-:4][C:5]1([H:11])[H:12])[H:7]"
O       -1.54483043      -0.93825506       0.89204111
C       -0.89292927      -0.09663476       0.03727339
C       -0.62465176       1.28222986       0.41282507
N        1.10657158       0.66259995      -0.92877690
C        1.60079488      -0.40021134      -0.14925700
C        0.23337281      -0.51461928      -0.77680418
H       -1.03398228      -1.75013803       0.96039037
H       -1.79112633       0.75398565      -0.40003127
H       -0.76289742       1.56121782       1.45639891
H       -0.40746520       2.08111254      -0.27799791
H        1.75188561      -0.25695852       0.92497695
H        2.28801756      -1.12653766      -0.59311971
H        0.07724025      -1.25779116      -1.55791881
13
Frame=9 idx=005011 GeodesicLength=0.6152781139753309 rxn_smarts="[O:1]([C@@:2]1([H:8])[C:3]([H:9])([H:10])[N:4]2[C:5]([H:11])([H:12])[C@@:6]12[H:13])[H:7]>>[O:1]([C+:2]([C:3]([H:8])([H:9])[H:10])[C@@:6]1([H:13])[N-:4][C:5]1([H:11])[H:12])[H:7]"
O       -1.55440574      -0.94176961       0.88089423
C       -0.90177491      -0.10555708       0.02231472
C       -0.61261406       1.27313959       0.40181159
N        1.08924105       0.66282039      -0.92890459
C        1.59460760      -0.38994782      -0.14484337
C        0.23060197      -0.52701714      -0.77966664
H       -1.03830641      -1.74861364       0.96730187
H       -1.79853409       0.77835844      -0.39181628
H       -0.71804305       1.53544507       1.45387546
H       -0.40872784       2.09064097      -0.27125940
H        1.73779941      -0.24181020       0.92990157
H        2.29340816      -1.10716585      -0.58489771
H        0.08674789      -1.27852312      -1.55471146
13
Frame=10 idx=005011 GeodesicLength=0.6845369517001256 rxn_smarts="[O:1]([C@@:2]1([H:8])[C:3]([H:9])([H:10])[N:4]2[C:5]([H:11])([H:12])[C@@:6]12[H:13])[H:7]>>[O:1]([C+:2]([C:3]([H:8])([H:9])[H:10])[C@@:6]1([H:13])[N-:4][C:5]1([H:11])[H:12])[H:7]"
O       -1.56371089      -0.94512019       0.86945179
C       -0.91044253      -0.11426244       0.00724745
C       -0.60108233       1.26410024       0.39075717
N        1.07189463       0.66265889      -0.92944731
C        1.58827193      -0.37972574      -0.14075066
C        0.22799213      -0.53938579      -0.78229669
H       -1.04228480      -1.74632594       0.97442527
H       -1.80523128       0.80269382      -0.38286598
H       -0.67502419       1.50919772       1.44991786
H       -0.40894672       2.10001270      -0.26298199
H        1.72375205      -0.22668773       0.93429529
H        2.29833211      -1.08783505      -0.57696171
H        0.09647989      -1.29932050      -1.55079049
13
Frame=11 idx=005011 GeodesicLength=0.7539748319370789 rxn_smarts="[O:1]([C@@:2]1([H:8])[C:3]([H:9])([H:10])[N:4]2[C:5]([H:11])([H:12])[C@@:6]12[H:13])[H:7]>>[O:1]([C+:2]([C:3]([H:8])([H:9])[H:10])[C@@:6]1([H:13])[N-:4][C:5]1([H:11])[H:12])[H:7]"
O       -1.57294948      -0.94842988       0.85795797
C       -0.91900847      -0.12280774      -0.00786936
C       -0.58997412       1.25515624       0.37965856
N        1.05472651       0.66223394      -0.93050809
C        1.58199547      -0.36949825      -0.13695999
C        0.22552897      -0.55171270      -0.78475642
H       -1.04632324      -1.74354503       0.98173549
H       -1.81139139       0.82691288      -0.37323529
H       -0.63382547       1.48266664       1.44475636
H       -0.40811965       2.10923547      -0.25343902
H        1.71001328      -0.21158104       0.93833875
H        2.30302399      -1.06847409      -0.56936136
H        0.10630359      -1.32015644      -1.54631761
13
Frame=12 idx=005011 GeodesicLength=0.8236560910148898 rxn_smarts="[O:1]([C@@:2]1([H:8])[C:3]([H:9])([H:10])[N:4]2[C:5]([H:11])([H:12])[C@@:6]12[H:13])[H:7]>>[O:1]([C+:2]([C:3]([H:8])([H:9])[H:10])[C@@:6]1([H:13])[N-:4][C:5]1([H:11])[H:12])[H:7]"
O       -1.58200149      -0.95165461       0.84631856
C       -0.92739257      -0.13119715      -0.02303196
C       -0.57926734       1.24630882       0.36850576
N        1.03766123       0.66151186      -0.93197235
C        1.57568823      -0.35928009      -0.13347161
C        0.22321962      -0.56400592      -0.78699890
H       -1.05033134      -1.74019915       0.98911291
H       -1.81690121       0.85097721      -0.36287643
H       -0.59446507       1.45595196       1.43841389
H       -0.40631200       2.11819832      -0.24264702
H        1.69646982      -0.19649673       0.94196419
H        2.30737203      -1.04908954      -0.56210841
H        0.11626010      -1.34102496      -1.54120862
13
Frame=13 idx=005011 GeodesicLength=0.8935169653484205 rxn_smarts="[O:1]([C@@:2]1([H:8])[C:3]([H:9])([H:10])[N:4]2[C:5]([H:11])([H:12])[C@@:6]12[H:13])[H:7]>>[O:1]([C+:2]([C:3]([H:8])([H:9])[H:10])[C@@:6]1([H:13])[N-:4][C:5]1([H:11])[H:12])[H:7]"
O       -1.59090848      -0.95481722       0.83459988
C       -0.93560763      -0.13944437      -0.03820907
C       -0.56896474       1.23757831       0.35729065
N        1.02074851       0.66052366      -0.93383509
C        1.56942186      -0.34908807      -0.13029092
C        0.22107451      -0.57624810      -0.78903574
H       -1.05438677      -1.73634693       0.99657110
H       -1.82181708       0.87487272      -0.35181986
H       -0.55701388       1.42915906       1.43100523
H       -0.40355112       2.12686576      -0.23072682
H        1.68320341      -0.18148368       0.94520035
H        2.31146337      -1.02971000      -0.55523777
H        0.12633801      -1.36186112      -1.53551194
13
Frame=14 idx=005011 GeodesicLength=0.963553724384958 rxn_smarts="[O:1]([C@@:2]1([H:8])[C:3]([H:9])([H:10])[N:4]2[C:5]([H:11])([H:12])[C@@:6]12[H:13])[H:7]>>[O:1]([C+:2]([C:3]([H:8])([H:9])[H:10])[C@@:6]1([H:13])[N-:4][C:5]1([H:11])[H:12])[H:7]"
O       -1.59962008      -0.95792329       0.82279194
C       -0.94361558      -0.14756792      -0.05338346
C       -0.55904408       1.22897675       0.34600659
N        1.00398402       0.65927585      -0.93603171
C        1.56317661      -0.33893384      -0.12741706
C        0.21909391      -0.58843183      -0.79086224
H       -1.05845819      -1.73197832       1.00408307
H       -1.82609301       0.89855840      -0.34007769
H       -0.52154264       1.40240057       1.42261114
H       -0.39985188       2.13516398      -0.21774541
H        1.67018866      -0.16655960       0.94803882
H        2.31525434      -1.01035836      -0.54876992
H        0.13652791      -1.38262239      -1.52924408
13
Frame=15 idx=005011 GeodesicLength=1.0337264759361036 rxn_smarts="[O:1]([C@@:2]1([H:8])[C:3]([H:9])([H:10])[N:4]2[C:5]([H:11])([H:12])[C@@:6]12[H:13])[H:7]>>[O:1]([C+:2]([C:3]([H:8])([H:9])[H:10])[C@@:6]1([H:13])[N-:4][C:5]1([H:11])[H:12])[H:7]"
O       -1.60813011      -0.96098945       0.81093779
C       -0.95140922      -0.15558481      -0.06853345
C       -0.54949142       1.22052177       0.33463706
N        0.98740276       0.65779224      -0.93852579
C        1.55698055      -0.32883243      -0.12484029
C        0.21728037      -0.60053940      -0.79248700
H       -1.06257135      -1.72713725       1.01161893
H       -1.82975284       0.92200609      -0.32765651
H       -0.48806967       1.37579321       1.41332687
H       -0.39526466       2.14303937      -0.20381814
H        1.65744764      -0.15175718       0.95050677
H        2.31876842      -0.99106523      -0.54271345
H        0.14680953      -1.40324692      -1.52245279
13
Frame=16 idx=005011 GeodesicLength=1.1040122052025134 rxn_smarts="[O:1]([C@@:2]1([H:8])[C:3]([H:9])([H:10])[N:4]2[C:5]([H:11])([H:12])[C@@:6]12[H:13])[H:7]>>[O:1]([C+:2]([C:3]([H:8])([H:9])[H:10])[C@@:6]1([H:13])[N-:4][C:5]1([H:11])[H:12])[H:7]"
O       -1.61641597      -0.96402374       0.79906016
C       -0.95897388      -0.16351196      -0.08364117
C       -0.54029862       1.21222851       0.32316876
N        0.97101865       0.65608813      -0.94127400
C        1.55083620      -0.31879332      -0.12254798
C        0.21563481      -0.61255691      -0.79391473
H       -1.06672940      -1.72185247       1.01914062
H       -1.83279981       0.94518892      -0.31456453
H       -0.45657518       1.34943171       1.40323968
H       -0.38984029       2.15043272      -0.18904675
H        1.64497159      -0.13708963       0.95262174
H        2.32200064      -0.97186028      -0.53706308
H        0.15717126      -1.42368168      -1.51517872
