10
Frame=0 idx=000374 GeodesicLength=0.0 rxn_smarts="[N:1]([c:2]1[n:3][c:4]([H:9])[n:5][n:6]1[H:10])([H:7])[H:8]>>[N:1](=[c:2]1/[n:3]([H:8])[c:4]([H:9])[n:5][n:6]1[H:10])\[H:7]"
N       -1.82029442      -0.18878820      -0.11359696
C       -0.54815220       0.14437173      -0.04529012
N        0.14664933      -0.99629692       0.11180584
C        1.45350246      -0.63362536       0.11053989
N        1.62783079       0.65094972      -0.00813208
N        0.33743924       1.14457654      -0.10401428
H       -2.57570072       0.46766878      -0.02994242
H       -1.08489991      -1.39482087       0.09511713
H        2.27822948      -1.32054538       0.21087403
H        0.18539595       2.12650996      -0.22736103
10
Frame=1 idx=000374 GeodesicLength=0.03478212796204982 rxn_smarts="[N:1]([c:2]1[n:3][c:4]([H:9])[n:5][n:6]1[H:10])([H:7])[H:8]>>[N:1](=[c:2]1/[n:3]([H:8])[c:4]([H:9])[n:5][n:6]1[H:10])\[H:7]"
N       -1.82215989      -0.19056532      -0.11018246
C       -0.54523935       0.13459128      -0.10875608
N        0.14866831      -1.00020316       0.09778866
C        1.45377234      -0.63009985       0.12540374
N        1.62515886       0.65405507       0.00124633
N        0.33467933       1.14264393      -0.10276962
H       -2.55980635       0.48454940      -0.01277826
H       -1.09216657      -1.40277159       0.11565661
H        2.28018296      -1.31691411       0.21206173
H        0.17691037       2.12471434      -0.21767065
10
Frame=2 idx=000374 GeodesicLength=0.06996400623957719 rxn_smarts="[N:1]([c:2]1[n:3][c:4]([H:9])[n:5][n:6]1[H:10])([H:7])[H:8]>>[N:1](=[c:2]1/[n:3]([H:8])[c:4]([H:9])[n:5][n:6]1[H:10])\[H:7]"
N       -1.82215017      -0.19104708      -0.11037209
C       -0.54269565       0.12623993      -0.15264003
N        0.15072545      -1.00409099       0.08647584
C        1.45392858      -0.62734996       0.13427282
N        1.62194049       0.65695360       0.01011579
N        0.33126670       1.13984038      -0.10283754
H       -2.54362437       0.50028326      -0.00208098
H       -1.09911008      -1.40947968       0.13499566
H        2.28211383      -1.31328970       0.21157894
H        0.16760521       2.12194023      -0.20950840
10
Frame=3 idx=000374 GeodesicLength=0.10586231406740726 rxn_smarts="[N:1]([c:2]1[n:3][c:4]([H:9])[n:5][n:6]1[H:10])([H:7])[H:8]>>[N:1](=[c:2]1/[n:3]([H:8])[c:4]([H:9])[n:5][n:6]1[H:10])\[H:7]"
N       -1.82160271      -0.19108126      -0.11317018
C       -0.54046490       0.11912885      -0.18614699
N        0.15280141      -1.00813340       0.07501186
C        1.45418319      -0.62495825       0.14018688
N        1.61871926       0.65956976       0.01706750
N        0.32769012       1.13696163      -0.10175862
H       -2.52756312       0.51478873       0.00658864
H       -1.10611751      -1.41540869       0.15325916
H        2.28401753      -1.30964603       0.21190906
H        0.15833673       2.11877865      -0.20294731
10
Frame=4 idx=000374 GeodesicLength=0.14172381927146802 rxn_smarts="[N:1]([c:2]1[n:3][c:4]([H:9])[n:5][n:6]1[H:10])([H:7])[H:8]>>[N:1](=[c:2]1/[n:3]([H:8])[c:4]([H:9])[n:5][n:6]1[H:10])\[H:7]"
N       -1.82091852      -0.19094993      -0.11594644
C       -0.53853635       0.11287379      -0.21348339
N        0.15484345      -1.01188234       0.06509444
C        1.45443642      -0.62283152       0.14406810
N        1.61567963       0.66191370       0.02205177
N        0.32431348       1.13415744      -0.10119703
H       -2.51192126       0.52850691       0.01328765
H       -1.11288200      -1.42131472       0.16929741
H        2.28576722      -1.30607324       0.21310694
H        0.14921793       2.11559991      -0.19627945
10
Frame=5 idx=000374 GeodesicLength=0.1772604582143243 rxn_smarts="[N:1]([c:2]1[n:3][c:4]([H:9])[n:5][n:6]1[H:10])([H:7])[H:8]>>[N:1](=[c:2]1/[n:3]([H:8])[c:4]([H:9])[n:5][n:6]1[H:10])\[H:7]"
N       -1.82012416      -0.19065087      -0.11865259
C       -0.53675288       0.10724062      -0.23759862
N        0.15683454      -1.01537298       0.05518085
C        1.45440810      -0.62080067       0.14792327
N        1.61254701       0.66415873       0.02704803
N        0.32113699       1.13142216      -0.10149233
H       -2.49629338       0.54149074       0.02048844
H       -1.11935805      -1.42726024       0.18311318
H        2.28726834      -1.30260863       0.21475034
H        0.14033350       2.11238115      -0.19076057
10
Frame=6 idx=000374 GeodesicLength=0.21248045146567987 rxn_smarts="[N:1]([c:2]1[n:3][c:4]([H:9])[n:5][n:6]1[H:10])([H:7])[H:8]>>[N:1](=[c:2]1/[n:3]([H:8])[c:4]([H:9])[n:5][n:6]1[H:10])\[H:7]"
N       -1.81925083      -0.19019312      -0.12047233
C       -0.53528071       0.10222153      -0.25926721
N        0.15890539      -1.01874357       0.04441781
C        1.45434796      -0.61904969       0.14866767
N        1.60962342       0.66610566       0.02973341
N        0.31807230       1.12879552      -0.10203954
H       -2.48078503       0.55399462       0.02804501
H       -1.12543785      -1.43342094       0.19487166
H        2.28821505      -1.29890120       0.22071294
H        0.13159030       2.10919122      -0.18466942
10
Frame=7 idx=000374 GeodesicLength=0.24765770585433267 rxn_smarts="[N:1]([c:2]1[n:3][c:4]([H:9])[n:5][n:6]1[H:10])([H:7])[H:8]>>[N:1](=[c:2]1/[n:3]([H:8])[c:4]([H:9])[n:5][n:6]1[H:10])\[H:7]"
N       -1.81835420      -0.18969302      -0.12272268
C       -0.53383571       0.09757706      -0.27900268
N        0.16087953      -1.02210746       0.03418834
C        1.45428681      -0.61723104       0.15014238
N        1.60668229       0.66809629       0.03280579
N        0.31506724       1.12622318      -0.10206957
H       -2.46542486       0.56579796       0.03454584
H       -1.13163921      -1.43922116       0.20671732
H        2.28924764      -1.29545685       0.22486298
H        0.12309049       2.10601505      -0.17946772
10
Frame=8 idx=000374 GeodesicLength=0.2828875004119479 rxn_smarts="[N:1]([c:2]1[n:3][c:4]([H:9])[n:5][n:6]1[H:10])([H:7])[H:8]>>[N:1](=[c:2]1/[n:3]([H:8])[c:4]([H:9])[n:5][n:6]1[H:10])\[H:7]"
N       -1.81742179      -0.18913561      -0.12468897
C       -0.53251662       0.09333803      -0.29726474
N        0.16288567      -1.02532764       0.02387870
C        1.45421871      -0.61551635       0.15063584
N        1.60383702       0.66999239       0.03524869
N        0.31213384       1.12376012      -0.10192930
H       -2.45024592       0.57713578       0.04065104
H       -1.13774198      -1.44504823       0.21795596
H        2.29008701      -1.29207742       0.22989493
H        0.11476407       2.10287894      -0.17438216
10
Frame=9 idx=000374 GeodesicLength=0.31811396918321944 rxn_smarts="[N:1]([c:2]1[n:3][c:4]([H:9])[n:5][n:6]1[H:10])([H:7])[H:8]>>[N:1](=[c:2]1/[n:3]([H:8])[c:4]([H:9])[n:5][n:6]1[H:10])\[H:7]"
N       -1.81643574      -0.18853623      -0.12654377
C       -0.53128917       0.08943128      -0.31438781
N        0.16486695      -1.02843105       0.01355695
C        1.45414963      -0.61385371       0.15075033
N        1.60104135       0.67183869       0.03736468
N        0.30926884       1.12137452      -0.10175190
H       -2.43521459       0.58803004       0.04618228
H       -1.14376495      -1.45079820       0.22906599
H        2.29080450      -1.28881870       0.23505621
H        0.10657317       2.09976336      -0.16929296
10
Frame=10 idx=000374 GeodesicLength=0.3534872591547884 rxn_smarts="[N:1]([c:2]1[n:3][c:4]([H:9])[n:5][n:6]1[H:10])([H:7])[H:8]>>[N:1](=[c:2]1/[n:3]([H:8])[c:4]([H:9])[n:5][n:6]1[H:10])\[H:7]"
N       -1.81542618      -0.18786697      -0.12824006
C       -0.53016178       0.08586902      -0.33075407
N        0.16691922      -1.03150369       0.00267564
C        1.45404232      -0.61222565       0.15004006
N        1.59834196       0.67361936       0.03875690
N        0.30651491       1.11905141      -0.10168513
H       -2.42023603       0.59845655       0.05203085
H       -1.14971397      -1.45652903       0.23964139
H        2.29123077      -1.28560284       0.24164488
H        0.09848878       2.09673183      -0.16411046
10
Frame=11 idx=000374 GeodesicLength=0.3887346117057127 rxn_smarts="[N:1]([c:2]1[n:3][c:4]([H:9])[n:5][n:6]1[H:10])([H:7])[H:8]>>[N:1](=[c:2]1/[n:3]([H:8])[c:4]([H:9])[n:5][n:6]1[H:10])\[H:7]"
N       -1.81433588      -0.18715052      -0.12962601
C       -0.52920312       0.08260916      -0.34657246
N        0.16895480      -1.03448240      -0.00892566
C        1.45397425      -0.61066085       0.14824161
N        1.59574980       0.67530762       0.03909600
N        0.30382615       1.11679126      -0.10207329
H       -2.40524950       0.60849348       0.05787342
H       -1.15546633      -1.46215598       0.25005016
H        2.29130340      -1.28238540       0.25002029
H        0.09044643       2.09363362      -0.15808406
10
Frame=12 idx=000374 GeodesicLength=0.42403882677400384 rxn_smarts="[N:1]([c:2]1[n:3][c:4]([H:9])[n:5][n:6]1[H:10])([H:7])[H:8]>>[N:1](=[c:2]1/[n:3]([H:8])[c:4]([H:9])[n:5][n:6]1[H:10])\[H:7]"
N       -1.81320327      -0.18639695      -0.13088104
C       -0.52829615       0.07967506      -0.36173597
N        0.17102607      -1.03733167      -0.02068573
C        1.45386857      -0.60911568       0.14604544
N        1.59322155       0.67696238       0.03916434
N        0.30122925       1.11461146      -0.10228545
H       -2.39032929       0.61806568       0.06391212
H       -1.16115295      -1.46786479       0.25992216
H        2.29104599      -1.27923307       0.25898680
H        0.08259023       2.09062757      -0.15244267
10
Frame=13 idx=000374 GeodesicLength=0.4594427978135116 rxn_smarts="[N:1]([c:2]1[n:3][c:4]([H:9])[n:5][n:6]1[H:10])([H:7])[H:8]>>[N:1](=[c:2]1/[n:3]([H:8])[c:4]([H:9])[n:5][n:6]1[H:10])\[H:7]"
N       -1.81202982      -0.18561292      -0.13193822
C       -0.52750443       0.07705235      -0.37644755
N        0.17312240      -1.04008642      -0.03295581
C        1.45382871      -0.60762560       0.14295343
N        1.59082150       0.67857091       0.03848069
N        0.29872481       1.11251132      -0.10261111
H       -2.37547145       0.62723267       0.07005491
H       -1.16672652      -1.47358056       0.26957786
H        2.29039947      -1.27609482       0.26932265
H        0.07483533       2.08763307      -0.14643685
10
Frame=14 idx=000374 GeodesicLength=0.49484420949848656 rxn_smarts="[N:1]([c:2]1[n:3][c:4]([H:9])[n:5][n:6]1[H:10])([H:7])[H:8]>>[N:1](=[c:2]1/[n:3]([H:8])[c:4]([H:9])[n:5][n:6]1[H:10])\[H:7]"
N       -1.81077811      -0.18480089      -0.13273153
C       -0.52685057       0.07474778      -0.39085570
N        0.17524641      -1.04275417      -0.04604417
C        1.45387935      -0.60620177       0.13859308
N        1.58854261       0.68010799       0.03682101
N        0.29630134       1.11045820      -0.10309000
H       -2.36059351       0.63597565       0.07657056
H       -1.17210244      -1.47928266       0.27895916
H        2.28917346      -1.27289422       0.28170348
H        0.06718146       2.08464409      -0.13992588
10
Frame=15 idx=000374 GeodesicLength=0.5302890615445414 rxn_smarts="[N:1]([c:2]1[n:3][c:4]([H:9])[n:5][n:6]1[H:10])([H:7])[H:8]>>[N:1](=[c:2]1/[n:3]([H:8])[c:4]([H:9])[n:5][n:6]1[H:10])\[H:7]"
N       -1.80946543      -0.18399443      -0.13339322
C       -0.52626113       0.07271702      -0.40484887
N        0.17739689      -1.04529382      -0.05931258
C        1.45402323      -0.60482902       0.13352672
N        1.58637974       0.68161746       0.03476298
N        0.29397519       1.10846736      -0.10351342
H       -2.34580910       0.64432499       0.08296119
H       -1.17736224      -1.48499637       0.28827536
H        2.28745774      -1.26967899       0.29480092
H        0.05966512       2.08166578      -0.13325908
10
Frame=16 idx=000374 GeodesicLength=0.5657182800825045 rxn_smarts="[N:1]([c:2]1[n:3][c:4]([H:9])[n:5][n:6]1[H:10])([H:7])[H:8]>>[N:1](=[c:2]1/[n:3]([H:8])[c:4]([H:9])[n:5][n:6]1[H:10])\[H:7]"
N       -1.80807510      -0.18321737      -0.13400939
C       -0.52570789       0.07093093      -0.41840680
N        0.17955609      -1.04769991      -0.07258868
C        1.45427457      -0.60350279       0.12779852
N        1.58429366       0.68310404       0.03254576
N        0.29172229       1.10651245      -0.10370565
H       -2.33113425       0.65227343       0.08901818
H       -1.18254357      -1.49064358       0.29770856
H        2.28528813      -1.26642666       0.30819653
H        0.05232607       2.07866946      -0.12655703
