16
Frame=0 idx=004127 GeodesicLength=0.0 rxn_smarts="[C:1]([O:2][C@@:3]([C:4]([H:11])([H:12])[H:13])([C:5]([O:6][H:16])([H:14])[H:15])[H:10])([H:7])([H:8])[H:9]>>[C:1]([O:2][H:11])([H:7])([H:8])[H:9].[C:3](=[C:4]([H:12])[H:13])([C:5]([O:6][H:16])([H:14])[H:15])[H:10]"
C        1.90303533       0.90719732       0.13884695
O        0.67311834       0.52910109       0.69712748
C       -0.48138932      -0.53437484      -0.46988889
C       -0.14943744      -1.73096415       0.19273584
C       -1.75404010       0.19818910      -0.19919205
O       -1.64642923       1.57889652      -0.39026844
H        2.35018857       0.08896265      -0.44809019
H        1.78219041       1.77224794      -0.52109772
H        2.61093074       1.17752354       0.92732308
H        0.02995102      -0.25606658      -1.38715236
H        0.54527388      -0.75505334       0.84225137
H        0.51978901      -2.42767217      -0.29645268
H       -0.88500813      -2.16120430       0.86406529
H       -2.49719309      -0.17716836      -0.91159274
H       -2.10706471      -0.05591114       0.80836392
H       -0.89391528       1.84629667       0.15302113
16
Frame=1 idx=004127 GeodesicLength=0.05604966892229683 rxn_smarts="[C:1]([O:2][C@@:3]([C:4]([H:11])([H:12])[H:13])([C:5]([O:6][H:16])([H:14])[H:15])[H:10])([H:7])([H:8])[H:9]>>[C:1]([O:2][H:11])([H:7])([H:8])[H:9].[C:3](=[C:4]([H:12])[H:13])([C:5]([O:6][H:16])([H:14])[H:15])[H:10]"
C        1.90867556       0.91019136       0.14188892
O        0.67794862       0.53046868       0.69825720
C       -0.48181200      -0.53076768      -0.47120664
C       -0.15125659      -1.73170339       0.18613020
C       -1.75685730       0.19789260      -0.19776612
O       -1.64740005       1.58012203      -0.38126690
H        2.38045006       0.07783152      -0.40366606
H        1.78273316       1.74430969      -0.55592126
H        2.59690094       1.22704966       0.93005938
H        0.02053423      -0.25749741      -1.39525885
H        0.56458057      -0.76395152       0.84837371
H        0.49239416      -2.43737037      -0.32455864
H       -0.88249709      -2.15875556       0.86456468
H       -2.50002999      -0.17380770      -0.91163358
H       -2.10973691      -0.05925071       0.80916622
H       -0.89462737       1.84523880       0.16283774
16
Frame=2 idx=004127 GeodesicLength=0.112121153560687 rxn_smarts="[C:1]([O:2][C@@:3]([C:4]([H:11])([H:12])[H:13])([C:5]([O:6][H:16])([H:14])[H:15])[H:10])([H:7])([H:8])[H:9]>>[C:1]([O:2][H:11])([H:7])([H:8])[H:9].[C:3](=[C:4]([H:12])[H:13])([C:5]([O:6][H:16])([H:14])[H:15])[H:10]"
C        1.91428893       0.91323674       0.14500336
O        0.68283676       0.53156042       0.69942275
C       -0.48222718      -0.52721167      -0.47272452
C       -0.15293597      -1.73239852       0.17942064
C       -1.75962168       0.19756845      -0.19638441
O       -1.64825183       1.58128485      -0.37220997
H        2.41053256       0.06901420      -0.35812113
H        1.78429471       1.71476562      -0.58938361
H        2.58175199       1.27634793       0.93068109
H        0.01084606      -0.25902624      -1.40357120
H        0.58441824      -0.77319820       0.85420724
H        0.46402216      -2.44672597      -0.35224482
H       -0.87966702      -2.15619549       0.86509215
H       -2.50289046      -0.17039524      -0.91165820
H       -2.11230933      -0.06267023       0.80992018
H       -0.89508794       1.84404334       0.17255045
16
Frame=3 idx=004127 GeodesicLength=0.16822407879547663 rxn_smarts="[C:1]([O:2][C@@:3]([C:4]([H:11])([H:12])[H:13])([C:5]([O:6][H:16])([H:14])[H:15])[H:10])([H:7])([H:8])[H:9]>>[C:1]([O:2][H:11])([H:7])([H:8])[H:9].[C:3](=[C:4]([H:12])[H:13])([C:5]([O:6][H:16])([H:14])[H:15])[H:10]"
C        1.91987887       0.91632149       0.14819654
O        0.68778852       0.53236431       0.70062270
C       -0.48264842      -0.52369769      -0.47445532
C       -0.15447818      -1.73304444       0.17257635
C       -1.76233873       0.19721809      -0.19504172
O       -1.64898458       1.58238210      -0.36307849
H        2.44042866       0.06254120      -0.31143634
H        1.78690106       1.68360475      -0.62146504
H        2.56547771       1.32536152       0.92916946
H        0.00086465      -0.26063282      -1.41208821
H        0.60479492      -0.78280112       0.85972280
H        0.43467902      -2.45569650      -0.37948303
H       -0.87650685      -2.15352295       0.86561378
H       -2.50579023      -0.16692230      -0.91165713
H       -2.11477403      -0.06617871       0.81062639
H       -0.89529237       1.84270307       0.18217726
16
Frame=4 idx=004127 GeodesicLength=0.22436362404294055 rxn_smarts="[C:1]([O:2][C@@:3]([C:4]([H:11])([H:12])[H:13])([C:5]([O:6][H:16])([H:14])[H:15])[H:10])([H:7])([H:8])[H:9]>>[C:1]([O:2][H:11])([H:7])([H:8])[H:9].[C:3](=[C:4]([H:12])[H:13])([C:5]([O:6][H:16])([H:14])[H:15])[H:10]"
C        1.92545124       0.91942378       0.15147307
O        0.69279524       0.53287421       0.70185185
C       -0.48308072      -0.52021405      -0.47641645
C       -0.15586998      -1.73364007       0.16557131
C       -1.76502263       0.19685077      -0.19373133
O       -1.64962381       1.58342555      -0.35385875
H        2.47010403       0.05844128      -0.26363936
H        1.79061695       1.65083542      -0.65212143
H        2.54805955       1.37398593       0.92551695
H       -0.00941264      -0.26229202      -1.42082329
H        0.62571767      -0.79276849       0.86489555
H        0.40440157      -2.46425854      -0.40623883
H       -0.87298972      -2.15073706       0.86611866
H       -2.50874419      -0.16337491      -0.91161980
H       -2.11714026      -0.06977770       0.81129877
H       -0.89526231       1.84122591       0.19172307
16
Frame=5 idx=004127 GeodesicLength=0.2805795765628576 rxn_smarts="[C:1]([O:2][C@@:3]([C:4]([H:11])([H:12])[H:13])([C:5]([O:6][H:16])([H:14])[H:15])[H:10])([H:7])([H:8])[H:9]>>[C:1]([O:2][H:11])([H:7])([H:8])[H:9].[C:3](=[C:4]([H:12])[H:13])([C:5]([O:6][H:16])([H:14])[H:15])[H:10]"
C        1.93100253       0.92255031       0.15483218
O        0.69786197       0.53308810       0.70312074
C       -0.48353763      -0.51676027      -0.47862184
C       -0.15714014      -1.73420610       0.15837880
C       -1.76766238       0.19646443      -0.19245264
O       -1.65013102       1.58443055      -0.34452918
H        2.49949669       0.05677274      -0.21473609
H        1.79546401       1.61648465      -0.68130590
H        2.52951236       1.42216866       0.91966750
H       -0.01999975      -0.26398588      -1.42978189
H        0.64717393      -0.80311796       0.86970597
H        0.37320439      -2.47239729      -0.43246043
H       -0.86913745      -2.14787551       0.86657596
H       -2.51174302      -0.15975084      -0.91155374
H       -2.11939719      -0.07349089       0.81193638
H       -0.89496729       1.83962529       0.20122417
16
Frame=6 idx=004127 GeodesicLength=0.3367852064143018 rxn_smarts="[C:1]([O:2][C@@:3]([C:4]([H:11])([H:12])[H:13])([C:5]([O:6][H:16])([H:14])[H:15])[H:10])([H:7])([H:8])[H:9]>>[C:1]([O:2][H:11])([H:7])([H:8])[H:9].[C:3](=[C:4]([H:12])[H:13])([C:5]([O:6][H:16])([H:14])[H:15])[H:10]"
C        1.93654033       0.92564507       0.15829712
O        0.70299373       0.53297038       0.70441086
C       -0.48402856      -0.51330347      -0.48107734
C       -0.15824090      -1.73467712       0.15095705
C       -1.77029068       0.19607244      -0.19119403
O       -1.65057697       1.58535715      -0.33506969
H        2.52861502       0.05757471      -0.16464806
H        1.80150641       1.58039339      -0.70900227
H        2.50976533       1.46980730       0.91160571
H       -0.03092424      -0.26567996      -1.43893273
H        0.66923185      -0.81384041       0.87408309
H        0.34110504      -2.48001202      -0.45815875
H       -0.86485969      -2.14484221       0.86694700
H       -2.51484316      -0.15601854      -0.91141876
H       -2.12153941      -0.07729481       0.81252872
H       -0.89445409       1.83784810       0.21067208
16
Frame=7 idx=004127 GeodesicLength=0.39329608269881394 rxn_smarts="[C:1]([O:2][C@@:3]([C:4]([H:11])([H:12])[H:13])([C:5]([O:6][H:16])([H:14])[H:15])[H:10])([H:7])([H:8])[H:9]>>[C:1]([O:2][H:11])([H:7])([H:8])[H:9].[C:3](=[C:4]([H:12])[H:13])([C:5]([O:6][H:16])([H:14])[H:15])[H:10]"
C        1.94204553       0.92886649       0.16185869
O        0.70816120       0.53256432       0.70576860
C       -0.48451784      -0.50993325      -0.48381653
C       -0.15922093      -1.73525878       0.14339556
C       -1.77285179       0.19566295      -0.18998742
O       -1.65083983       1.58633033      -0.32565990
H        2.55726097       0.06108596      -0.11392751
H        1.80873227       1.54325108      -0.73489787
H        2.48895409       1.51652549       0.90159408
H       -0.04208124      -0.26746942      -1.44840491
H        0.69193425      -0.82504345       0.87802937
H        0.30779760      -2.48744673      -0.48335486
H       -0.86018549      -2.14178130       0.86751846
H       -2.51795915      -0.15229213      -0.91126420
H       -2.12355318      -0.08114392       0.81317798
H       -0.89367647       1.83608236       0.21997044
16
Frame=8 idx=004127 GeodesicLength=0.44932684402480094 rxn_smarts="[C:1]([O:2][C@@:3]([C:4]([H:11])([H:12])[H:13])([C:5]([O:6][H:16])([H:14])[H:15])[H:10])([H:7])([H:8])[H:9]>>[C:1]([O:2][H:11])([H:7])([H:8])[H:9].[C:3](=[C:4]([H:12])[H:13])([C:5]([O:6][H:16])([H:14])[H:15])[H:10]"
C        1.94758649       0.93180891       0.16552483
O        0.71343028       0.53174500       0.70707638
C       -0.48511568      -0.50637168      -0.48679863
C       -0.16003789      -1.73542096       0.13531929
C       -1.77546009       0.19523070      -0.18870729
O       -1.65112934       1.58701047      -0.31566871
H        2.58572450       0.06691611      -0.06089144
H        1.81747710       1.50314047      -0.75967500
H        2.46662520       1.56324980       0.88858373
H       -0.05372038      -0.26896959      -1.45786260
H        0.71515428      -0.83648651       0.88135656
H        0.27395436      -2.49372521      -0.50794381
H       -0.85507115      -2.13835271       0.86745519
H       -2.52125803      -0.14828150      -0.91092076
H       -2.12548826      -0.08530884       0.81362757
H       -0.89267141       1.83381552       0.22952468
16
Frame=9 idx=004127 GeodesicLength=0.5057063586129049 rxn_smarts="[C:1]([O:2][C@@:3]([C:4]([H:11])([H:12])[H:13])([C:5]([O:6][H:16])([H:14])[H:15])[H:10])([H:7])([H:8])[H:9]>>[C:1]([O:2][H:11])([H:7])([H:8])[H:9].[C:3](=[C:4]([H:12])[H:13])([C:5]([O:6][H:16])([H:14])[H:15])[H:10]"
C        1.95305775       0.93476935       0.16930228
O        0.71871856       0.53060635       0.70849422
C       -0.48575207      -0.50282290      -0.49011153
C       -0.16070871      -1.73569238       0.12697445
C       -1.77801840       0.19486304      -0.18742759
O       -1.65129089       1.58784432      -0.30557913
H        2.61356771       0.07553115      -0.00685872
H        1.82756660       1.46140254      -0.78274048
H        2.44301521       1.60906407       0.87326373
H       -0.06566400      -0.27039355      -1.46767739
H        0.73897483      -0.84845670       0.88424272
H        0.23933030      -2.49965164      -0.53195863
H       -0.84951864      -2.13502472       0.86737264
H       -2.52461153      -0.14412042      -0.91052592
H       -2.12725468      -0.08953346       0.81419613
H       -0.89141204       1.83161496       0.23903321
16
Frame=10 idx=004127 GeodesicLength=0.5621075006724595 rxn_smarts="[C:1]([O:2][C@@:3]([C:4]([H:11])([H:12])[H:13])([C:5]([O:6][H:16])([H:14])[H:15])[H:10])([H:7])([H:8])[H:9]>>[C:1]([O:2][H:11])([H:7])([H:8])[H:9].[C:3](=[C:4]([H:12])[H:13])([C:5]([O:6][H:16])([H:14])[H:15])[H:10]"
C        1.95852170       0.93762627       0.17317764
O        0.72405312       0.52914215       0.70997979
C       -0.48646061      -0.49921179      -0.49372296
C       -0.16124202      -1.73585414       0.11828548
C       -1.78059617       0.19451238      -0.18614870
O       -1.65139900       1.58863940      -0.29525656
H        2.64068146       0.08689734       0.04829821
H        1.83911224       1.41781528      -0.80393902
H        2.41827596       1.65383027       0.85533269
H       -0.07794837      -0.27167688      -1.47768582
H        0.76338404      -0.86081217       0.88660261
H        0.20415654      -2.50488799      -0.55524845
H       -0.84354878      -2.13158464       0.86705204
H       -2.52810002      -0.13980553      -0.91005379
H       -2.12894292      -0.09389890       0.81472662
H       -0.88994714       1.82926897       0.24860023
16
Frame=11 idx=004127 GeodesicLength=0.6185400551793416 rxn_smarts="[C:1]([O:2][C@@:3]([C:4]([H:11])([H:12])[H:13])([C:5]([O:6][H:16])([H:14])[H:15])[H:10])([H:7])([H:8])[H:9]>>[C:1]([O:2][H:11])([H:7])([H:8])[H:9].[C:3](=[C:4]([H:12])[H:13])([C:5]([O:6][H:16])([H:14])[H:15])[H:10]"
C        1.96395635       0.94036542       0.17716021
O        0.72942711       0.52733968       0.71154968
C       -0.48724186      -0.49550895      -0.49764269
C       -0.16163142      -1.73589687       0.10921100
C       -1.78317615       0.19419141      -0.18485417
O       -1.65143931       1.58940944      -0.28465399
H        2.66693980       0.10113459       0.10467821
H        1.85218982       1.37219490      -0.82320769
H        2.39232385       1.69749155       0.83463623
H       -0.09057759      -0.27275363      -1.48788486
H        0.78840679      -0.87357000       0.88838468
H        0.16842813      -2.50941025      -0.57784903
H       -0.83711641      -2.12803487       0.86646630
H       -2.53170429      -0.13530608      -0.90948881
H       -2.13052140      -0.09842566       0.81523076
H       -0.88826343       1.82677932       0.25826417
16
Frame=12 idx=004127 GeodesicLength=0.6750752859282061 rxn_smarts="[C:1]([O:2][C@@:3]([C:4]([H:11])([H:12])[H:13])([C:5]([O:6][H:16])([H:14])[H:15])[H:10])([H:7])([H:8])[H:9]>>[C:1]([O:2][H:11])([H:7])([H:8])[H:9].[C:3](=[C:4]([H:12])[H:13])([C:5]([O:6][H:16])([H:14])[H:15])[H:10]"
C        1.96934542       0.94298126       0.18125767
O        0.73483395       0.52517304       0.71324046
C       -0.48809193      -0.49168918      -0.50188279
C       -0.16186807      -1.73583463       0.09970476
C       -1.78575249       0.19392651      -0.18351842
O       -1.65140556       1.59019417      -0.27371675
H        2.69224834       0.11842424       0.16240897
H        1.86691439       1.32428557      -0.84048460
H        2.36502713       1.74001466       0.81097374
H       -0.10353333      -0.27355544      -1.49828724
H        0.81408485      -0.88677812       0.88952807
H        0.13214221      -2.51321425      -0.59982490
H       -0.83018928      -2.12440505       0.86559089
H       -2.53541711      -0.13057326      -0.90881310
H       -2.13198295      -0.10312036       0.81574415
H       -0.88635558       1.82417083       0.26807909
16
Frame=13 idx=004127 GeodesicLength=0.7316169444038165 rxn_smarts="[C:1]([O:2][C@@:3]([C:4]([H:11])([H:12])[H:13])([C:5]([O:6][H:16])([H:14])[H:15])[H:10])([H:7])([H:8])[H:9]>>[C:1]([O:2][H:11])([H:7])([H:8])[H:9].[C:3](=[C:4]([H:12])[H:13])([C:5]([O:6][H:16])([H:14])[H:15])[H:10]"
C        1.97467721       0.94540018       0.18544747
O        0.74025808       0.52267749       0.71507665
C       -0.48901666      -0.48770996      -0.50643147
C       -0.16193556      -1.73559272       0.08977195
C       -1.78834460       0.19372343      -0.18216086
O       -1.65133679       1.59096956      -0.26243141
H        2.71630589       0.13877905       0.22124846
H        1.88323630       1.27416159      -0.85547658
H        2.33661303       1.78098834       0.78418535
H       -0.11680935      -0.27402998      -1.50884293
H        0.84038431      -0.90036304       0.89007816
H        0.09561712      -2.51617199      -0.62104505
H       -0.82276998      -2.12066472       0.86434740
H       -2.53924493      -0.12559241      -0.90805558
H       -2.13335462      -0.10799215       0.81620873
H       -0.88427944       1.82141733       0.27807971
16
Frame=14 idx=004127 GeodesicLength=0.7882508765992787 rxn_smarts="[C:1]([O:2][C@@:3]([C:4]([H:11])([H:12])[H:13])([C:5]([O:6][H:16])([H:14])[H:15])[H:10])([H:7])([H:8])[H:9]>>[C:1]([O:2][H:11])([H:7])([H:8])[H:9].[C:3](=[C:4]([H:12])[H:13])([C:5]([O:6][H:16])([H:14])[H:15])[H:10]"
C        1.97994955       0.94762446       0.18973221
O        0.74569335       0.51985596       0.71709331
C       -0.49001367      -0.48354231      -0.51129746
C       -0.16183376      -1.73517525       0.07936218
C       -1.79094603       0.19359257      -0.18075322
O       -1.65122267       1.59176145      -0.25073128
H        2.73894565       0.16239766       0.28126192
H        1.90131095       1.22159130      -0.86803151
H        2.30700201       1.82033051       0.75402998
H       -0.13038145      -0.27409909      -1.51955459
H        0.86732355      -0.91434051       0.88999087
H        0.05884502      -2.51828510      -0.64158798
H       -0.81483944      -2.11684394       0.86269872
H       -2.54318153      -0.12034576      -0.90719222
H       -2.13463036      -0.11306656       0.81665464
H       -0.88202117       1.81854461       0.28832441
16
Frame=15 idx=004127 GeodesicLength=0.8449860291025474 rxn_smarts="[C:1]([O:2][C@@:3]([C:4]([H:11])([H:12])[H:13])([C:5]([O:6][H:16])([H:14])[H:15])[H:10])([H:7])([H:8])[H:9]>>[C:1]([O:2][H:11])([H:7])([H:8])[H:9].[C:3](=[C:4]([H:12])[H:13])([C:5]([O:6][H:16])([H:14])[H:15])[H:10]"
C        1.98513765       0.94961011       0.19409346
O        0.75112691       0.51671302       0.71933713
C       -0.49107682      -0.47914172      -0.51647305
C       -0.16154306      -1.73454139       0.06845677
C       -1.79355607       0.19355427      -0.17928882
O       -1.65107460       1.59257740      -0.23856841
H        2.75993044       0.18943685       0.34234653
H        1.92116124       1.16643466      -0.87789314
H        2.27623715       1.85775091       0.72025878
H       -0.14422153      -0.27368164      -1.53039426
H        0.89490536      -0.92869212       0.88927673
H        0.02199642      -2.51948101      -0.66145373
H       -0.80638514      -2.11294349       0.86058331
H       -2.54721490      -0.11479046      -0.90622972
H       -2.13581603      -0.11835404       0.81706940
H       -0.87960701       1.81554866       0.29887901
16
Frame=16 idx=004127 GeodesicLength=0.9018467353872301 rxn_smarts="[C:1]([O:2][C@@:3]([C:4]([H:11])([H:12])[H:13])([C:5]([O:6][H:16])([H:14])[H:15])[H:10])([H:7])([H:8])[H:9]>>[C:1]([O:2][H:11])([H:7])([H:8])[H:9].[C:3](=[C:4]([H:12])[H:13])([C:5]([O:6][H:16])([H:14])[H:15])[H:10]"
C        1.99023181       0.95131159       0.19850813
O        0.75654111       0.51328735       0.72185437
C       -0.49219694      -0.47445941      -0.52194802
C       -0.16103889      -1.73364652       0.05703769
C       -1.79617832       0.19361971      -0.17776071
O       -1.65091592       1.59342403      -0.22588909
H        2.77897289       0.22001180       0.40431716
H        1.94281254       1.10861789      -0.88474528
H        2.24443585       1.89291157       0.68261057
H       -0.15829192      -0.27268948      -1.54133092
H        0.92309566      -0.94336844       0.88799433
H       -0.01473232      -2.51969789      -0.68065173
H       -0.79740173      -2.10897421       0.85793035
H       -2.55133380      -0.10890719      -0.90517495
H       -2.13692638      -0.12387852       0.81743740
H       -0.87707364       1.81243771       0.30981070
