11
Frame=0 idx=003427 GeodesicLength=0.0 rxn_smarts="[C:1]([C:2](=[O:3])[N:4]([C:5](=[O:6])[H:11])[H:10])([H:7])([H:8])[H:9]>>[C:1]([C:2](=[O:3])[N+:4](=[C-:5][O:6][H:11])[H:10])([H:7])([H:8])[H:9]"
C       -1.74582502       0.09381374      -0.41317433
C       -0.45623100       0.65224968       0.13043763
O       -0.33205544       1.75497694       0.57748303
N        0.61531340      -0.25800522       0.06257256
C        1.87159813      -0.01421714       0.47630012
O        2.72527735      -0.98182289       0.32827573
H       -1.63095023      -0.16717625      -1.46737402
H       -2.52570378       0.84218835      -0.30664846
H       -2.03028685      -0.81041109       0.12887267
H        0.45499922      -1.18290239      -0.32823945
H        3.05386425       0.07130625       0.81149451
11
Frame=1 idx=003427 GeodesicLength=0.028388620970268147 rxn_smarts="[C:1]([C:2](=[O:3])[N:4]([C:5](=[O:6])[H:11])[H:10])([H:7])([H:8])[H:9]>>[C:1]([C:2](=[O:3])[N+:4](=[C-:5][O:6][H:11])[H:10])([H:7])([H:8])[H:9]"
C       -1.74558355       0.09429551      -0.41320139
C       -0.45646542       0.64833420       0.13620565
O       -0.33112423       1.74993831       0.58625227
N        0.61328554      -0.26343994       0.06813888
C        1.88440767       0.00426998       0.41944182
O        2.72319319      -0.98008950       0.32889468
H       -1.62726205      -0.16701444      -1.46697267
H       -2.52352945       0.84513786      -0.30995251
H       -2.03510142      -0.80920229       0.12744157
H        0.44976723      -1.19015568      -0.31624369
H        3.04841249       0.06792599       0.83999539
11
Frame=2 idx=003427 GeodesicLength=0.05738480571126895 rxn_smarts="[C:1]([C:2](=[O:3])[N:4]([C:5](=[O:6])[H:11])[H:10])([H:7])([H:8])[H:9]>>[C:1]([C:2](=[O:3])[N+:4](=[C-:5][O:6][H:11])[H:10])([H:7])([H:8])[H:9]"
C       -1.74499092       0.09460324      -0.41171257
C       -0.45474822       0.64516427       0.13859872
O       -0.32711074       1.74560541       0.59126649
N        0.61377534      -0.26715725       0.06627379
C        1.89489976       0.01699786       0.36873010
O        2.72174766      -0.97763117       0.33119712
H       -1.62695117      -0.16703813      -1.46542193
H       -2.52110579       0.84738290      -0.30886465
H       -2.03682680      -0.80830723       0.12864710
H        0.44618325      -1.19612565      -0.31006252
H        3.03512764       0.06650575       0.87134833
11
Frame=3 idx=003427 GeodesicLength=0.08715147346278282 rxn_smarts="[C:1]([C:2](=[O:3])[N:4]([C:5](=[O:6])[H:11])[H:10])([H:7])([H:8])[H:9]>>[C:1]([C:2](=[O:3])[N+:4](=[C-:5][O:6][H:11])[H:10])([H:7])([H:8])[H:9]"
C       -1.74440416       0.09457391      -0.40868266
C       -0.45136845       0.64303561       0.13719839
O       -0.32067222       1.74226657       0.59234929
N        0.61643691      -0.26878842       0.05638123
C        1.90385257       0.02536910       0.32571900
O        2.71985924      -0.97565982       0.33714845
H       -1.63069451      -0.16725173      -1.46281128
H       -2.51903748       0.84847462      -0.30301646
H       -2.03541789      -0.80806376       0.13255945
H        0.44458781      -1.20014969      -0.31126141
H        3.01685819       0.06619362       0.90441599
11
Frame=4 idx=003427 GeodesicLength=0.11712871798104625 rxn_smarts="[C:1]([C:2](=[O:3])[N:4]([C:5](=[O:6])[H:11])[H:10])([H:7])([H:8])[H:9]>>[C:1]([C:2](=[O:3])[N+:4](=[C-:5][O:6][H:11])[H:10])([H:7])([H:8])[H:9]"
C       -1.74385530       0.09426028      -0.40455378
C       -0.44684045       0.64175685       0.13290297
O       -0.31267733       1.73968475       0.59067122
N        0.62048661      -0.26886553       0.04052580
C        1.91186638       0.03064436       0.28955187
O        2.71695164      -0.97452828       0.34695739
H       -1.63753746      -0.16752581      -1.45947610
H       -2.51732280       0.84859863      -0.29359444
H       -2.03160754      -0.80843989       0.13836525
H        0.44459877      -1.20246530      -0.31857562
H        2.99593749       0.06687994       0.93722543
11
Frame=5 idx=003427 GeodesicLength=0.14724058044663105 rxn_smarts="[C:1]([C:2](=[O:3])[N:4]([C:5](=[O:6])[H:11])[H:10])([H:7])([H:8])[H:9]>>[C:1]([C:2](=[O:3])[N+:4](=[C-:5][O:6][H:11])[H:10])([H:7])([H:8])[H:9]"
C       -1.74300989       0.09423106      -0.40091145
C       -0.44225671       0.64002722       0.12915101
O       -0.30448004       1.73628950       0.59021279
N        0.62419333      -0.26973380       0.02562200
C        1.91890412       0.03385684       0.25754918
O        2.71392982      -0.97303272       0.35689349
H       -1.64340898      -0.16722409      -1.45656258
H       -2.51503437       0.84928388      -0.28496245
H       -2.02826984      -0.80855014       0.14315786
H        0.44425970      -1.20553208      -0.32482549
H        2.97517285       0.07038432       0.96467564
11
Frame=6 idx=003427 GeodesicLength=0.17745906660768843 rxn_smarts="[C:1]([C:2](=[O:3])[N:4]([C:5](=[O:6])[H:11])[H:10])([H:7])([H:8])[H:9]>>[C:1]([C:2](=[O:3])[N+:4](=[C-:5][O:6][H:11])[H:10])([H:7])([H:8])[H:9]"
C       -1.74202031       0.09419193      -0.39718710
C       -0.43738336       0.63844222       0.12490050
O       -0.29588839       1.73295644       0.58941470
N        0.62806274      -0.27045971       0.00991257
C        1.92543692       0.03561297       0.22891821
O        2.71063631      -0.97139753       0.36691446
H       -1.64957458      -0.16691672      -1.45357817
H       -2.51258784       0.84989581      -0.27594083
H       -2.02448718      -0.80871615       0.14814300
H        0.44423323      -1.20832381      -0.33195155
H        2.95357246       0.07471454       0.99045418
11
Frame=7 idx=003427 GeodesicLength=0.2077955162311998 rxn_smarts="[C:1]([C:2](=[O:3])[N:4]([C:5](=[O:6])[H:11])[H:10])([H:7])([H:8])[H:9]>>[C:1]([C:2](=[O:3])[N+:4](=[C-:5][O:6][H:11])[H:10])([H:7])([H:8])[H:9]"
C       -1.74082309       0.09433744      -0.39394106
C       -0.43265127       0.63654162       0.12140973
O       -0.28742600       1.72920260       0.58955055
N        0.63148646      -0.27186130      -0.00402475
C        1.93129851       0.03640723       0.20276353
O        2.70762693      -0.96912912       0.37539085
H       -1.65461079      -0.16641369      -1.45094933
H       -2.50974289       0.85096793      -0.26811541
H       -2.02134343      -0.80861316       0.15233242
H        0.44386689      -1.21167654      -0.33744370
H        2.93231868       0.08023698       1.01302717
11
Frame=8 idx=003427 GeodesicLength=0.23822540919419144 rxn_smarts="[C:1]([C:2](=[O:3])[N:4]([C:5](=[O:6])[H:11])[H:10])([H:7])([H:8])[H:9]>>[C:1]([C:2](=[O:3])[N+:4](=[C-:5][O:6][H:11])[H:10])([H:7])([H:8])[H:9]"
C       -1.73947455       0.09466041      -0.39116283
C       -0.42811777       0.63432689       0.11871974
O       -0.27916667       1.72503169       0.59065554
N        0.63445339      -0.27391392      -0.01619634
C        1.93662012       0.03643467       0.17845404
O        2.70495338      -0.96634328       0.38256617
H       -1.65857177      -0.16568466      -1.44869215
H       -2.50657284       0.85247083      -0.26144218
H       -2.01887737      -0.80827093       0.15571062
H        0.44313654      -1.21554887      -0.34132837
H        2.91161752       0.08683719       1.03271577
11
Frame=9 idx=003427 GeodesicLength=0.2686983977903586 rxn_smarts="[C:1]([C:2](=[O:3])[N:4]([C:5](=[O:6])[H:11])[H:10])([H:7])([H:8])[H:9]>>[C:1]([C:2](=[O:3])[N+:4](=[C-:5][O:6][H:11])[H:10])([H:7])([H:8])[H:9]"
C       -1.73802931       0.09511187      -0.38872218
C       -0.42371023       0.63189562       0.11656347
O       -0.27103663       1.72054447       0.59246740
N        0.63710033      -0.27644008      -0.02712113
C        1.94152023       0.03586286       0.15565945
O        2.70252578      -0.96315862       0.38881375
H       -1.66179768      -0.16479350      -1.44671092
H       -2.50318759       0.85428931      -0.25558957
H       -2.01689918      -0.80775910       0.15852994
H        0.44218993      -1.21977256      -0.34412828
H        2.89132434       0.09421973       1.05023807
11
Frame=10 idx=003427 GeodesicLength=0.2992435096018723 rxn_smarts="[C:1]([C:2](=[O:3])[N:4]([C:5](=[O:6])[H:11])[H:10])([H:7])([H:8])[H:9]>>[C:1]([C:2](=[O:3])[N+:4](=[C-:5][O:6][H:11])[H:10])([H:7])([H:8])[H:9]"
C       -1.73651865       0.09562779      -0.38643116
C       -0.41931262       0.62935961       0.11457066
O       -0.26287891       1.71585123       0.59457681
N        0.63958717      -0.27920484      -0.03753434
C        1.94613493       0.03480470       0.13415586
O        2.70016365      -0.95975423       0.39470263
H       -1.66472450      -0.16379541      -1.44485077
H       -2.49966122       0.85624933      -0.25004767
H       -2.01510490      -0.80716734       0.16109464
H        0.44118511      -1.22411988      -0.34661204
H        2.87112995       0.10214903       1.06637538
11
Frame=11 idx=003427 GeodesicLength=0.3299218031958596 rxn_smarts="[C:1]([C:2](=[O:3])[N:4]([C:5](=[O:6])[H:11])[H:10])([H:7])([H:8])[H:9]>>[C:1]([C:2](=[O:3])[N+:4](=[C-:5][O:6][H:11])[H:10])([H:7])([H:8])[H:9]"
C       -1.73495496       0.09615269      -0.38415810
C       -0.41486690       0.62685118       0.11246752
O       -0.25465755       1.71113034       0.59662520
N        0.64202798      -0.28201899      -0.04787596
C        1.95056466       0.03334623       0.11389996
O        2.69781235      -0.95620831       0.40031969
H       -1.66762842      -0.16281813      -1.44298534
H       -2.49605840       0.85822654      -0.24453395
H       -2.01324802      -0.80654525       0.16368587
H        0.44025636      -1.22837466      -0.34924947
H        2.85075290       0.11025837       1.08180458
11
Frame=12 idx=003427 GeodesicLength=0.36061420033131614 rxn_smarts="[C:1]([C:2](=[O:3])[N:4]([C:5](=[O:6])[H:11])[H:10])([H:7])([H:8])[H:9]>>[C:1]([C:2](=[O:3])[N+:4](=[C-:5][O:6][H:11])[H:10])([H:7])([H:8])[H:9]"
C       -1.73334047       0.09668422      -0.38189595
C       -0.41035352       0.62436534       0.11023841
O       -0.24634346       1.70633424       0.59868253
N        0.64444871      -0.28486342      -0.05820992
C        1.95486789       0.03154296       0.09467982
O        2.69537731      -0.95258021       0.40590157
H       -1.67053822      -0.16183596      -1.44111797
H       -2.49237944       0.86020675      -0.23899805
H       -2.01132104      -0.80590830       0.16629241
H        0.43939750      -1.23254925      -0.35208549
H        2.83018473       0.11860365       1.09651264
11
Frame=13 idx=003427 GeodesicLength=0.3914918018682129 rxn_smarts="[C:1]([C:2](=[O:3])[N:4]([C:5](=[O:6])[H:11])[H:10])([H:7])([H:8])[H:9]>>[C:1]([C:2](=[O:3])[N+:4](=[C-:5][O:6][H:11])[H:10])([H:7])([H:8])[H:9]"
C       -1.73167466       0.09714373      -0.37942562
C       -0.40563959       0.62208871       0.10738723
O       -0.23778645       1.70166434       0.60022669
N        0.64702274      -0.28745542      -0.06935888
C        1.95921576       0.02941490       0.07648469
O        2.69264606      -0.94906367       0.41196907
H       -1.67394084      -0.16097446      -1.43903427
H       -2.48867742       0.86199402      -0.23287690
H       -2.00888742      -0.80535312       0.16931378
H        0.43879411      -1.23634881      -0.35600919
H        2.80892772       0.12688978       1.11132340
11
Frame=14 idx=003427 GeodesicLength=0.4221820153609587 rxn_smarts="[C:1]([C:2](=[O:3])[N:4]([C:5](=[O:6])[H:11])[H:10])([H:7])([H:8])[H:9]>>[C:1]([C:2](=[O:3])[N+:4](=[C-:5][O:6][H:11])[H:10])([H:7])([H:8])[H:9]"
C       -1.72996042       0.09761506      -0.37702592
C       -0.40092417       0.61981711       0.10458776
O       -0.22927829       1.69697058       0.60182889
N        0.64956546      -0.29014318      -0.08004688
C        1.96339001       0.02715147       0.05930410
O        2.68993257      -0.94536111       0.41744654
H       -1.67712865      -0.16019846      -1.43699811
H       -2.48493270       0.86383724      -0.22702352
H       -2.00652133      -0.80471395       0.17233580
H        0.43826531      -1.24009710      -0.35980141
H        2.78759221       0.13512234       1.12539274
11
Frame=15 idx=003427 GeodesicLength=0.45315083013575275 rxn_smarts="[C:1]([C:2](=[O:3])[N:4]([C:5](=[O:6])[H:11])[H:10])([H:7])([H:8])[H:9]>>[C:1]([C:2](=[O:3])[N+:4](=[C-:5][O:6][H:11])[H:10])([H:7])([H:8])[H:9]"
C       -1.72814984       0.09808709      -0.37465850
C       -0.39620834       0.61753792       0.10178808
O       -0.22071627       1.69217752       0.60347567
N        0.65195033      -0.29288442      -0.09048126
C        1.96740668       0.02463899       0.04278308
O        2.68713644      -0.94159286       0.42286616
H       -1.68017136      -0.15935800      -1.43491602
H       -2.48101204       0.86565179      -0.22121364
H       -2.00411867      -0.80409387       0.17523436
H        0.43766360      -1.24376732      -0.36366133
H        2.76621947       0.14360316       1.13878338
11
Frame=16 idx=003427 GeodesicLength=0.4841113400273405 rxn_smarts="[C:1]([C:2](=[O:3])[N:4]([C:5](=[O:6])[H:11])[H:10])([H:7])([H:8])[H:9]>>[C:1]([C:2](=[O:3])[N+:4](=[C-:5][O:6][H:11])[H:10])([H:7])([H:8])[H:9]"
C       -1.72634668       0.09865067      -0.37256772
C       -0.39170156       0.61509536       0.09955553
O       -0.21243148       1.68722003       0.60566886
N        0.65409214      -0.29597121      -0.09969386
C        1.97116461       0.02200463       0.02688672
O        2.68471251      -0.93755359       0.42735333
H       -1.68259918      -0.15843094      -1.43309756
H       -2.47707263       0.86770159      -0.21615138
H       -2.00220914      -0.80334022       0.17769659
H        0.43691558      -1.24767648      -0.36657361
H        2.74547585       0.15230017       1.15092311
