19
Frame=0 idx=009702 GeodesicLength=0.0 rxn_smarts="[C:1]([C@@:2]1([H:11])[C@@:3]2([H:12])[C:4]([H:13])([H:14])[C:5]([H:15])([H:16])[C:6]([H:17])([H:18])[C@@:7]12[H:19])([H:8])([H:9])[H:10]>>[C:1](=[C:2]([C:7]1=[C:3]([H:12])[C:4]([H:13])([H:14])[C:5]([H:15])([H:16])[C:6]1([H:17])[H:18])[H:11])([H:8])[H:9].[H:10][H:19]"
C       -1.88100937      -0.31707831       0.69099276
C       -1.24725153      -0.31012503      -0.56572210
C        0.14387353       0.16664552      -1.38144032
C        1.05563608       1.27798756      -0.93845619
C        1.22689079       1.01325989       0.56158039
C        1.00672438      -0.50134385       0.70483010
C        0.08644702      -0.91575414      -0.42963099
H       -1.39112700       0.07656347       1.57195465
H       -2.96323618      -0.33651181       0.74433333
H       -1.34844762      -1.85701999       0.86869623
H       -1.84554780      -0.72432590      -1.36893629
H       -0.13686251       0.08003440      -2.42338047
H        2.00332304       1.18128896      -1.47930133
H        0.65368898       2.26693519      -1.16366311
H        2.19467424       1.33666173       0.94452082
H        0.46000180       1.55926814       1.11459572
H        0.63661229      -0.80209182       1.68591076
H        1.94546199      -1.04032663       0.54585946
H       -0.59985205      -2.15406732       0.31725664
19
Frame=1 idx=009702 GeodesicLength=0.08706075256440356 rxn_smarts="[C:1]([C@@:2]1([H:11])[C@@:3]2([H:12])[C:4]([H:13])([H:14])[C:5]([H:15])([H:16])[C:6]([H:17])([H:18])[C@@:7]12[H:19])([H:8])([H:9])[H:10]>>[C:1](=[C:2]([C:7]1=[C:3]([H:12])[C:4]([H:13])([H:14])[C:5]([H:15])([H:16])[C:6]1([H:17])[H:18])[H:11])([H:8])[H:9].[H:10][H:19]"
C       -1.90044128      -0.33177461       0.69464966
C       -1.25780758      -0.30545679      -0.55834219
C        0.14251735       0.17291897      -1.38097675
C        1.06187174       1.27954464      -0.94159029
C        1.24191678       1.01589265       0.55800302
C        1.00591365      -0.49559480       0.70742168
C        0.08166142      -0.90292012      -0.42601234
H       -1.42970512       0.08999503       1.57342565
H       -2.98275633      -0.37205275       0.73876440
H       -1.34352465      -1.87083999       0.87504409
H       -1.85616817      -0.70863227      -1.36764072
H       -0.13161722       0.08054707      -2.42426655
H        2.00640457       1.17960381      -1.48734834
H        0.66427722       2.27115551      -1.16334698
H        2.21690037       1.32853012       0.93160148
H        0.48567713       1.57051155       1.11700953
H        0.63933997      -0.78379052       1.69360555
H        1.93828588      -1.04717708       0.55443015
H       -0.58274571      -2.17046040       0.30556895
19
Frame=2 idx=009702 GeodesicLength=0.1738039538781841 rxn_smarts="[C:1]([C@@:2]1([H:11])[C@@:3]2([H:12])[C:4]([H:13])([H:14])[C:5]([H:15])([H:16])[C:6]([H:17])([H:18])[C@@:7]12[H:19])([H:8])([H:9])[H:10]>>[C:1](=[C:2]([C:7]1=[C:3]([H:12])[C:4]([H:13])([H:14])[C:5]([H:15])([H:16])[C:6]1([H:17])[H:18])[H:11])([H:8])[H:9].[H:10][H:19]"
C       -1.91986011      -0.34675694       0.69844996
C       -1.26853933      -0.30057554      -0.55056417
C        0.14107871       0.17927045      -1.38037982
C        1.06821049       1.28102698      -0.94477864
C        1.25714980       1.01845392       0.55431166
C        1.00506098      -0.48965926       0.71017324
C        0.07666174      -0.88981993      -0.42208491
H       -1.46990047       0.10319974       1.57456893
H       -3.00178907      -0.40824535       0.73294503
H       -1.33834182      -1.88462004       0.88151241
H       -1.86705613      -0.69226137      -1.36591723
H       -0.12643384       0.08089569      -2.42493467
H        2.00948924       1.17765821      -1.49550621
H        0.67513790       2.27531792      -1.16314213
H        2.23922897       1.32001109       0.91840733
H        0.51188185       1.58179578       1.11922901
H        0.64215556      -0.76510528       1.70137620
H        1.93078328      -1.05391673       0.56323175
H       -0.56491773      -2.18666935       0.29310226
19
Frame=3 idx=009702 GeodesicLength=0.26027210333333894 rxn_smarts="[C:1]([C@@:2]1([H:11])[C@@:3]2([H:12])[C:4]([H:13])([H:14])[C:5]([H:15])([H:16])[C:6]([H:17])([H:18])[C@@:7]12[H:19])([H:8])([H:9])[H:10]>>[C:1](=[C:2]([C:7]1=[C:3]([H:12])[C:4]([H:13])([H:14])[C:5]([H:15])([H:16])[C:6]1([H:17])[H:18])[H:11])([H:8])[H:9].[H:10][H:19]"
C       -1.93926038      -0.36200371       0.70239906
C       -1.27944793      -0.29547206      -0.54236435
C        0.13955561       0.18569477      -1.37964081
C        1.07465317       1.28242425      -0.94802518
C        1.27259817       1.02093694       0.55049981
C        1.00416885      -0.48352788       0.71309498
C        0.07144477      -0.87644529      -0.41782904
H       -1.51180661       0.11608899       1.57536755
H       -3.02030147      -0.44508109       0.72684355
H       -1.33290833      -1.89833699       0.88812124
H       -1.87821816      -0.67518751      -1.36372847
H       -0.12132670       0.08106789      -2.42536866
H        2.01257118       1.17543543      -1.50378170
H        0.68627645       2.27941118      -1.16305768
H        2.26166262       1.31108647       0.90492545
H        0.53864058       1.59312046       1.12124162
H        0.64507555      -0.74602170       1.70922949
H        1.92294620      -1.06053381       0.57228182
H       -0.54632358      -2.20265636       0.27979132
19
Frame=4 idx=009702 GeodesicLength=0.3465140970266933 rxn_smarts="[C:1]([C@@:2]1([H:11])[C@@:3]2([H:12])[C:4]([H:13])([H:14])[C:5]([H:15])([H:16])[C:6]([H:17])([H:18])[C@@:7]12[H:19])([H:8])([H:9])[H:10]>>[C:1](=[C:2]([C:7]1=[C:3]([H:12])[C:4]([H:13])([H:14])[C:5]([H:15])([H:16])[C:6]1([H:17])[H:18])[H:11])([H:8])[H:9].[H:10][H:19]"
C       -1.95864193      -0.37749525       0.70649873
C       -1.29053515      -0.29013835      -0.53371885
C        0.13794600       0.19218551      -1.37875116
C        1.08119912       1.28372465      -0.95133415
C        1.28827103       1.02333382       0.54656009
C        1.00323809      -0.47719065       0.71619819
C        0.06600725      -0.86278689      -0.41322374
H       -1.55551563       0.12856629       1.57580573
H       -3.03825433      -0.48255034       0.72042390
H       -1.32723452      -1.91196410       0.89490171
H       -1.88965900      -0.65737624      -1.36103426
H       -0.11631079       0.08104757      -2.42554707
H        2.01564193       1.17291645      -1.51218223
H        0.69769641       2.28342110      -1.16310312
H        2.28420407       1.30173357       0.89114036
H        0.56598125       1.60448527       1.12303346
H        0.64811236      -0.72652238       1.71717358
H        1.91476767      -1.06701297       0.58160321
H       -0.52691383      -2.21837707       0.26555563
19
Frame=5 idx=009702 GeodesicLength=0.4325719012786232 rxn_smarts="[C:1]([C@@:2]1([H:11])[C@@:3]2([H:12])[C:4]([H:13])([H:14])[C:5]([H:15])([H:16])[C:6]([H:17])([H:18])[C@@:7]12[H:19])([H:8])([H:9])[H:10]>>[C:1](=[C:2]([C:7]1=[C:3]([H:12])[C:4]([H:13])([H:14])[C:5]([H:15])([H:16])[C:6]1([H:17])[H:18])[H:11])([H:8])[H:9].[H:10][H:19]"
C       -1.97800346      -0.39320447       0.71075392
C       -1.30180240      -0.28456888      -0.52460385
C        0.13624706       0.19873495      -1.37770028
C        1.08784806       1.28491668      -0.95470803
C        1.30417791       1.02563424       0.54248560
C        1.00227255      -0.47064004       0.71949281
C        0.06034732      -0.84883642      -0.40824947
H       -1.60113173       0.14054163       1.57584843
H       -3.05560446      -0.52064558       0.71365419
H       -1.32133038      -1.92546733       0.90189595
H       -1.90138564      -0.63880238      -1.35779510
H       -0.11140299       0.08082157      -2.42545031
H        2.01869453       1.17008495      -1.52071394
H        0.70940058       2.28733581      -1.16328463
H        2.30685402       1.29193045       0.87703911
H        0.59393375       1.61588459       1.12459235
H        0.65128211      -0.70659331       1.72521441
H        1.90624408      -1.07334249       0.59121552
H       -0.50664090      -2.23378397       0.25031331
19
Frame=6 idx=009702 GeodesicLength=0.5184796243235966 rxn_smarts="[C:1]([C@@:2]1([H:11])[C@@:3]2([H:12])[C:4]([H:13])([H:14])[C:5]([H:15])([H:16])[C:6]([H:17])([H:18])[C@@:7]12[H:19])([H:8])([H:9])[H:10]>>[C:1](=[C:2]([C:7]1=[C:3]([H:12])[C:4]([H:13])([H:14])[C:5]([H:15])([H:16])[C:6]1([H:17])[H:18])[H:11])([H:8])[H:9].[H:10][H:19]"
C       -1.99735434      -0.40911111       0.71516659
C       -1.31325290      -0.27874995      -0.51498837
C        0.13445478       0.20533784      -1.37647533
C        1.09459946       1.28598625      -0.95815084
C        1.32033301       1.02782823       0.53826781
C        1.00127309      -0.46386352       0.72299312
C        0.05445862      -0.83458163      -0.40288077
H       -1.64876287       0.15189581       1.57546000
H       -3.07230522      -0.55936591       0.70648917
H       -1.31520376      -1.93880958       0.90915194
H       -1.91340300      -0.61942869      -1.35396351
H       -0.10662233       0.08037503      -2.42505676
H        2.02171750       1.16691728      -1.52938607
H        0.72139555       2.29113831      -1.16361231
H        2.32961999       1.28164539       0.86260218
H        0.62253737       1.62731848       1.12590283
H        0.65460191      -0.68620979       1.73336241
H        1.89736438      -1.07950692       0.60114708
H       -0.48545124      -2.24881552       0.23397083
19
Frame=7 idx=009702 GeodesicLength=0.6042674482612266 rxn_smarts="[C:1]([C@@:2]1([H:11])[C@@:3]2([H:12])[C:4]([H:13])([H:14])[C:5]([H:15])([H:16])[C:6]([H:17])([H:18])[C@@:7]12[H:19])([H:8])([H:9])[H:10]>>[C:1](=[C:2]([C:7]1=[C:3]([H:12])[C:4]([H:13])([H:14])[C:5]([H:15])([H:16])[C:6]1([H:17])[H:18])[H:11])([H:8])[H:9].[H:10][H:19]"
C       -2.01670191      -0.42518470       0.71973866
C       -1.32488749      -0.27267447      -0.50484381
C        0.13256472       0.21198651      -1.37506303
C        1.10145230       1.28691871      -0.96166589
C        1.33674834       1.02990250       0.53389877
C        1.00024261      -0.45685187       0.72671172
C        0.04833903      -0.82001191      -0.39709405
H       -1.69850993       0.16250515       1.57459886
H       -3.08830928      -0.59869929       0.69888527
H       -1.30886598      -1.95194519       0.91673676
H       -1.92571158      -0.59922679      -1.34949120
H       -0.10198944       0.07969333      -2.42434601
H        2.02469925       1.16339002      -1.53820611
H        0.73368498       2.29481292      -1.16409436
H        2.35250175       1.27085059       0.84781484
H        0.65182760       1.63878027       1.12694904
H        0.65808361      -0.66535407       1.74162497
H        1.88812323      -1.08549061       0.61142288
H       -0.46329181      -2.26340111       0.21642270
19
Frame=8 idx=009702 GeodesicLength=0.689949032020168 rxn_smarts="[C:1]([C@@:2]1([H:11])[C@@:3]2([H:12])[C:4]([H:13])([H:14])[C:5]([H:15])([H:16])[C:6]([H:17])([H:18])[C@@:7]12[H:19])([H:8])([H:9])[H:10]>>[C:1](=[C:2]([C:7]1=[C:3]([H:12])[C:4]([H:13])([H:14])[C:5]([H:15])([H:16])[C:6]1([H:17])[H:18])[H:11])([H:8])[H:9].[H:10][H:19]"
C       -2.03605566      -0.44139913       0.72447192
C       -1.33670587      -0.26633370      -0.49413784
C        0.13057426       0.21867207      -1.37344806
C        1.10840435       1.28769729      -0.96525730
C        1.35343383       1.03184225       0.52936969
C        0.99918449      -0.44959349       0.73066396
C        0.04198572      -0.80511727      -0.39086342
H       -1.75048631       0.17223493       1.57322476
H       -3.10355713      -0.63863150       0.69080017
H       -1.30231937      -1.96481980       0.92472631
H       -1.93831405      -0.57816459      -1.34432819
H       -0.09752225       0.07876274      -2.42329225
H        2.02762804       1.15947701      -1.54717933
H        0.74627165       2.29833983      -1.16474560
H        2.37549706       1.25950981       0.83266062
H        0.68183977       1.65026216       1.12770893
H        0.66174543      -0.64400106       1.75000756
H        1.87851609      -1.09127718       0.62207930
H       -0.44012005      -2.27746038       0.19753876
19
Frame=9 idx=009702 GeodesicLength=0.7758184485500967 rxn_smarts="[C:1]([C@@:2]1([H:11])[C@@:3]2([H:12])[C:4]([H:13])([H:14])[C:5]([H:15])([H:16])[C:6]([H:17])([H:18])[C@@:7]12[H:19])([H:8])([H:9])[H:10]>>[C:1](=[C:2]([C:7]1=[C:3]([H:12])[C:4]([H:13])([H:14])[C:5]([H:15])([H:16])[C:6]1([H:17])[H:18])[H:11])([H:8])[H:9].[H:10][H:19]"
C       -2.05554235      -0.45773441       0.72934317
C       -1.34874722      -0.25973696      -0.48283084
C        0.12843899       0.22544339      -1.37158841
C        1.11545138       1.28833485      -0.96890844
C        1.37048554       1.03360147       0.52466784
C        0.99809205      -0.44207734       0.73487094
C        0.03537383      -0.78983410      -0.38415060
H       -1.80477113       0.18103147       1.57103370
H       -3.11807404      -0.67945769       0.68209111
H       -1.29559728      -1.97724763       0.93347739
H       -1.95118765      -0.55624719      -1.33844450
H       -0.09327290       0.07762524      -2.42185456
H        2.03045472       1.15519201      -1.55635462
H        0.75916216       2.30174319      -1.16549834
H        2.39870812       1.24749970       0.81705866
H        0.71280085       1.66176868       1.12821650
H        0.66556785      -0.62211392       1.75853872
H        1.86851197      -1.09687581       0.63313122
H       -0.41585490      -2.29091495       0.17720105
19
Frame=10 idx=009702 GeodesicLength=0.8615852679795427 rxn_smarts="[C:1]([C@@:2]1([H:11])[C@@:3]2([H:12])[C:4]([H:13])([H:14])[C:5]([H:15])([H:16])[C:6]([H:17])([H:18])[C@@:7]12[H:19])([H:8])([H:9])[H:10]>>[C:1](=[C:2]([C:7]1=[C:3]([H:12])[C:4]([H:13])([H:14])[C:5]([H:15])([H:16])[C:6]1([H:17])[H:18])[H:11])([H:8])[H:9].[H:10][H:19]"
C       -2.07507433      -0.47416409       0.73437480
C       -1.36098491      -0.25285511      -0.47089644
C        0.12618746       0.23224151      -1.36949276
C        1.12259255       1.28878459      -0.97263781
C        1.38783578       1.03518422       0.51978717
C        0.99697052      -0.43429261       0.73934150
C        0.02851374      -0.77419840      -0.37694278
H       -1.86149114       0.18867620       1.56815328
H       -3.13169484      -0.72088899       0.67279729
H       -1.28868372      -1.98928265       0.94284359
H       -1.96436464      -0.53339442      -1.33176375
H       -0.08924502       0.07622224      -2.42002024
H        2.03319681       1.15046916      -1.56569863
H        0.77236207       2.30496412      -1.16642827
H        2.42203228       1.23484876       0.80105036
H        0.74458240       1.67326554       1.12840091
H        0.66959943      -0.59967395       1.76721108
H        1.85811423      -1.10225152       0.64462796
H       -0.39044866      -2.30365461       0.15529277
19
Frame=11 idx=009702 GeodesicLength=0.9472539797962876 rxn_smarts="[C:1]([C@@:2]1([H:11])[C@@:3]2([H:12])[C:4]([H:13])([H:14])[C:5]([H:15])([H:16])[C:6]([H:17])([H:18])[C@@:7]12[H:19])([H:8])([H:9])[H:10]>>[C:1](=[C:2]([C:7]1=[C:3]([H:12])[C:4]([H:13])([H:14])[C:5]([H:15])([H:16])[C:6]1([H:17])[H:18])[H:11])([H:8])[H:9].[H:10][H:19]"
C       -2.09468109      -0.49066859       0.73956029
C       -1.37342653      -0.24567598      -0.45829914
C        0.12380826       0.23906338      -1.36714147
C        1.12982541       1.28902980      -0.97644369
C        1.40550435       1.03656405       0.51471778
C        0.99581803      -0.42622989       0.74409107
C        0.02139859      -0.75819372      -0.36921357
H       -1.92074380       0.19505358       1.56446511
H       -3.14436941      -0.76295549       0.66286443
H       -1.28158757      -2.00085479       0.95294968
H       -1.97784455      -0.50956778      -1.32422932
H       -0.08547654       0.07455069      -2.41776062
H        2.03583428       1.14528191      -1.57522116
H        0.78587882       2.30798512      -1.16753099
H        2.44547939       1.22149979       0.78460890
H        0.77724464       1.68473465       1.12824738
H        0.67385553      -0.57665398       1.77603804
H        1.84730468      -1.10739550       0.65660014
H       -0.36382250      -2.31556724       0.13169715
19
Frame=12 idx=009702 GeodesicLength=1.0328191077231115 rxn_smarts="[C:1]([C@@:2]1([H:11])[C@@:3]2([H:12])[C:4]([H:13])([H:14])[C:5]([H:15])([H:16])[C:6]([H:17])([H:18])[C@@:7]12[H:19])([H:8])([H:9])[H:10]>>[C:1](=[C:2]([C:7]1=[C:3]([H:12])[C:4]([H:13])([H:14])[C:5]([H:15])([H:16])[C:6]1([H:17])[H:18])[H:11])([H:8])[H:9].[H:10][H:19]"
C       -2.11440024      -0.50723006       0.74488915
C       -1.38608064      -0.23818802      -0.44499952
C        0.12128811       0.24590525      -1.36451274
C        1.13714567       1.28904836      -0.98032612
C        1.42350656       1.03771248       0.50944922
C        0.99462769      -0.41787682       0.74913961
C        0.01401831      -0.74180537      -0.36093340
H       -1.98261269       0.20002366       1.55985714
H       -3.15600997      -0.80568128       0.65223030
H       -1.27431867      -2.01188377       0.96393835
H       -1.99162869      -0.48472452      -1.31577557
H       -0.08200673       0.07260745      -2.41504568
H        2.03834506       1.13959515      -1.58493167
H        0.79972176       2.31078438      -1.16880958
H        2.46905033       1.20738598       0.76770879
H        0.81084880       1.69615645       1.12773423
H        0.67834193      -0.55301768       1.78503362
H        1.83605959      -1.11229611       0.66909249
H       -0.33589618      -2.32651553       0.10626138
19
Frame=13 idx=009702 GeodesicLength=1.1182467453227658 rxn_smarts="[C:1]([C@@:2]1([H:11])[C@@:3]2([H:12])[C:4]([H:13])([H:14])[C:5]([H:15])([H:16])[C:6]([H:17])([H:18])[C@@:7]12[H:19])([H:8])([H:9])[H:10]>>[C:1](=[C:2]([C:7]1=[C:3]([H:12])[C:4]([H:13])([H:14])[C:5]([H:15])([H:16])[C:6]1([H:17])[H:18])[H:11])([H:8])[H:9].[H:10][H:19]"
C       -2.13426242      -0.52383025       0.75035370
C       -1.39895320      -0.23038403      -0.43096339
C        0.11861550       0.25276228      -1.36158512
C        1.14454857       1.28882112      -0.98428276
C        1.44185414       1.03859655       0.50397225
C        0.99339759      -0.40922605       0.75450153
C        0.00636796      -0.72501931      -0.35207797
H       -2.04716049       0.20346591       1.55418860
H       -3.16655092      -0.84908392       0.64085944
H       -1.26688133      -2.02228213       0.97595970
H       -2.00571070      -0.45882506      -1.30634326
H       -0.07887070       0.07039268      -2.41184723
H        2.04070846       1.13337864      -1.59483261
H        0.81389625       2.31334145      -1.17026347
H        2.49273220       1.19244933       0.75033423
H        0.84544160       1.70749913       1.12683859
H        0.68307516      -0.52874014       1.79420232
H        1.82435956      -1.11694308       0.68214228
H       -0.30660724      -2.33637314       0.07884319
19
Frame=14 idx=009702 GeodesicLength=1.2035158464480302 rxn_smarts="[C:1]([C@@:2]1([H:11])[C@@:3]2([H:12])[C:4]([H:13])([H:14])[C:5]([H:15])([H:16])[C:6]([H:17])([H:18])[C@@:7]12[H:19])([H:8])([H:9])[H:10]>>[C:1](=[C:2]([C:7]1=[C:3]([H:12])[C:4]([H:13])([H:14])[C:5]([H:15])([H:16])[C:6]1([H:17])[H:18])[H:11])([H:8])[H:9].[H:10][H:19]"
C       -2.15430995      -0.54044095       0.75594589
C       -1.41205282      -0.22225146      -0.41614403
C        0.11577387       0.25963703      -1.35833353
C        1.15202650       1.28832549      -0.98831037
C        1.46056154       1.03917722       0.49827773
C        0.99212407      -0.40026772       0.76019408
C       -0.00156310      -0.70782060      -0.34261916
H       -2.11447085       0.20520389       1.54726612
H       -3.17587669      -0.89319092       0.62868631
H       -1.25928776      -2.03193078       0.98921849
H       -2.02009391      -0.43183161      -1.29585951
H       -0.07611715       0.06791856      -2.40813362
H        2.04289464       1.12659743      -1.60493307
H        0.82841008       2.31563580      -1.17188917
H        2.51651862       1.17660336       0.73246013
H        0.88109021       1.71872480       1.12553918
H        0.68807489      -0.50378996       1.80355240
H        1.81217884      -1.12132530       0.69579014
H       -0.27588105      -2.34497428       0.04929198
19
Frame=15 idx=009702 GeodesicLength=1.2885846912218242 rxn_smarts="[C:1]([C@@:2]1([H:11])[C@@:3]2([H:12])[C:4]([H:13])([H:14])[C:5]([H:15])([H:16])[C:6]([H:17])([H:18])[C@@:7]12[H:19])([H:8])([H:9])[H:10]>>[C:1](=[C:2]([C:7]1=[C:3]([H:12])[C:4]([H:13])([H:14])[C:5]([H:15])([H:16])[C:6]1([H:17])[H:18])[H:11])([H:8])[H:9].[H:10][H:19]"
C       -2.17458128      -0.55702243       0.76165925
C       -1.42538625      -0.21377989      -0.40049963
C        0.11274661       0.26652970      -1.35473417
C        1.15957177       1.28753929      -0.99240471
C        1.47963510       1.03941081       0.49235698
C        0.99080436      -0.39099828       0.76622814
C       -0.00978388      -0.69019791      -0.33253524
H       -2.18459306       0.20505231       1.53888000
H       -3.18386377      -0.93801187       0.61566486
H       -1.25155566      -2.04069619       1.00393536
H       -2.03477609      -0.40371254      -1.28425596
H       -0.07379400       0.06520058      -2.40387679
H        2.04487774       1.11921886      -1.61523517
H        0.84327109       2.31764638      -1.17368279
H        2.54038308       1.15977603       0.71407549
H        0.91784149       1.72978186       1.12381129
H        0.69336450      -0.47814794       1.81308323
H        1.79949268      -1.12543523       0.71006757
H       -0.24365444      -2.35215354       0.01746230
19
Frame=16 idx=009702 GeodesicLength=1.3734323200200953 rxn_smarts="[C:1]([C@@:2]1([H:11])[C@@:3]2([H:12])[C:4]([H:13])([H:14])[C:5]([H:15])([H:16])[C:6]([H:17])([H:18])[C@@:7]12[H:19])([H:8])([H:9])[H:10]>>[C:1](=[C:2]([C:7]1=[C:3]([H:12])[C:4]([H:13])([H:14])[C:5]([H:15])([H:16])[C:6]1([H:17])[H:18])[H:11])([H:8])[H:9].[H:10][H:19]"
C       -2.19511647      -0.57353231       0.76748949
C       -1.43896322      -0.20496353      -0.38398681
C        0.10951363       0.27344364      -1.35076122
C        1.16717280       1.28644037      -0.99655599
C        1.49907875       1.03924525       0.48620309
C        0.98943888      -0.38141983       0.77261073
C       -0.01830386      -0.67214399      -0.32181082
H       -2.25758763       0.20282735       1.52875608
H       -3.19036355      -0.98355388       0.60176084
H       -1.24370989      -2.04841469       1.02037944
H       -2.04976522      -0.37444610      -1.27146442
H       -0.07195872       0.06226740      -2.39904584
H        2.04662584       1.11121116      -1.62573689
H        0.85848503       2.31935336      -1.17562954
H        2.56429658       1.14187933       0.69516865
H        0.95574342       1.74060237       1.12163265
H        0.69897686      -0.45180420       1.82279086
H        1.78628056      -1.12926909       0.72499817
H       -0.20984377      -2.35772261      -0.01679846
