11
Frame=0 idx=000888 GeodesicLength=0.0 rxn_smarts="[N:1](=[C:2]1/[C:3]([H:8])=[C:4]([H:9])[C:5]([H:10])([H:11])[O:6]1)\[H:7]>>[N:1](=[C:2]=[C:3]([C:4](=[C:5]([O:6][H:11])[H:10])[H:9])[H:8])[H:7]"
N        2.27986000      -0.04197262       0.01775020
C        1.02974292       0.03035636      -0.07072058
C        0.12347148       1.10960738      -0.31571440
C       -1.16282028       0.71106817      -0.14816116
C       -1.30889895      -0.63709604       0.23064041
O        0.18586594      -1.14246824       0.14663523
H        2.61460565      -0.98743292       0.16506235
H        0.46971338       2.09814112      -0.56639050
H       -2.02695819       1.35127017      -0.27003507
H       -1.93294651      -1.34314579      -0.30236852
H       -0.27163539      -1.14832756       1.11330201
11
Frame=1 idx=000888 GeodesicLength=0.08930569629794989 rxn_smarts="[N:1](=[C:2]1/[C:3]([H:8])=[C:4]([H:9])[C:5]([H:10])([H:11])[O:6]1)\[H:7]>>[N:1](=[C:2]=[C:3]([C:4](=[C:5]([O:6][H:11])[H:10])[H:9])[H:8])[H:7]"
N        2.28629607      -0.03253105       0.03265401
C        1.03740495       0.04063130      -0.05761306
C        0.12862977       1.11468915      -0.30487982
C       -1.15969648       0.71148339      -0.14545972
C       -1.30415602      -0.63831917       0.22858871
O        0.17665108      -1.14736587       0.15507119
H        2.62496041      -0.98297261       0.13215699
H        0.47042800       2.09676883      -0.58575466
H       -2.02457322       1.34802319      -0.27875526
H       -1.93737158      -1.33779116      -0.30255410
H       -0.29857297      -1.17261600       1.12654572
11
Frame=2 idx=000888 GeodesicLength=0.17860462701318003 rxn_smarts="[N:1](=[C:2]1/[C:3]([H:8])=[C:4]([H:9])[C:5]([H:10])([H:11])[O:6]1)\[H:7]>>[N:1](=[C:2]=[C:3]([C:4](=[C:5]([O:6][H:11])[H:10])[H:9])[H:8])[H:7]"
N        2.29289847      -0.02330215       0.04801711
C        1.04529646       0.05098752      -0.04464527
C        0.13396795       1.11990456      -0.29358083
C       -1.15629303       0.71211119      -0.14165500
C       -1.29934425      -0.63955355       0.22658610
O        0.16741824      -1.15253466       0.16366863
H        2.63533325      -0.97635726       0.09952322
H        0.47119339       2.09370525      -0.60732958
H       -2.02170250       1.34507762      -0.28628014
H       -1.94176913      -1.33184898      -0.30320027
H       -0.32699886      -1.19818953       1.13889603
11
Frame=3 idx=000888 GeodesicLength=0.2679087422289028 rxn_smarts="[N:1](=[C:2]1/[C:3]([H:8])=[C:4]([H:9])[C:5]([H:10])([H:11])[O:6]1)\[H:7]>>[N:1](=[C:2]=[C:3]([C:4](=[C:5]([O:6][H:11])[H:10])[H:9])[H:8])[H:7]"
N        2.29968031      -0.01448721       0.06273060
C        1.05342158       0.06118622      -0.03277818
C        0.13944314       1.12474933      -0.28371592
C       -1.15263815       0.71273324      -0.13760061
C       -1.29445279      -0.64073090       0.22483508
O        0.15814016      -1.15800738       0.17278367
H        2.64574476      -0.96778017       0.06771730
H        0.47213173       2.09003310      -0.62774631
H       -2.01838386       1.34220794      -0.29348652
H       -1.94625174      -1.32562621      -0.30344718
H       -0.35683513      -1.22427796       1.15070805
11
Frame=4 idx=000888 GeodesicLength=0.35720496283157127 rxn_smarts="[N:1](=[C:2]1/[C:3]([H:8])=[C:4]([H:9])[C:5]([H:10])([H:11])[O:6]1)\[H:7]>>[N:1](=[C:2]=[C:3]([C:4](=[C:5]([O:6][H:11])[H:10])[H:9])[H:8])[H:7]"
N        2.30668684      -0.00610648       0.07625119
C        1.06181682       0.07117755      -0.02240920
C        0.14502572       1.12912331      -0.27567499
C       -1.14875743       0.71331703      -0.13334779
C       -1.28945827      -0.64186051       0.22342713
O        0.14882821      -1.16378836       0.18248091
H        2.65623043      -0.95752947       0.03727579
H        0.47320096       2.08630826      -0.64629010
H       -2.01468042       1.33930582      -0.30060493
H       -1.95082858      -1.31917318      -0.30310277
H       -0.38806429      -1.25077396       1.16199475
11
Frame=5 idx=000888 GeodesicLength=0.4465023078293301 rxn_smarts="[N:1](=[C:2]1/[C:3]([H:8])=[C:4]([H:9])[C:5]([H:10])([H:11])[O:6]1)\[H:7]>>[N:1](=[C:2]=[C:3]([C:4](=[C:5]([O:6][H:11])[H:10])[H:9])[H:8])[H:7]"
N        2.31392651       0.00195053       0.08858225
C        1.07050371       0.08100680      -0.01358394
C        0.15073577       1.13304691      -0.26924804
C       -1.14465274       0.71381735      -0.12890481
C       -1.28436005      -0.64298871       0.22230457
O        0.13949217      -1.16982978       0.19293743
H        2.66685155      -0.94578916       0.00821175
H        0.47438166       2.08259849      -0.66334332
H       -2.01059860       1.33635934      -0.30733371
H       -1.95538576      -1.31251246      -0.30235726
H       -0.42089421      -1.27765933       1.17273507
11
Frame=6 idx=000888 GeodesicLength=0.5358041611222136 rxn_smarts="[N:1](=[C:2]1/[C:3]([H:8])=[C:4]([H:9])[C:5]([H:10])([H:11])[O:6]1)\[H:7]>>[N:1](=[C:2]=[C:3]([C:4](=[C:5]([O:6][H:11])[H:10])[H:9])[H:8])[H:7]"
N        2.32145188       0.00975970       0.09964569
C        1.07952103       0.09073092      -0.00630866
C        0.15655517       1.13659707      -0.26420477
C       -1.14034081       0.71425930      -0.12413038
C       -1.27914225      -0.64414544       0.22147026
O        0.13016689      -1.17608936       0.20431625
H        2.67769093      -0.93284221      -0.01942683
H        0.47556533       2.07900090      -0.67925635
H       -2.00619396       1.33335277      -0.31359020
H       -1.95980382      -1.30563736      -0.30139916
H       -0.45547038      -1.30498628       1.18288416
11
Frame=7 idx=000888 GeodesicLength=0.625109603437974 rxn_smarts="[N:1](=[C:2]1/[C:3]([H:8])=[C:4]([H:9])[C:5]([H:10])([H:11])[O:6]1)\[H:7]>>[N:1](=[C:2]=[C:3]([C:4](=[C:5]([O:6][H:11])[H:10])[H:9])[H:8])[H:7]"
N        2.32929558       0.01741202       0.10944537
C        1.08890763       0.10039352      -0.00057390
C        0.16247350       1.13983978      -0.26035156
C       -1.13582165       0.71465708      -0.11889438
C       -1.27378567      -0.64536480       0.22090731
O        0.12088338      -1.18250790       0.21683226
H        2.68881395      -0.91890114      -0.04564607
H        0.47664484       2.07550238      -0.69446675
H       -2.00150105       1.33031073      -0.31914002
H       -1.96391544      -1.29854416      -0.30048434
H       -0.49199508      -1.33279751       1.19237207
11
Frame=8 idx=000888 GeodesicLength=0.7144011308846054 rxn_smarts="[N:1](=[C:2]1/[C:3]([H:8])=[C:4]([H:9])[C:5]([H:10])([H:11])[O:6]1)\[H:7]>>[N:1](=[C:2]=[C:3]([C:4](=[C:5]([O:6][H:11])[H:10])[H:9])[H:8])[H:7]"
N        2.33748617       0.02495439       0.11804563
C        1.09867140       0.11005293       0.00376752
C        0.16849685       1.14280163      -0.25751375
C       -1.13109998       0.71498617      -0.11319253
C       -1.26828824      -0.64668302       0.22058509
O        0.11167531      -1.18899973       0.23093643
H        2.70028000      -0.90410459      -0.07087900
H        0.47759527       2.07207128      -0.70918715
H       -1.99654529       1.32721859      -0.32388239
H       -1.96748873      -1.29129624      -0.29993420
H       -0.53078274      -1.36100141       1.20125436
11
Frame=9 idx=000888 GeodesicLength=0.8036776813309142 rxn_smarts="[N:1](=[C:2]1/[C:3]([H:8])=[C:4]([H:9])[C:5]([H:10])([H:11])[O:6]1)\[H:7]>>[N:1](=[C:2]=[C:3]([C:4](=[C:5]([O:6][H:11])[H:10])[H:9])[H:8])[H:7]"
N        2.34603223       0.03249511       0.12537027
C        1.10888200       0.11970477       0.00659077
C        0.17462236       1.14552708      -0.25559085
C       -1.12612086       0.71527532      -0.10674104
C       -1.26259753      -0.64812695       0.22051458
O        0.10253912      -1.19545082       0.24679116
H        2.71203770      -0.88856113      -0.09479038
H        0.47824496       2.06855491      -0.72399958
H       -1.99131450       1.32412980      -0.32736020
H       -1.97030340      -1.28384007      -0.30003696
H       -0.57202208      -1.38970802       1.20925222
11
Frame=10 idx=000888 GeodesicLength=0.8929404446025488 rxn_smarts="[N:1](=[C:2]1/[C:3]([H:8])=[C:4]([H:9])[C:5]([H:10])([H:11])[O:6]1)\[H:7]>>[N:1](=[C:2]=[C:3]([C:4](=[C:5]([O:6][H:11])[H:10])[H:9])[H:8])[H:7]"
N        2.35496406       0.04007171       0.13124304
C        1.11951104       0.12936902       0.00769544
C        0.18082104       1.14801098      -0.25457887
C       -1.12092332       0.71547536      -0.09968883
C       -1.25670604      -0.64973518       0.22066652
O        0.09353150      -1.20175057       0.26499349
H        2.72420638      -0.87257388      -0.11753192
H        0.47855045       2.06508167      -0.73870454
H       -1.98590385       1.32105647      -0.32940162
H       -1.97205810      -1.27632982      -0.30114629
H       -0.61599316      -1.41867575       1.21645358
11
Frame=11 idx=000888 GeodesicLength=0.9821864448825871 rxn_smarts="[N:1](=[C:2]1/[C:3]([H:8])=[C:4]([H:9])[C:5]([H:10])([H:11])[O:6]1)\[H:7]>>[N:1](=[C:2]=[C:3]([C:4](=[C:5]([O:6][H:11])[H:10])[H:9])[H:8])[H:7]"
N        2.36429250       0.04772857       0.13542118
C        1.13057901       0.13902318       0.00688099
C        0.18707135       1.15029395      -0.25436552
C       -1.11548957       0.71557447      -0.09193321
C       -1.25056863      -0.65153596       0.22107877
O        0.08466619      -1.20769979       0.28610896
H        2.73674949      -0.85640163      -0.13909640
H        0.47838058       2.06170607      -0.75333202
H       -1.98034489       1.31796816      -0.32987682
H       -1.97236795      -1.26885340      -0.30363142
H       -0.66296808      -1.44780363       1.22274548
11
Frame=12 idx=000888 GeodesicLength=1.0714192387999524 rxn_smarts="[N:1](=[C:2]1/[C:3]([H:8])=[C:4]([H:9])[C:5]([H:10])([H:11])[O:6]1)\[H:7]>>[N:1](=[C:2]=[C:3]([C:4](=[C:5]([O:6][H:11])[H:10])[H:9])[H:8])[H:7]"
N        2.37401780       0.05546416       0.13760393
C        1.14207479       0.14864165       0.00393789
C        0.19334350       1.15242746      -0.25478712
C       -1.10981983       0.71554916      -0.08346141
C       -1.24413708      -0.65355442       0.22181234
O        0.07595293      -1.21302456       0.31091570
H        2.74959451      -0.84036573      -0.15966538
H        0.47762745       2.05856080      -0.76768056
H       -1.97468309       1.31479201      -0.32882665
H       -1.97073429      -1.26157616      -0.30790519
H       -0.71323668      -1.47691437       1.22805645
11
Frame=13 idx=000888 GeodesicLength=1.1606106786264232 rxn_smarts="[N:1](=[C:2]1/[C:3]([H:8])=[C:4]([H:9])[C:5]([H:10])([H:11])[O:6]1)\[H:7]>>[N:1](=[C:2]=[C:3]([C:4](=[C:5]([O:6][H:11])[H:10])[H:9])[H:8])[H:7]"
N        2.38412448       0.06321619       0.13734948
C        1.15395562       0.15818244      -0.00132538
C        0.19960403       1.15450226      -0.25556716
C       -1.10392886       0.71536365      -0.07428940
C       -1.23734905      -0.65580057       0.22298940
O        0.06738111      -1.21731042       0.34039328
H        2.76255374      -0.82487062      -0.17954850
H        0.47619986       2.05588621      -0.78132682
H       -1.96896093       1.31135281      -0.32656130
H       -1.96651250      -1.25472220      -0.31438343
H       -0.76706750      -1.50579974       1.23226983
11
Frame=14 idx=000888 GeodesicLength=1.2497755332595666 rxn_smarts="[N:1](=[C:2]1/[C:3]([H:8])=[C:4]([H:9])[C:5]([H:10])([H:11])[O:6]1)\[H:7]>>[N:1](=[C:2]=[C:3]([C:4](=[C:5]([O:6][H:11])[H:10])[H:9])[H:8])[H:7]"
N        2.39457696       0.07080636       0.13407096
C        1.16612839       0.16764397      -0.00892619
C        0.20581555       1.15667197      -0.25623712
C       -1.09786767       0.71497132      -0.06460495
C       -1.23012249      -0.65827639       0.22479639
O        0.05890231      -1.21997065       0.37582044
H        2.77523609      -0.81044031      -0.19944770
H        0.47407893       2.05407949      -0.79344390
H       -1.96323092       1.30735400      -0.32386805
H       -1.95884366      -1.24865888      -0.32346047
H       -0.82467350      -1.53418087       1.23530061
11
Frame=15 idx=000888 GeodesicLength=1.338881246912484 rxn_smarts="[N:1](=[C:2]1/[C:3]([H:8])=[C:4]([H:9])[C:5]([H:10])([H:11])[O:6]1)\[H:7]>>[N:1](=[C:2]=[C:3]([C:4](=[C:5]([O:6][H:11])[H:10])[H:9])[H:8])[H:7]"
N        2.40529978       0.07792271       0.12706474
C        1.17842881       0.17706423      -0.01866153
C        0.21193322       1.15916997      -0.25614357
C       -1.09174270       0.71432098      -0.05472493
C       -1.22235199      -0.66094524       0.22752823
O        0.05039794      -1.22018528       0.41858304
H        2.78698194      -0.79774831      -0.22028356
H        0.47132596       2.05367936      -0.80291104
H       -1.95756598       1.30235341      -0.32200742
H       -1.94669365      -1.24383814      -0.33536555
H       -0.88601334      -1.56179368       1.23692159
11
Frame=16 idx=000888 GeodesicLength=1.4279283419282476 rxn_smarts="[N:1](=[C:2]1/[C:3]([H:8])=[C:4]([H:9])[C:5]([H:10])([H:11])[O:6]1)\[H:7]>>[N:1](=[C:2]=[C:3]([C:4](=[C:5]([O:6][H:11])[H:10])[H:9])[H:8])[H:7]"
N        2.41613067       0.08416956       0.11584932
C        1.19061940       0.18655861      -0.03004206
C        0.21790352       1.16227101      -0.25464049
C       -1.08570424       0.71340852      -0.04504707
C       -1.21394221      -0.66371214       0.23160345
O        0.04160898      -1.21703592       0.46961200
H        2.79691661      -0.78751792      -0.24289617
H        0.46808262       2.05518081      -0.80872344
H       -1.95204223       1.29590771      -0.32239917
H       -1.92912023      -1.24066899      -0.34990449
H       -0.95045288      -1.58856124       1.23658814
