13
Frame=0 idx=001300 GeodesicLength=0.0 rxn_smarts="[N:1]([C:2](=[O:3])[C:4]([C:5]([O:6][H:13])([H:11])[H:12])([H:9])[H:10])([H:7])[H:8]>>[C:4](=[C:5]([O:6][H:13])[H:11])([H:9])[H:10].[N:1]([C:2](=[O:3])[H:12])([H:7])[H:8]"
N       -1.24141600      -0.88279690      -0.92567113
C       -0.25962304       0.20641007      -0.83976884
O       -0.13193766       1.12447387      -1.68179283
C       -0.37334254       0.70796044       0.74751241
C        0.76782773      -0.11361420       0.94036980
O        1.95548099       0.43196720       1.08800216
H       -2.15965815      -0.44852448      -0.92588010
H       -1.13492454      -1.29525574      -1.84642698
H       -1.28705309       0.37637735       1.22484162
H       -0.18191242       1.77319041       0.77718610
H        0.65332440      -1.17710503       1.13332611
H        0.73883873      -0.47434581      -0.74035771
H        2.65439561      -0.22873718       1.04865935
13
Frame=1 idx=001300 GeodesicLength=0.18153757284952024 rxn_smarts="[N:1]([C:2](=[O:3])[C:4]([C:5]([O:6][H:13])([H:11])[H:12])([H:9])[H:10])([H:7])[H:8]>>[C:4](=[C:5]([O:6][H:13])[H:11])([H:9])[H:10].[N:1]([C:2](=[O:3])[H:12])([H:7])[H:8]"
N       -1.25389042      -0.87006999      -0.93595179
C       -0.28301484       0.22022641      -0.88074887
O       -0.19914374       1.13139763      -1.73275811
C       -0.35134714       0.71646555       0.74103718
C        0.77166165      -0.13207474       0.91769273
O        1.93884657       0.40709407       1.21377800
H       -2.18421187      -0.46957205      -0.88441487
H       -1.15074011      -1.33265329      -1.83109000
H       -1.26591996       0.42755013       1.24391835
H       -0.15794335       1.78182104       0.74518172
H        0.71606469      -1.21220948       1.03722818
H        0.76314383      -0.43791928      -0.77785180
H        2.65649466      -0.23005601       1.14397929
13
Frame=2 idx=001300 GeodesicLength=0.3620074235783505 rxn_smarts="[N:1]([C:2](=[O:3])[C:4]([C:5]([O:6][H:13])([H:11])[H:12])([H:9])[H:10])([H:7])[H:8]>>[C:4](=[C:5]([O:6][H:13])[H:11])([H:9])[H:10].[N:1]([C:2](=[O:3])[H:12])([H:7])[H:8]"
N       -1.26649239      -0.85829734      -0.94579483
C       -0.31035672       0.23585937      -0.92410802
O       -0.27601322       1.13927772      -1.78491766
C       -0.32636930       0.72664332       0.73214778
C        0.77881762      -0.14861481       0.88991620
O        1.90883390       0.36713751       1.34847426
H       -2.20564487      -0.49528730      -0.83728046
H       -1.16183447      -1.37386950      -1.80956876
H       -1.23848980       0.48256301       1.26267206
H       -0.12800083       1.79110664       0.70968012
H        0.78657746      -1.23760936       0.93037085
H        0.78768961      -0.39254682      -0.82041116
H        2.65128302      -0.23636244       1.24881962
13
Frame=3 idx=001300 GeodesicLength=0.5386126261089852 rxn_smarts="[N:1]([C:2](=[O:3])[C:4]([C:5]([O:6][H:13])([H:11])[H:12])([H:9])[H:10])([H:7])[H:8]>>[C:4](=[C:5]([O:6][H:13])[H:11])([H:9])[H:10].[N:1]([C:2](=[O:3])[H:12])([H:7])[H:8]"
N       -1.27787731      -0.84763131      -0.95390656
C       -0.34191937       0.25313700      -0.96935683
O       -0.36335064       1.14689926      -1.83737829
C       -0.29797873       0.73893130       0.72029812
C        0.78958943      -0.16154778       0.85638896
O        1.86020398       0.30652142       1.48917628
H       -2.22090895      -0.52670392      -0.78186432
H       -1.16530045      -1.41789955      -1.77946438
H       -1.20377773       0.54219373       1.28045794
H       -0.09080486       1.80052973       0.66930585
H        0.86598683      -1.24912805       0.81142969
H        0.81175533      -0.33608706      -0.86822151
H        2.63438246      -0.24921476       1.36313505
13
Frame=4 idx=001300 GeodesicLength=0.7141167560567201 rxn_smarts="[N:1]([C:2](=[O:3])[C:4]([C:5]([O:6][H:13])([H:11])[H:12])([H:9])[H:10])([H:7])[H:8]>>[C:4](=[C:5]([O:6][H:13])[H:11])([H:9])[H:10].[N:1]([C:2](=[O:3])[H:12])([H:7])[H:8]"
N       -1.28901297      -0.83924613      -0.96010831
C       -0.37859318       0.27149266      -1.01593857
O       -0.46188655       1.15379629      -1.88881285
C       -0.26588509       0.75421724       0.70561007
C        0.80678699      -0.16871614       0.81703653
O        1.79141583       0.22343797       1.62813368
H       -2.22990903      -0.56391429      -0.71929487
H       -1.16156176      -1.46445935      -1.74083714
H       -1.16135051       0.60663073       1.29680190
H       -0.04713601       1.81173445       0.62409890
H        0.95976505      -1.24262537       0.68205532
H        0.83430174      -0.26932493      -0.92118155
H        2.60306547      -0.27302312       1.49243689
13
Frame=5 idx=001300 GeodesicLength=0.8860784247452913 rxn_smarts="[N:1]([C:2](=[O:3])[C:4]([C:5]([O:6][H:13])([H:11])[H:12])([H:9])[H:10])([H:7])[H:8]>>[C:4](=[C:5]([O:6][H:13])[H:11])([H:9])[H:10].[N:1]([C:2](=[O:3])[H:12])([H:7])[H:8]"
N       -1.29819057      -0.83375907      -0.96251079
C       -0.41992076       0.29015616      -1.06199178
O       -0.57019881       1.15821301      -1.93709851
C       -0.23045204       0.77327501       0.68855625
C        0.83106098      -0.16738884       0.77319180
O        1.70075718       0.11701132       1.75344416
H       -2.22944306      -0.60715030      -0.64945491
H       -1.14782803      -1.51169127      -1.69196163
H       -1.11166008       0.67602738       1.31098825
H        0.00067616       1.82529275       0.57360588
H        1.07043545      -1.21179860       0.54701868
H        0.85434773      -0.19243968      -0.97752862
H        2.55041583      -0.31574787       1.63374123
13
Frame=6 idx=001300 GeodesicLength=1.054788923133399 rxn_smarts="[N:1]([C:2](=[O:3])[C:4]([C:5]([O:6][H:13])([H:11])[H:12])([H:9])[H:10])([H:7])[H:8]>>[C:4](=[C:5]([O:6][H:13])[H:11])([H:9])[H:10].[N:1]([C:2](=[O:3])[H:12])([H:7])[H:8]"
N       -1.30292359      -0.83233444      -0.95951472
C       -0.46490036       0.30775399      -1.10543418
O       -0.68621028       1.15714916      -1.98069978
C       -0.19241610       0.79794705       0.67015829
C        0.86235454      -0.15459218       0.72763006
O        1.58845503      -0.01189066       1.85390886
H       -2.21549139      -0.65754176      -0.57102944
H       -1.12199727      -1.55724195      -1.63344757
H       -1.05597112       0.75235254       1.32281294
H        0.04912009       1.84296610       0.51740589
H        1.19895729      -1.15030465       0.41420335
H        0.87151344      -0.10659282      -1.03465474
H        2.46950970      -0.38767038       1.77866103
13
Frame=7 idx=001300 GeodesicLength=1.2228613009127074 rxn_smarts="[N:1]([C:2](=[O:3])[C:4]([C:5]([O:6][H:13])([H:11])[H:12])([H:9])[H:10])([H:7])[H:8]>>[C:4](=[C:5]([O:6][H:13])[H:11])([H:9])[H:10].[N:1]([C:2](=[O:3])[H:12])([H:7])[H:8]"
N       -1.30264891      -0.83545577      -0.95116969
C       -0.51093739       0.32196951      -1.14410189
O       -0.80327530       1.14742828      -2.01858736
C       -0.15392377       0.82944878       0.65304366
C        0.89893734      -0.12941508       0.68619223
O        1.45967144      -0.15997975       1.91935286
H       -2.18764553      -0.71192910      -0.48817852
H       -1.08481830      -1.59986046      -1.56747240
H       -0.99746765       0.83605261       1.33349116
H        0.09289376       1.86643717       0.45771634
H        1.34089321      -1.05696892       0.29717240
H        0.88678883      -0.01766521      -1.08724583
H        2.36153226      -0.49006208       1.90978706
13
Frame=8 idx=001300 GeodesicLength=1.385104812087875 rxn_smarts="[N:1]([C:2](=[O:3])[C:4]([C:5]([O:6][H:13])([H:11])[H:12])([H:9])[H:10])([H:7])[H:8]>>[C:4](=[C:5]([O:6][H:13])[H:11])([H:9])[H:10].[N:1]([C:2](=[O:3])[H:12])([H:7])[H:8]"
N       -1.29708398      -0.84139312      -0.93651672
C       -0.55364117       0.33104485      -1.17594009
O       -0.91096066       1.12719133      -2.04972863
C       -0.11738402       0.86574765       0.63871614
C        0.93757329      -0.09221581       0.65267341
O        1.32075840      -0.31866385       1.93903130
H       -2.14801118      -0.76371519      -0.40596379
H       -1.03720706      -1.63811895      -1.49159725
H       -0.93743627       0.92147973       1.34521635
H        0.12642715       1.89364671       0.39624808
H        1.48534657      -0.93574509       0.20881597
H        0.90163559       0.06823308      -1.13015846
H        2.22998333      -0.61749134       2.00920368
13
Frame=9 idx=001300 GeodesicLength=1.5498382292420008 rxn_smarts="[N:1]([C:2](=[O:3])[C:4]([C:5]([O:6][H:13])([H:11])[H:12])([H:9])[H:10])([H:7])[H:8]>>[C:4](=[C:5]([O:6][H:13])[H:11])([H:9])[H:10].[N:1]([C:2](=[O:3])[H:12])([H:7])[H:8]"
N       -1.28829886      -0.84932978      -0.91848036
C       -0.59105531       0.33358583      -1.20259973
O       -1.00437196       1.09637453      -2.07815700
C       -0.08541763       0.90541727       0.62895355
C        0.97685848      -0.04527652       0.63168574
O        1.18407882      -0.47206801       1.91440581
H       -2.10051060      -0.80958533      -0.32724616
H       -0.98740244      -1.67040269      -1.41331517
H       -0.87713611       1.00583100       1.36247503
H        0.14523924       1.92353687       0.33615897
H        1.62422623      -0.79847655       0.15903577
H        0.91872741       0.14417542      -1.16105635
H        2.08506272      -0.76378204       2.06813991
13
Frame=10 idx=001300 GeodesicLength=1.7196330520204692 rxn_smarts="[N:1]([C:2](=[O:3])[C:4]([C:5]([O:6][H:13])([H:11])[H:12])([H:9])[H:10])([H:7])[H:8]>>[C:4](=[C:5]([O:6][H:13])[H:11])([H:9])[H:10].[N:1]([C:2](=[O:3])[H:12])([H:7])[H:8]"
N       -1.28030354      -0.85739712      -0.90147677
C       -0.62243525       0.33019256      -1.22631038
O       -1.08030288       1.05836589      -2.10637806
C       -0.05982111       0.94436436       0.62482155
C        1.01301390       0.00437866       0.62501113
O        1.06185961      -0.60565547       1.85584341
H       -2.05188002      -0.84676393      -0.25702088
H       -0.94203618      -1.69656141      -1.33840674
H       -0.81788108       1.08458791       1.38737821
H        0.15048477       1.95162377       0.28169957
H        1.74658920      -0.66370330       0.14902315
H        0.94022056       0.20681886      -1.17859474
H        1.94249201      -0.91025078       2.08441055
13
Frame=11 idx=001300 GeodesicLength=1.8912679037850604 rxn_smarts="[N:1]([C:2](=[O:3])[C:4]([C:5]([O:6][H:13])([H:11])[H:12])([H:9])[H:10])([H:7])[H:8]>>[C:4](=[C:5]([O:6][H:13])[H:11])([H:9])[H:10].[N:1]([C:2](=[O:3])[H:12])([H:7])[H:8]"
N       -1.27545257      -0.86475882      -0.88776699
C       -0.64897550       0.32188524      -1.24842829
O       -1.14083574       1.01562181      -2.13409854
C       -0.03973405       0.97934570       0.62523270
C        1.04323782       0.05142381       0.63020933
O        0.95716732      -0.71385847       1.77605477
H       -2.00464062      -0.87607725      -0.19627081
H       -0.90519469      -1.71684044      -1.26991395
H       -0.75804879       1.15592886       1.41759183
H        0.14731487       1.97348035       0.23412909
H        1.84961788      -0.54001029       0.17194812
H        0.96557153       0.25850237      -1.18325131
H        1.80997254      -1.04464288       2.06456405
13
Frame=12 idx=001300 GeodesicLength=2.0656694926323667 rxn_smarts="[N:1]([C:2](=[O:3])[C:4]([C:5]([O:6][H:13])([H:11])[H:12])([H:9])[H:10])([H:7])[H:8]>>[C:4](=[C:5]([O:6][H:13])[H:11])([H:9])[H:10].[N:1]([C:2](=[O:3])[H:12])([H:7])[H:8]"
N       -1.27515583      -0.87134125      -0.87858840
C       -0.67323982       0.31093258      -1.27150801
O       -1.19147687       0.97269973      -2.16325672
C       -0.02442203       1.00920703       0.62942980
C        1.06780890       0.09178163       0.64312624
O        0.87055195      -0.80115752       1.68620044
H       -1.96230879      -0.89852538      -0.14562316
H       -0.87523818      -1.73273980      -1.20678910
H       -0.69715111       1.22052654       1.45280670
H        0.13830750       1.98884805       0.19289893
H        1.93495710      -0.43384992       0.21760988
H        0.99435976       0.30291254      -1.18035776
H        1.69300740      -1.15929421       2.02405116
13
Frame=13 idx=001300 GeodesicLength=2.241001771801579 rxn_smarts="[N:1]([C:2](=[O:3])[C:4]([C:5]([O:6][H:13])([H:11])[H:12])([H:9])[H:10])([H:7])[H:8]>>[C:4](=[C:5]([O:6][H:13])[H:11])([H:9])[H:10].[N:1]([C:2](=[O:3])[H:12])([H:7])[H:8]"
N       -1.27885165      -0.87768440      -0.87349160
C       -0.69705295       0.29769881      -1.29611548
O       -1.23629978       0.92943589      -2.19382593
C       -0.01240668       1.03413929       0.63681519
C        1.08757682       0.12555840       0.66101255
O        0.80013837      -0.87085062       1.59227139
H       -1.92488653      -0.91563557      -0.10426838
H       -0.85228645      -1.74471675      -1.15025190
H       -0.63333300       1.28019837       1.49090472
H        0.12577840       1.99757800       0.15745131
H        2.00558028      -0.34351800       0.27936620
H        1.02510196       0.34318189      -1.17233036
H        1.59094121      -1.25538533       1.97246230
13
Frame=14 idx=001300 GeodesicLength=2.417082848783988 rxn_smarts="[N:1]([C:2](=[O:3])[C:4]([C:5]([O:6][H:13])([H:11])[H:12])([H:9])[H:10])([H:7])[H:8]>>[C:4](=[C:5]([O:6][H:13])[H:11])([H:9])[H:10].[N:1]([C:2](=[O:3])[H:12])([H:7])[H:8]"
N       -1.28565473      -0.88430965      -0.87131124
C       -0.72160139       0.28251300      -1.32218547
O       -1.27868976       0.88540250      -2.22538691
C       -0.00245456       1.05518604       0.64674527
C        1.10395757       0.15413301       0.68225725
O        0.74275922      -0.92639419       1.49640876
H       -1.89085739      -0.92956992      -0.06977211
H       -0.83577208      -1.75367534      -1.10089297
H       -0.56511488       1.33740704       1.52974845
H        0.11103869       2.00042328       0.12633854
H        2.06484828      -0.26579577       0.35447491
H        1.05722938       0.38169996      -1.16042798
H        1.50031165      -1.33701996       1.91400351
13
Frame=15 idx=001300 GeodesicLength=2.594024581695762 rxn_smarts="[N:1]([C:2](=[O:3])[C:4]([C:5]([O:6][H:13])([H:11])[H:12])([H:9])[H:10])([H:7])[H:8]>>[C:4](=[C:5]([O:6][H:13])[H:11])([H:9])[H:10].[N:1]([C:2](=[O:3])[H:12])([H:7])[H:8]"
N       -1.29457451      -0.89173351      -0.87108512
C       -0.74761757       0.26589069      -1.34972639
O       -1.32139373       0.84101781      -2.25736434
C        0.00629229       1.07356276       0.65896011
C        1.11824686       0.17843056       0.70577831
O        0.69601168      -0.97025835       1.40030285
H       -1.85889122      -0.94207852      -0.04010092
H       -0.82454986      -1.76104416      -1.05910757
H       -0.49237379       1.39425137       1.56740903
H        0.09470769       1.99867325       0.09854528
H        2.11464514      -0.20001000       0.44095709
H        1.09089587       0.42049363      -1.14576299
H        1.41860114      -1.40719552       1.85119466
13
Frame=16 idx=001300 GeodesicLength=2.7713611175265043 rxn_smarts="[N:1]([C:2](=[O:3])[C:4]([C:5]([O:6][H:13])([H:11])[H:12])([H:9])[H:10])([H:7])[H:8]>>[C:4](=[C:5]([O:6][H:13])[H:11])([H:9])[H:10].[N:1]([C:2](=[O:3])[H:12])([H:7])[H:8]"
N       -1.30470151      -0.89989778      -0.87246331
C       -0.77588835       0.24799155      -1.37843574
O       -1.36660898       0.79574419      -2.28870009
C        0.01501084       1.08977713       0.67342396
C        1.13117306       0.19918875       0.73078848
O        0.65808070      -1.00351854       1.30422213
H       -1.82736881      -0.95398266      -0.01458645
H       -0.81678836      -1.76683099      -1.02462418
H       -0.41420683       1.45167827       1.60209682
H        0.07742159       1.99217681       0.07382022
H        2.15528521      -0.14547391       0.53808589
H        1.12544976       0.46039075      -1.12872739
H        1.34314169      -1.46724357       1.78509966
