13
Frame=0 idx=004878 GeodesicLength=0.0 rxn_smarts="[C:1]([C@@:2]1([H:10])[C:3]([H:11])([H:12])[C:4](=[O:5])[N:6]1[H:13])([H:7])([H:8])[H:9]>>[C:1]([C:3]([C:4](=[O:5])[N+:6](=[C-:2][H:10])[H:13])([H:11])[H:12])([H:7])([H:8])[H:9]"
C       -1.34926587       0.00990250       0.39962911
C       -0.27016673      -0.99813905      -0.75731547
C        0.25463132       0.92155753      -0.01094179
C        1.48237108       0.07258704       0.17681421
O        2.44532620       0.32235377       0.85696468
N        1.11733497      -1.07659022      -0.44359038
H       -2.18729903      -0.40247262      -0.15479940
H       -1.24530148      -0.49866079       1.35326297
H       -1.68057089       1.03889989       0.59310000
H       -0.41623759      -0.49006770      -1.71617769
H        0.19520661       1.42587784      -0.97168094
H        0.15008102       1.62845025       0.80421772
H        1.50389035      -1.95369843      -0.12948298
13
Frame=1 idx=004878 GeodesicLength=0.04635948981505585 rxn_smarts="[C:1]([C@@:2]1([H:10])[C:3]([H:11])([H:12])[C:4](=[O:5])[N:6]1[H:13])([H:7])([H:8])[H:9]>>[C:1]([C:3]([C:4](=[O:5])[N+:6](=[C-:2][H:10])[H:13])([H:11])[H:12])([H:7])([H:8])[H:9]"
C       -1.35102191       0.01129092       0.40336690
C       -0.26416231      -0.99054691      -0.77271411
C        0.25559284       0.92199133      -0.01346451
C        1.48231147       0.07118535       0.17919166
O        2.44125449       0.30829097       0.86852188
N        1.11606510      -1.07864948      -0.44533744
H       -2.18835249      -0.43168422      -0.12874819
H       -1.23660363      -0.47832528       1.36620752
H       -1.70430190       1.03603494       0.57773831
H       -0.41300749      -0.47755731      -1.72797957
H        0.20533380       1.43189247      -0.97197451
H        0.15531301       1.63326148       0.79885569
H        1.50157902      -1.95718425      -0.13366363
13
Frame=2 idx=004878 GeodesicLength=0.09268054846662213 rxn_smarts="[C:1]([C@@:2]1([H:10])[C:3]([H:11])([H:12])[C:4](=[O:5])[N:6]1[H:13])([H:7])([H:8])[H:9]>>[C:1]([C:3]([C:4](=[O:5])[N+:6](=[C-:2][H:10])[H:13])([H:11])[H:12])([H:7])([H:8])[H:9]"
C       -1.35280029       0.01269111       0.40717471
C       -0.25813115      -0.98272505      -0.78825097
C        0.25656215       0.92247389      -0.01591031
C        1.48213997       0.06966442       0.18161343
O        2.43704657       0.29402519       0.87981592
N        1.11458151      -1.08072874      -0.44717363
H       -2.18788412      -0.46128791      -0.10198725
H       -1.22836600      -0.45685089       1.37926214
H       -1.72865844       1.03223025       0.56166478
H       -0.40970913      -0.46473941      -1.73984079
H        0.21555845       1.43800496      -0.97204777
H        0.16070781       1.63798297       0.79366020
H        1.49895267      -1.96074078      -0.13798047
13
Frame=3 idx=004878 GeodesicLength=0.13893996017057425 rxn_smarts="[C:1]([C@@:2]1([H:10])[C:3]([H:11])([H:12])[C:4](=[O:5])[N:6]1[H:13])([H:7])([H:8])[H:9]>>[C:1]([C:3]([C:4](=[O:5])[N+:6](=[C-:2][H:10])[H:13])([H:11])[H:12])([H:7])([H:8])[H:9]"
C       -1.35461328       0.01410318       0.41105256
C       -0.25207078      -0.97468217      -0.80391114
C        0.25753204       0.92299970      -0.01826586
C        1.48184579       0.06801600       0.18409284
O        2.43277757       0.27961490       0.89073125
N        1.11287257      -1.08284308      -0.44907054
H       -2.18583796      -0.49113433      -0.07460029
H       -1.22067470      -0.43426198       1.39236921
H       -1.75362613       1.02738668       0.54496259
H       -0.40632798      -0.45162991      -1.75175084
H        0.22585839       1.44420119      -0.97188764
H        0.16627198       1.64260524       0.78865182
H        1.49599249      -1.96437542      -0.14237397
13
Frame=4 idx=004878 GeodesicLength=0.18510762322431207 rxn_smarts="[C:1]([C@@:2]1([H:10])[C:3]([H:11])([H:12])[C:4](=[O:5])[N:6]1[H:13])([H:7])([H:8])[H:9]>>[C:1]([C:3]([C:4](=[O:5])[N+:6](=[C-:2][H:10])[H:13])([H:11])[H:12])([H:7])([H:8])[H:9]"
C       -1.35647312       0.01552909       0.41499768
C       -0.24597675      -0.96642401      -0.81967804
C        0.25849670       0.92356156      -0.02051876
C        1.48141666       0.06623312       0.18664121
O        2.42852882       0.26512316       0.90114541
N        1.11092399      -1.08500562      -0.45099568
H       -2.18217536      -0.52106763      -0.04667382
H       -1.21361221      -0.41059679       1.40546000
H       -1.77918469       1.02140266       0.52772493
H       -0.40284271      -0.43824304      -1.76369728
H        0.23621551       1.45046539      -0.97148078
H        0.17201179       1.64711378       0.78384902
H        1.49267134      -1.96809166      -0.14677389
13
Frame=5 idx=004878 GeodesicLength=0.23123231824553972 rxn_smarts="[C:1]([C@@:2]1([H:10])[C:3]([H:11])([H:12])[C:4](=[O:5])[N:6]1[H:13])([H:7])([H:8])[H:9]>>[C:1]([C:3]([C:4](=[O:5])[N+:6](=[C-:2][H:10])[H:13])([H:11])[H:12])([H:7])([H:8])[H:9]"
C       -1.35836747       0.01697727       0.41903054
C       -0.23985321      -0.95794031      -0.83556373
C        0.25946489       0.92417265      -0.02268272
C        1.48085053       0.06431102       0.18925399
O        2.42423269       0.25047544       0.91118848
N        1.10872946      -1.08720644      -0.45298938
H       -2.17682037      -0.55112120      -0.01810662
H       -1.20718290      -0.38574193       1.41855267
H       -1.80535403       1.01418375       0.50987966
H       -0.39927974      -0.42455940      -1.77568583
H        0.24664975       1.45680292      -0.97084541
H        0.17794085       1.65153825       0.77923085
H        1.48898954      -1.97189202      -0.15126249
13
Frame=6 idx=004878 GeodesicLength=0.2772862788344055 rxn_smarts="[C:1]([C@@:2]1([H:10])[C:3]([H:11])([H:12])[C:4](=[O:5])[N:6]1[H:13])([H:7])([H:8])[H:9]>>[C:1]([C:3]([C:4](=[O:5])[N+:6](=[C-:2][H:10])[H:13])([H:11])[H:12])([H:7])([H:8])[H:9]"
C       -1.36030888       0.01846577       0.42313945
C       -0.23369855      -0.94924484      -0.85155187
C        0.26042162       0.92483428      -0.02474956
C        1.48013884       0.06223639       0.19195204
O        2.41996864       0.23571513       0.92078429
N        1.10628316      -1.08947015      -0.45502027
H       -2.16973430      -0.58113699       0.01100209
H       -1.20144082      -0.35973542       1.43155904
H       -1.83211903       1.00564458       0.49155121
H       -0.39564265      -0.41060014      -1.78770585
H        0.25712015       1.46320429      -0.96997626
H        0.18406095       1.65588971       0.77480202
H        1.48495086      -1.97580259      -0.15578632
13
Frame=7 idx=004878 GeodesicLength=0.3232355248497404 rxn_smarts="[C:1]([C@@:2]1([H:10])[C:3]([H:11])([H:12])[C:4](=[O:5])[N:6]1[H:13])([H:7])([H:8])[H:9]>>[C:1]([C:3]([C:4](=[O:5])[N+:6](=[C-:2][H:10])[H:13])([H:11])[H:12])([H:7])([H:8])[H:9]"
C       -1.36227553       0.01999491       0.42734621
C       -0.22750209      -0.94029361      -0.86762457
C        0.26138707       0.92552674      -0.02674110
C        1.47924011       0.06000708       0.19471883
O        2.41561376       0.22078676       0.92998030
N        1.10354972      -1.09174393      -0.45711201
H       -2.16081920      -0.61108060       0.04077720
H       -1.19644002      -0.33249213       1.44445376
H       -1.85944645       0.99561426       0.47270247
H       -0.39188995      -0.39633104      -1.79972313
H        0.26770025       1.46962810      -0.96888718
H        0.19038282       1.66013029       0.77051463
H        1.48049950      -1.97974685      -0.16040541
13
Frame=8 idx=004878 GeodesicLength=0.36916845575751017 rxn_smarts="[C:1]([C@@:2]1([H:10])[C:3]([H:11])([H:12])[C:4](=[O:5])[N:6]1[H:13])([H:7])([H:8])[H:9]>>[C:1]([C:3]([C:4](=[O:5])[N+:6](=[C-:2][H:10])[H:13])([H:11])[H:12])([H:7])([H:8])[H:9]"
C       -1.36428986       0.02159317       0.43164345
C       -0.22127771      -0.93111994      -0.88380202
C        0.26235326       0.92628514      -0.02865259
C        1.47817799       0.05761055       0.19758093
O        2.41123173       0.20567718       0.93883886
N        1.10054460      -1.09407352      -0.45927295
H       -2.15004210      -0.64089371       0.07119955
H       -1.19220509      -0.30397485       1.45719064
H       -1.88736904       0.98403110       0.45338795
H       -0.38807568      -0.38177335      -1.81176953
H        0.27835200       1.47610849      -0.96758958
H        0.19691729       1.66433278       0.76638575
H        1.47568261      -1.98380305      -0.16514047
13
Frame=9 idx=004878 GeodesicLength=0.41508075364342983 rxn_smarts="[C:1]([C@@:2]1([H:10])[C:3]([H:11])([H:12])[C:4](=[O:5])[N:6]1[H:13])([H:7])([H:8])[H:9]>>[C:1]([C:3]([C:4](=[O:5])[N+:6](=[C-:2][H:10])[H:13])([H:11])[H:12])([H:7])([H:8])[H:9]"
C       -1.36634741       0.02327762       0.43603158
C       -0.21501806      -0.92170284      -0.90008325
C        0.26332293       0.92710693      -0.03049816
C        1.47692885       0.05503969       0.20053569
O        2.40677977       0.19036279       0.94737435
N        1.09724532      -1.09644741      -0.46150119
H       -2.13732032      -0.67048479       0.10230486
H       -1.18877072      -0.27415751       1.46970335
H       -1.91586661       0.97075086       0.43367034
H       -0.38417996      -0.36690889      -1.82384586
H        0.28909425       1.48262983      -0.96610249
H        0.20366996       1.66848760       0.76239381
H        1.47046199      -1.98795389      -0.16998306
13
Frame=10 idx=004878 GeodesicLength=0.4609806308417468 rxn_smarts="[C:1]([C@@:2]1([H:10])[C:3]([H:11])([H:12])[C:4](=[O:5])[N:6]1[H:13])([H:7])([H:8])[H:9]>>[C:1]([C:3]([C:4](=[O:5])[N+:6](=[C-:2][H:10])[H:13])([H:11])[H:12])([H:7])([H:8])[H:9]"
C       -1.36843159       0.02507182       0.44051870
C       -0.20874136      -0.91203975      -0.91646145
C        0.26430589       0.92800242      -0.03227894
C        1.47546154       0.05227816       0.20361215
O        2.40215564       0.17476282       0.95572538
N        1.09362901      -1.09884787      -0.46384369
H       -2.12250584      -0.69985557       0.13423362
H       -1.18618441      -0.24287828       1.48195986
H       -1.94492552       0.95562357       0.41345326
H       -0.38025042      -0.35173490      -1.83592393
H        0.29996280       1.48918140      -0.96442117
H        0.21066220       1.67262440       0.75852106
H        1.46486206      -1.99218821      -0.17509485
13
Frame=11 idx=004878 GeodesicLength=0.5068344966405239 rxn_smarts="[C:1]([C@@:2]1([H:10])[C:3]([H:11])([H:12])[C:4](=[O:5])[N:6]1[H:13])([H:7])([H:8])[H:9]>>[C:1]([C:3]([C:4](=[O:5])[N+:6](=[C-:2][H:10])[H:13])([H:11])[H:12])([H:7])([H:8])[H:9]"
C       -1.37058139       0.02699370       0.44506613
C       -0.20242583      -0.90211275      -0.93292125
C        0.26530115       0.92896161      -0.03400653
C        1.47377045       0.04933046       0.20679248
O        2.39745831       0.15896464       0.96371095
N        1.08967464      -1.10128462      -0.46622697
H       -2.10562097      -0.72874495       0.16685850
H       -1.18451219      -0.21031822       1.49377082
H       -1.97450190       0.93850861       0.39303241
H       -0.37620141      -0.33624805      -1.84800348
H        0.31095696       1.49574627      -0.96255638
H        0.21789243       1.67670057       0.75475578
H        1.45878975      -1.99649727      -0.18027245
13
Frame=12 idx=004878 GeodesicLength=0.5527068424741683 rxn_smarts="[C:1]([C@@:2]1([H:10])[C:3]([H:11])([H:12])[C:4](=[O:5])[N:6]1[H:13])([H:7])([H:8])[H:9]>>[C:1]([C:3]([C:4](=[O:5])[N+:6](=[C-:2][H:10])[H:13])([H:11])[H:12])([H:7])([H:8])[H:9]"
C       -1.37281076       0.02908165       0.44966644
C       -0.19607749      -0.89193565      -0.94947547
C        0.26630518       0.93000572      -0.03568093
C        1.47184195       0.04617814       0.21010584
O        2.39266827       0.14292581       0.97141168
N        1.08537467      -1.10377614      -0.46867057
H       -2.08656762      -0.75707653       0.20023925
H       -1.18379761      -0.17641880       1.50508204
H       -2.00459103       0.91929778       0.37243253
H       -0.37205975      -0.32045717      -1.86010824
H        0.32207927       1.50233557      -0.96052528
H        0.22535965       1.68075628       0.75110907
H        1.45227525      -2.00091667      -0.18558637
13
Frame=13 idx=004878 GeodesicLength=0.5986402250735977 rxn_smarts="[C:1]([C@@:2]1([H:10])[C:3]([H:11])([H:12])[C:4](=[O:5])[N:6]1[H:13])([H:7])([H:8])[H:9]>>[C:1]([C:3]([C:4](=[O:5])[N+:6](=[C-:2][H:10])[H:13])([H:11])[H:12])([H:7])([H:8])[H:9]"
C       -1.37512861       0.03137238       0.45430256
C       -0.18969508      -0.88150491      -0.96613994
C        0.26731567       0.93114635      -0.03731421
C        1.46965340       0.04280936       0.21356370
O        2.38772252       0.12659946       0.97890699
N        1.08071050      -1.10632709      -0.47118733
H       -2.06522723      -0.78473322       0.23443893
H       -1.18406816      -0.14113372       1.51579988
H       -2.03517180       0.89783670       0.35174103
H       -0.36782558      -0.30436140      -1.87225941
H        0.33334241       1.50894427      -0.95834754
H        0.23306032       1.68480978       0.74757180
H        1.44531162      -2.00545797      -0.19107645
13
Frame=14 idx=004878 GeodesicLength=0.6445842355110445 rxn_smarts="[C:1]([C@@:2]1([H:10])[C:3]([H:11])([H:12])[C:4](=[O:5])[N:6]1[H:13])([H:7])([H:8])[H:9]>>[C:1]([C:3]([C:4](=[O:5])[N+:6](=[C-:2][H:10])[H:13])([H:11])[H:12])([H:7])([H:8])[H:9]"
C       -1.37754636       0.03386337       0.45893690
C       -0.18327881      -0.87075874      -0.98289135
C        0.26836182       0.93236900      -0.03893493
C        1.46717543       0.03922742       0.21714674
O        2.38255829       0.10996658       0.98616652
N        1.07562826      -1.10888620      -0.47375474
H       -2.04151339      -0.81157521       0.26952143
H       -1.18537415      -0.10448613       1.52575357
H       -2.06620231       0.87387472       0.33108487
H       -0.36344291      -0.28790121      -1.88440464
H        0.34483296       1.51554820      -0.95601954
H        0.24103002       1.68880358       0.74407977
H        1.43777117      -2.01004536      -0.19668460
13
Frame=15 idx=004878 GeodesicLength=0.6906838016709039 rxn_smarts="[C:1]([C@@:2]1([H:10])[C:3]([H:11])([H:12])[C:4](=[O:5])[N:6]1[H:13])([H:7])([H:8])[H:9]>>[C:1]([C:3]([C:4](=[O:5])[N+:6](=[C-:2][H:10])[H:13])([H:11])[H:12])([H:7])([H:8])[H:9]"
C       -1.38006856       0.03661630       0.46356555
C       -0.17683209      -0.85972398      -0.99978136
C        0.26942294       0.93370670      -0.04052716
C        1.46436410       0.03539143       0.22090452
O        2.37708296       0.09293385       0.99334658
N        1.07011762      -1.11149595      -0.47643834
H       -2.01517788      -0.83750329       0.30564491
H       -1.18778127      -0.06628594       1.53489964
H       -2.09766661       0.84723475       0.31042940
H       -0.35894972      -0.27109123      -1.89660629
H        0.35653766       1.52216616      -0.95354370
H        0.24924095       1.69280740       0.74068517
H        1.42970991      -2.01475620      -0.20257895
13
Frame=16 idx=004878 GeodesicLength=0.7369764838728592 rxn_smarts="[C:1]([C@@:2]1([H:10])[C:3]([H:11])([H:12])[C:4](=[O:5])[N:6]1[H:13])([H:7])([H:8])[H:9]>>[C:1]([C:3]([C:4](=[O:5])[N+:6](=[C-:2][H:10])[H:13])([H:11])[H:12])([H:7])([H:8])[H:9]"
C       -1.38272447       0.03965005       0.46814770
C       -0.17035595      -0.84835972      -1.01681167
C        0.27051021       0.93516646      -0.04212360
C        1.46119886       0.03128676       0.22483330
O        2.37121578       0.07542924       1.00050292
N        1.06414994      -1.11413915      -0.47923263
H       -1.98607607      -0.86232856       0.34289234
H       -1.19134415      -0.02651768       1.54307402
H       -2.12953894       0.81766025       0.28993214
H       -0.35432371      -0.25387652      -1.90886136
H        0.36850663       1.52880441      -0.95094417
H        0.25770354       1.69680190       0.73734113
H        1.42107833      -2.01957745      -0.20875013
