17
Frame=0 idx=010884 GeodesicLength=0.0 rxn_smarts="[C:1]([C@@:2]1([H:11])[O:3][C@@:4]2([H:12])[C:5]([H:13])([H:14])[C@@:6]12[C:7]([H:15])([H:16])[H:17])([H:8])([H:9])[H:10]>>[C:1]([C@@:2]([O:3][H:14])([C:6]1([C:7]([H:15])([H:16])[H:17])[C:4]([H:12])=[C:5]1[H:13])[H:11])([H:8])([H:9])[H:10]"
C       -2.01536759       0.13842036       0.25840698
C       -0.68074041      -0.38665711       0.75983956
O       -0.60089177      -1.73697916       0.77773134
C        1.52738306      -0.98222257       0.15954842
C        0.86274921      -1.08600999      -1.06004878
C        0.57822976       0.06623674      -0.03887617
C        0.95274693       1.51537974      -0.16369352
H       -2.05936423       1.23104228       0.27469570
H       -2.19214974      -0.20601393      -0.76353189
H       -2.81559068      -0.25094348       0.88881061
H       -0.46847353       0.05544108       1.75042180
H        2.48773741      -1.19215029       0.60749306
H        1.35707236      -1.11732101      -2.02260078
H       -0.05207566      -1.73093069      -0.84729071
H        0.23273355       2.03534874      -0.79879859
H        0.94244070       1.99531536       0.81743126
H        1.94356056       1.65204393      -0.59953834
17
Frame=1 idx=010884 GeodesicLength=0.0839838064862658 rxn_smarts="[C:1]([C@@:2]1([H:11])[O:3][C@@:4]2([H:12])[C:5]([H:13])([H:14])[C@@:6]12[C:7]([H:15])([H:16])[H:17])([H:8])([H:9])[H:10]>>[C:1]([C@@:2]([O:3][H:14])([C:6]1([C:7]([H:15])([H:16])[H:17])[C:4]([H:12])=[C:5]1[H:13])[H:11])([H:8])([H:9])[H:10]"
C       -2.01472099       0.13240112       0.25608513
C       -0.67708735      -0.37857316       0.76261499
O       -0.58291965      -1.73331293       0.77868827
C        1.51863283      -0.98743663       0.16240249
C        0.86047392      -1.07803208      -1.06205245
C        0.57686323       0.07162861      -0.04297293
C        0.95698975       1.51913662      -0.16455795
H       -2.06708837       1.22460170       0.26935016
H       -2.18613416      -0.21486225      -0.76579325
H       -2.81320857      -0.26239179       0.88533489
H       -0.47069269       0.06439285       1.75310103
H        2.47499121      -1.20784114       0.61325946
H        1.35329346      -1.10156781      -2.02530374
H       -0.06613609      -1.73905429      -0.83770314
H        0.23635830       2.04460113      -0.79457010
H        0.95412380       1.99663423       0.81785581
H        1.94626137       1.64967583      -0.60573865
17
Frame=2 idx=010884 GeodesicLength=0.1679525151983755 rxn_smarts="[C:1]([C@@:2]1([H:11])[O:3][C@@:4]2([H:12])[C:5]([H:13])([H:14])[C@@:6]12[C:7]([H:15])([H:16])[H:17])([H:8])([H:9])[H:10]>>[C:1]([C@@:2]([O:3][H:14])([C:6]1([C:7]([H:15])([H:16])[H:17])[C:4]([H:12])=[C:5]1[H:13])[H:11])([H:8])([H:9])[H:10]"
C       -2.01399329       0.12645768       0.25378175
C       -0.67348298      -0.37053862       0.76523167
O       -0.56528285      -1.72960513       0.77962679
C        1.50998400      -0.99253484       0.16514185
C        0.85845962      -1.07005068      -1.06403701
C        0.57551489       0.07694052      -0.04704233
C        0.96116511       1.52283139      -0.16540821
H       -2.07464262       1.21816874       0.26411199
H       -2.18010677      -0.22347609      -0.76804324
H       -2.81071120      -0.27370811       0.88190296
H       -0.47299115       0.07311160       1.75568862
H        2.46231786      -1.22324837       0.61876723
H        1.34974686      -1.08590049      -2.02793336
H       -0.08042877      -1.74744213      -0.82782072
H        0.23998454       2.05374598      -0.79035572
H        0.96563486       1.99784349       0.81825467
H        1.94883188       1.64740505      -0.61186694
17
Frame=3 idx=010884 GeodesicLength=0.251898434773438 rxn_smarts="[C:1]([C@@:2]1([H:11])[O:3][C@@:4]2([H:12])[C:5]([H:13])([H:14])[C@@:6]12[C:7]([H:15])([H:16])[H:17])([H:8])([H:9])[H:10]>>[C:1]([C@@:2]([O:3][H:14])([C:6]1([C:7]([H:15])([H:16])[H:17])[C:4]([H:12])=[C:5]1[H:13])[H:11])([H:8])([H:9])[H:10]"
C       -2.01318513       0.12059618       0.25149806
C       -0.66992594      -0.36255702       0.76768803
O       -0.54797697      -1.72586744       0.78053722
C        1.50143356      -0.99752689       0.16776354
C        0.85671512      -1.06205866      -1.06601302
C        0.57418143       0.08217145      -0.05109139
C        0.96526681       1.52646402      -0.16624215
H       -2.08201643       1.21175257       0.25897744
H       -2.17408162      -0.23186019      -0.77027613
H       -2.80809822      -0.28486725       0.87852933
H       -0.47536188       0.08158657       1.75818397
H        2.44972791      -1.23835519       0.62401173
H        1.34644926      -1.07032492      -2.03049704
H       -0.09496905      -1.75610848      -0.81763086
H        0.24361667       2.06277591      -0.78617281
H        0.97694432       1.99894705       0.81862996
H        1.95128015       1.64523230      -0.61789588
17
Frame=4 idx=010884 GeodesicLength=0.3358257151565151 rxn_smarts="[C:1]([C@@:2]1([H:11])[O:3][C@@:4]2([H:12])[C:5]([H:13])([H:14])[C@@:6]12[C:7]([H:15])([H:16])[H:17])([H:8])([H:9])[H:10]>>[C:1]([C@@:2]([O:3][H:14])([C:6]1([C:7]([H:15])([H:16])[H:17])[C:4]([H:12])=[C:5]1[H:13])[H:11])([H:8])([H:9])[H:10]"
C       -2.01230121       0.11481207       0.24922686
C       -0.66641505      -0.35462417       0.76998758
O       -0.53099138      -1.72210446       0.78143120
C        1.49297899      -1.00241973       0.17026490
C        0.85524132      -1.05404723      -1.06798792
C        0.57286198       0.08732563      -0.05512377
C        0.96930149       1.53003915      -0.16705535
H       -2.08921958       1.20535167       0.25392851
H       -2.16806267      -0.24003327      -0.77249758
H       -2.80537578      -0.29587321       0.87520883
H       -0.47780368       0.08982912       1.76058784
H        2.43722792      -1.25316629       0.62899005
H        1.34339610      -1.05482816      -2.03300782
H       -0.10978115      -1.76507035      -0.80710774
H        0.24725683       2.07170324      -0.78200900
H        0.98807137       1.99994554       0.81899106
H        1.95361451       1.64316044      -0.62382764
17
Frame=5 idx=010884 GeodesicLength=0.4197353922321961 rxn_smarts="[C:1]([C@@:2]1([H:11])[O:3][C@@:4]2([H:12])[C:5]([H:13])([H:14])[C@@:6]12[C:7]([H:15])([H:16])[H:17])([H:8])([H:9])[H:10]>>[C:1]([C@@:2]([O:3][H:14])([C:6]1([C:7]([H:15])([H:16])[H:17])[C:4]([H:12])=[C:5]1[H:13])[H:11])([H:8])([H:9])[H:10]"
C       -2.01134416       0.10910172       0.24696126
C       -0.66294851      -0.34673494       0.77213276
O       -0.51431328      -1.71831794       0.78231997
C        1.48461693      -1.00721993       0.17264012
C        0.85403852      -1.04600677      -1.06996962
C        0.57155514       0.09240716      -0.05914341
C        0.97327369       1.53355998      -0.16784306
H       -2.09626046       1.19896427       0.24894962
H       -2.16204955      -0.24801170      -0.77471238
H       -2.80254760      -0.30672928       0.87193477
H       -0.48031581       0.09785147       1.76289888
H        2.42482176      -1.26768793       0.63369648
H        1.34058237      -1.03939685      -2.03547800
H       -0.12488718      -1.77434612      -0.79622034
H        0.25090753       2.08053781      -0.77785294
H        0.99902871       2.00083851       0.81934622
H        1.95584189       1.64119054      -0.62966032
17
Frame=6 idx=010884 GeodesicLength=0.5036291091821611 rxn_smarts="[C:1]([C@@:2]1([H:11])[O:3][C@@:4]2([H:12])[C:5]([H:13])([H:14])[C@@:6]12[C:7]([H:15])([H:16])[H:17])([H:8])([H:9])[H:10]>>[C:1]([C@@:2]([O:3][H:14])([C:6]1([C:7]([H:15])([H:16])[H:17])[C:4]([H:12])=[C:5]1[H:13])[H:11])([H:8])([H:9])[H:10]"
C       -2.01031664       0.10346117       0.24469415
C       -0.65952473      -0.33888452       0.77412564
O       -0.49793017      -1.71450942       0.78321481
C        1.47634396      -1.01193405       0.17488297
C        0.85310723      -1.03792751      -1.07196620
C        0.57025979       0.09742023      -0.06315419
C        0.97718845       1.53703000      -0.16860053
H       -2.10314703       1.19258824       0.24402460
H       -2.15604196      -0.25581217      -0.77692558
H       -2.79961753      -0.31743911       0.86870056
H       -0.48289774       0.10566542       1.76511554
H        2.41251349      -1.28192623       0.63812492
H        1.33800282      -1.02401667      -2.03792021
H       -0.14031091      -1.78395510      -0.78493502
H        0.25457182       2.08928975      -0.77369335
H        1.00982945       2.00162545       0.81970382
H        1.95796969       1.63932450      -0.63539193
17
Frame=7 idx=010884 GeodesicLength=0.5875083981253948 rxn_smarts="[C:1]([C@@:2]1([H:11])[O:3][C@@:4]2([H:12])[C:5]([H:13])([H:14])[C@@:6]12[C:7]([H:15])([H:16])[H:17])([H:8])([H:9])[H:10]>>[C:1]([C@@:2]([O:3][H:14])([C:6]1([C:7]([H:15])([H:16])[H:17])[C:4]([H:12])=[C:5]1[H:13])[H:11])([H:8])([H:9])[H:10]"
C       -2.00922104       0.09788661       0.24241848
C       -0.65614221      -0.33106839       0.77596767
O       -0.48182956      -1.71068003       0.78412640
C        1.46815640      -1.01656873       0.17698638
C        0.85244829      -1.02979942      -1.07398595
C        0.56897496       0.10236894      -0.06716006
C        0.98105064       1.54045263      -0.16932293
H       -2.10988644       1.18622134       0.23913744
H       -2.15003923      -0.26345102      -0.77914204
H       -2.79658902      -0.32800611       0.86549993
H       -0.48554905       0.11328209       1.76723577
H        2.40030720      -1.29588678       0.64226821
H        1.33565254      -1.00867272      -2.04034714
H       -0.15607753      -1.79391728      -0.77321517
H        0.25825349       2.09796858      -0.76951993
H        1.02048490       2.00230582       0.82007195
H        1.96000565       1.63756449      -0.64101900
17
Frame=8 idx=010884 GeodesicLength=0.6713747435969291 rxn_smarts="[C:1]([C@@:2]1([H:11])[O:3][C@@:4]2([H:12])[C:5]([H:13])([H:14])[C@@:6]12[C:7]([H:15])([H:16])[H:17])([H:8])([H:9])[H:10]>>[C:1]([C@@:2]([O:3][H:14])([C:6]1([C:7]([H:15])([H:16])[H:17])[C:4]([H:12])=[C:5]1[H:13])[H:11])([H:8])([H:9])[H:10]"
C       -2.00805937       0.09237414       0.24012694
C       -0.65279951      -0.32328213       0.77765976
O       -0.46599885      -1.70683026       0.78506527
C        1.46005032      -1.02113064       0.17894229
C        0.85206262      -1.02161212      -1.07603745
C        0.56769983       0.10725740      -0.07116505
C        0.98486519       1.54383119      -0.17000524
H       -2.11648529       1.17986104       0.23427175
H       -2.14403996      -0.27094461      -0.78136680
H       -2.79346519      -0.33843373       0.86232628
H       -0.48826959       0.12071241       1.76925697
H        2.38820695      -1.30957505       0.64611774
H        1.33352650      -0.99334926      -2.04277160
H       -0.17221361      -1.80425371      -0.76102016
H        0.26195671       2.10658361      -0.76532235
H        1.03100559       2.00287876       0.82045885
H        1.96195766       1.63591297      -0.64653722
17
Frame=9 idx=010884 GeodesicLength=0.7552294940011579 rxn_smarts="[C:1]([C@@:2]1([H:11])[O:3][C@@:4]2([H:12])[C:5]([H:13])([H:14])[C@@:6]12[C:7]([H:15])([H:16])[H:17])([H:8])([H:9])[H:10]>>[C:1]([C@@:2]([O:3][H:14])([C:6]1([C:7]([H:15])([H:16])[H:17])[C:4]([H:12])=[C:5]1[H:13])[H:11])([H:8])([H:9])[H:10]"
C       -2.00683335       0.08691997       0.23781212
C       -0.64949522      -0.31552168       0.77920219
O       -0.45042553      -1.70296028       0.78604124
C        1.45202155      -1.02562658       0.18074159
C        0.85195156      -1.01335481      -1.07812960
C        0.56643376       0.11208968      -0.07517321
C        0.98863684       1.54716898      -0.17064227
H       -2.12294928       1.17350473       0.22941101
H       -2.13804236      -0.27830922      -0.78360473
H       -2.79024875      -0.34872489       0.85917331
H       -0.49105926       0.12796652       1.77117606
H        2.37621690      -1.32299613       0.64966365
H        1.33161992      -0.97802974      -2.04520658
H       -0.18874737      -1.81498623      -0.74830554
H        0.26568634       2.11514354      -0.76109125
H        1.04140018       2.00334347       0.82087266
H        1.96383407       1.63437268      -0.65194065
17
Frame=10 idx=010884 GeodesicLength=0.8390740596067103 rxn_smarts="[C:1]([C@@:2]1([H:11])[O:3][C@@:4]2([H:12])[C:5]([H:13])([H:14])[C@@:6]12[C:7]([H:15])([H:16])[H:17])([H:8])([H:9])[H:10]>>[C:1]([C@@:2]([O:3][H:14])([C:6]1([C:7]([H:15])([H:16])[H:17])[C:4]([H:12])=[C:5]1[H:13])[H:11])([H:8])([H:9])[H:10]"
C       -2.00554435       0.08152007       0.23546615
C       -0.64622798      -0.30778303       0.78059467
O       -0.43509674      -1.69906953       0.78706422
C        1.44406562      -1.03006343       0.18237364
C        0.85211621      -1.00501604      -1.08027198
C        0.56517624       0.11686999      -0.07918880
C        0.99237059       1.55046928      -0.17122840
H       -2.12928357       1.16714934       0.22453736
H       -2.13204394      -0.28556216      -0.78586080
H       -2.78694215      -0.35888232       0.85603450
H       -0.49391830       0.13505454       1.77298930
H        2.36434107      -1.33615522       0.65289415
H        1.32992732      -0.96269612      -2.04766569
H       -0.20570853      -1.82613805      -0.73502128
H        0.26944819       2.12365717      -0.75681732
H        1.05167632       2.00369886       0.82132198
H        1.96564399       1.63294663      -0.65722171
17
Frame=11 idx=010884 GeodesicLength=0.9229097990067089 rxn_smarts="[C:1]([C@@:2]1([H:11])[O:3][C@@:4]2([H:12])[C:5]([H:13])([H:14])[C@@:6]12[C:7]([H:15])([H:16])[H:17])([H:8])([H:9])[H:10]>>[C:1]([C@@:2]([O:3][H:14])([C:6]1([C:7]([H:15])([H:16])[H:17])[C:4]([H:12])=[C:5]1[H:13])[H:11])([H:8])([H:9])[H:10]"
C       -2.00419346       0.07617037       0.23308076
C       -0.64299649      -0.30006244       0.78183625
O       -0.41999959      -1.69515705       0.78814352
C        1.43617773      -1.03444826       0.18382651
C        0.85255789      -0.99658377      -1.08247469
C        0.56392696       0.12160255      -0.08321616
C        0.99607144       1.55373539      -0.17175765
H       -2.13549255       1.16079160       0.21963205
H       -2.12604168      -0.29272127      -0.78814003
H       -2.78354752      -0.36890827       0.85290335
H       -0.49684710       0.14198609       1.77469235
H        2.35258362      -1.34905715       0.65579575
H        1.32844328      -0.94732921      -2.05016284
H       -0.22312872      -1.83773336      -0.72111194
H        0.27324860       2.13213304      -0.75249141
H        1.06184068       2.00394362       0.82181577
H        1.96739690       1.63163812      -0.66237159
17
Frame=12 idx=010884 GeodesicLength=1.0067380620821278 rxn_smarts="[C:1]([C@@:2]1([H:11])[O:3][C@@:4]2([H:12])[C:5]([H:13])([H:14])[C@@:6]12[C:7]([H:15])([H:16])[H:17])([H:8])([H:9])[H:10]>>[C:1]([C@@:2]([O:3][H:14])([C:6]1([C:7]([H:15])([H:16])[H:17])[C:4]([H:12])=[C:5]1[H:13])[H:11])([H:8])([H:9])[H:10]"
C       -2.00278141       0.07086669       0.23064726
C       -0.63979943      -0.29235645       0.78292532
O       -0.40512106      -1.69122142       0.78928794
C        1.42835278      -1.03878838       0.18508663
C        0.85327800      -0.98804520      -1.08474852
C        0.56268579       0.12629168      -0.08725982
C        0.99974446       1.55697061      -0.17222368
H       -2.14157993       1.15442797       0.21467575
H       -2.12003168      -0.29980475      -0.79044763
H       -2.78006670      -0.37880496       0.84977294
H       -0.49984622       0.14877027       1.77628030
H        2.34094872      -1.36170666       0.65835296
H        1.32716209      -0.93190851      -2.05271253
H       -0.24104161      -1.84979743      -0.70651562
H        0.27709477       2.14057941      -0.74810500
H        1.07189832       2.00407640       0.82236334
H        1.96910311       1.63045073      -0.66737964
17
Frame=13 idx=010884 GeodesicLength=1.0905603695834887 rxn_smarts="[C:1]([C@@:2]1([H:11])[O:3][C@@:4]2([H:12])[C:5]([H:13])([H:14])[C@@:6]12[C:7]([H:15])([H:16])[H:17])([H:8])([H:9])[H:10]>>[C:1]([C@@:2]([O:3][H:14])([C:6]1([C:7]([H:15])([H:16])[H:17])[C:4]([H:12])=[C:5]1[H:13])[H:11])([H:8])([H:9])[H:10]"
C       -2.00130860       0.06560445       0.22815603
C       -0.63663551      -0.28466154       0.78385959
O       -0.39044774      -1.68726043       0.79050629
C        1.42058524      -1.04309121       0.18613858
C        0.85427771      -0.97938658      -1.08710509
C        0.56145287       0.13094204      -0.09132448
C        1.00339514       1.56017837      -0.17261951
H       -2.14754912       1.14805426       0.20964727
H       -2.11400897      -0.30683229      -0.79278928
H       -2.77650129      -0.38857483       0.84663557
H       -0.50291668       0.15541643       1.77774745
H        2.32944025      -1.37410899       0.66054808
H        1.32607706      -0.91641166      -2.05533004
H       -0.25948298      -1.86235675      -0.69116242
H        0.28099456       2.14900503      -0.74364859
H        1.08185461       2.00409532       0.82297486
H        1.97077347       1.62938838      -0.67223433
17
Frame=14 idx=010884 GeodesicLength=1.1743783482142023 rxn_smarts="[C:1]([C@@:2]1([H:11])[O:3][C@@:4]2([H:12])[C:5]([H:13])([H:14])[C@@:6]12[C:7]([H:15])([H:16])[H:17])([H:8])([H:9])[H:10]>>[C:1]([C@@:2]([O:3][H:14])([C:6]1([C:7]([H:15])([H:16])[H:17])[C:4]([H:12])=[C:5]1[H:13])[H:11])([H:8])([H:9])[H:10]"
C       -1.99977515       0.06037875       0.22559663
C       -0.63350352      -0.27697436       0.78463600
O       -0.37596600      -1.68327127       0.79180688
C        1.41286909      -1.04736447       0.18696495
C        0.85555810      -0.97059310      -1.08955692
C        0.56022856       0.13555849      -0.09541505
C        1.00702927       1.56336224      -0.17293750
H       -2.15340306       1.14166577       0.20452392
H       -2.10796749      -0.31382473      -0.79517103
H       -2.77285259      -0.39822044       0.84348281
H       -0.50605984       0.16193370       1.77908730
H        2.31806192      -1.38626951       0.66236088
H        1.32518101      -0.90081449      -2.05803144
H       -0.27849092      -1.87543883      -0.67497371
H        0.28495662       2.15741886      -0.73911221
H        1.09171448       2.00399805       0.82366131
H        1.97241952       1.62845533      -0.67692283
17
Frame=15 idx=010884 GeodesicLength=1.2581938934394152 rxn_smarts="[C:1]([C@@:2]1([H:11])[O:3][C@@:4]2([H:12])[C:5]([H:13])([H:14])[C@@:6]12[C:7]([H:15])([H:16])[H:17])([H:8])([H:9])[H:10]>>[C:1]([C@@:2]([O:3][H:14])([C:6]1([C:7]([H:15])([H:16])[H:17])[C:4]([H:12])=[C:5]1[H:13])[H:11])([H:8])([H:9])[H:10]"
C       -1.99818083       0.05518399       0.22295723
C       -0.63040226      -0.26929138       0.78525072
O       -0.36166170      -1.67925015       0.79319811
C        1.40519778      -1.05161602       0.18754593
C        0.85711970      -0.96164864      -1.09211764
C        0.55901345       0.14014643      -0.09953668
C        1.01065334       1.56652598      -0.17316900
H       -2.15914444       1.13525682       0.19927990
H       -2.10189973      -0.32080555      -0.79759954
H       -2.76912168      -0.40774463       0.84030510
H       -0.50927776       0.16833173       1.78029243
H        2.30681729      -1.39819426       0.66376779
H        1.32446492      -0.88509043      -2.06083400
H       -0.29810600      -1.88907231      -0.65786008
H        0.28899066       2.16583076      -0.73448432
H        1.10148355       2.00378148       0.82443503
H        1.97405371       1.62765619      -0.68143097
17
Frame=16 idx=010884 GeodesicLength=1.3420091817613802 rxn_smarts="[C:1]([C@@:2]1([H:11])[O:3][C@@:4]2([H:12])[C:5]([H:13])([H:14])[C@@:6]12[C:7]([H:15])([H:16])[H:17])([H:8])([H:9])[H:10]>>[C:1]([C@@:2]([O:3][H:14])([C:6]1([C:7]([H:15])([H:16])[H:17])[C:4]([H:12])=[C:5]1[H:13])[H:11])([H:8])([H:9])[H:10]"
C       -1.99652507       0.05001389       0.22022451
C       -0.62733068      -0.26160906       0.78569896
O       -0.34752018      -1.67519243       0.79468807
C        1.39756406      -1.05585403       0.18785902
C        0.85896252      -0.95253567      -1.09480212
C        0.55780846       0.14471172      -0.10369480
C        1.01427455       1.56967357      -0.17330421
H       -2.16477555       1.12882072       0.19388597
H       -2.09579676      -0.32780106      -0.80008201
H       -2.76530939      -0.41715026       0.83709181
H       -0.51257318       0.17462045       1.78135435
H        2.29570956      -1.40988976       0.66474173
H        1.32391822      -0.86921041      -2.06375629
H       -0.31837144      -1.90328666      -0.63972002
H        0.29310740       2.17425149      -0.72975144
H        1.11116823       2.00344146       0.82530991
H        1.97568924       1.62699603      -0.68574345
