17
Frame=0 idx=000426 GeodesicLength=0.0 rxn_smarts="[C:1]([C:2]([N:3]1[C:4]([H:12])([H:13])[C@:5]1([C:6]([H:15])([H:16])[H:17])[H:14])([H:10])[H:11])([H:7])([H:8])[H:9]>>[C:1]([C-:2]([N+:3]1=[C:4]([H:13])[C@:5]1([C:6]([H:15])([H:16])[H:17])[H:14])[H:11])([H:7])([H:8])[H:9].[H:10][H:12]"
C       -1.83199046       1.11850847      -0.36624015
C       -1.34684853      -0.29150236      -0.41845577
N       -0.05955010      -0.57154773      -0.37952613
C        0.67158443      -1.54602364       0.21280165
C        1.02975747      -0.12338005       0.46033837
C        2.14697631       0.64608813      -0.19210728
H       -2.82201290       1.14978914       0.08924458
H       -1.16211059       1.74269795       0.22565291
H       -1.91617398       1.55574900      -1.36625383
H       -1.36713938      -1.32148948       1.27459891
H       -1.97216850      -1.04010113      -0.89529000
H       -0.60405606      -1.74053506       1.24868752
H        1.20267282      -2.35247058      -0.27090377
H        0.71586913       0.25184451       1.43997561
H        3.05724941       0.55878335       0.40400430
H        1.90519944       1.70868263      -0.27737792
H        2.35274150       0.25490684      -1.18914902
17
Frame=1 idx=000426 GeodesicLength=0.056896706193764385 rxn_smarts="[C:1]([C:2]([N:3]1[C:4]([H:12])([H:13])[C@:5]1([C:6]([H:15])([H:16])[H:17])[H:14])([H:10])[H:11])([H:7])([H:8])[H:9]>>[C:1]([C-:2]([N+:3]1=[C:4]([H:13])[C@:5]1([C:6]([H:15])([H:16])[H:17])[H:14])[H:11])([H:7])([H:8])[H:9].[H:10][H:12]"
C       -1.83236345       1.11863311      -0.36248502
C       -1.35034965      -0.29361060      -0.40484177
N       -0.05837026      -0.56962028      -0.37835557
C        0.67188905      -1.54457172       0.22212741
C        1.03032795      -0.12069236       0.46220585
C        2.14699421       0.64505965      -0.19545600
H       -2.82529325       1.15524445       0.08652237
H       -1.16429184       1.74427778       0.23000406
H       -1.90808317       1.55157635      -1.36492080
H       -1.38082032      -1.32936306       1.26110945
H       -1.96944816      -1.03481749      -0.90166014
H       -0.60334235      -1.75382395       1.25008904
H        1.20898202      -2.34301934      -0.26880902
H        0.71920390       0.25866170       1.44081042
H        3.05841447       0.55922583       0.39922101
H        1.90568261       1.70749587      -0.28438308
H        2.35086824       0.24934406      -1.19117820
17
Frame=2 idx=000426 GeodesicLength=0.11377694690661064 rxn_smarts="[C:1]([C:2]([N:3]1[C:4]([H:12])([H:13])[C@:5]1([C:6]([H:15])([H:16])[H:17])[H:14])([H:10])[H:11])([H:7])([H:8])[H:9]>>[C:1]([C-:2]([N+:3]1=[C:4]([H:13])[C@:5]1([C:6]([H:15])([H:16])[H:17])[H:14])[H:11])([H:7])([H:8])[H:9].[H:10][H:12]"
C       -1.83273328       1.11869244      -0.35873194
C       -1.35374556      -0.29569789      -0.39162435
N       -0.05719571      -0.56766862      -0.37720730
C        0.67218716      -1.54303754       0.23147353
C        1.03088491      -0.11794906       0.46404033
C        2.14702504       0.64401813      -0.19881350
H       -2.82848404       1.16044370       0.08383506
H       -1.16651492       1.74577608       0.23440987
H       -1.90011262       1.54751219      -1.36341371
H       -1.39449444      -1.33702163       1.24754116
H       -1.96664062      -1.02935899      -0.90772405
H       -0.60257151      -1.76736855       1.25121618
H        1.21510469      -2.33361464      -0.26639327
H        0.72249364       0.26560663       1.44154954
H        3.05956806       0.55965313       0.39445903
H        1.90619665       1.70628399      -0.29144519
H        2.34903254       0.24373063      -1.19317137
17
Frame=3 idx=000426 GeodesicLength=0.1706523308503701 rxn_smarts="[C:1]([C:2]([N:3]1[C:4]([H:12])([H:13])[C@:5]1([C:6]([H:15])([H:16])[H:17])[H:14])([H:10])[H:11])([H:7])([H:8])[H:9]>>[C:1]([C-:2]([N+:3]1=[C:4]([H:13])[C@:5]1([C:6]([H:15])([H:16])[H:17])[H:14])[H:11])([H:7])([H:8])[H:9].[H:10][H:12]"
C       -1.83309313       1.11868710      -0.35499452
C       -1.35703694      -0.29776873      -0.37879047
N       -0.05602498      -0.56569417      -0.37608611
C        0.67247438      -1.54142318       0.24082581
C        1.03142486      -0.11515670       0.46584080
C        2.14706665       0.64296826      -0.20216103
H       -2.83155434       1.16540518       0.08122653
H       -1.16873727       1.74721192       0.23879384
H       -1.89231158       1.54352316      -1.36176021
H       -1.40816601      -1.34441348       1.23390630
H       -1.96377239      -1.02375947      -0.91346016
H       -0.60171392      -1.78118993       1.25206242
H        1.22103271      -2.32425294      -0.26369526
H        0.72573373       0.27265994       1.44219041
H        3.06070397       0.56005870       0.38973540
H        1.90674449       1.70505154      -0.29852050
H        2.34722978       0.23809281      -1.19511326
17
Frame=4 idx=000426 GeodesicLength=0.22751645939064175 rxn_smarts="[C:1]([C:2]([N:3]1[C:4]([H:12])([H:13])[C@:5]1([C:6]([H:15])([H:16])[H:17])[H:14])([H:10])[H:11])([H:7])([H:8])[H:9]>>[C:1]([C-:2]([N+:3]1=[C:4]([H:13])[C@:5]1([C:6]([H:15])([H:16])[H:17])[H:14])[H:11])([H:7])([H:8])[H:9].[H:10][H:12]"
C       -1.83345313       1.11863050      -0.35127744
C       -1.36023697      -0.29981971      -0.36632220
N       -0.05485662      -0.56370032      -0.37499226
C        0.67275882      -1.53973501       0.25018208
C        1.03195076      -0.11231998       0.46761156
C        2.14712105       0.64190883      -0.20549627
H       -2.83452477       1.17015676       0.07868508
H       -1.17096798       1.74859714       0.24315511
H       -1.88467729       1.53961560      -1.35997934
H       -1.42184207      -1.35150954       1.22023782
H       -1.96085823      -1.01804697      -0.91887384
H       -0.60074404      -1.79531856       1.25261689
H        1.22678980      -2.31494169      -0.26073411
H        0.72892668       0.27981248       1.44274450
H        3.06182804       0.56043979       0.38505413
H        1.90732216       1.70379949      -0.30560433
H        2.34546380       0.23243118      -1.19700738
17
Frame=5 idx=000426 GeodesicLength=0.2843725857163862 rxn_smarts="[C:1]([C:2]([N:3]1[C:4]([H:12])([H:13])[C@:5]1([C:6]([H:15])([H:16])[H:17])[H:14])([H:10])[H:11])([H:7])([H:8])[H:9]>>[C:1]([C-:2]([N+:3]1=[C:4]([H:13])[C@:5]1([C:6]([H:15])([H:16])[H:17])[H:14])[H:11])([H:7])([H:8])[H:9].[H:10][H:12]"
C       -1.83381019       1.11852749      -0.34758227
C       -1.36335099      -0.30185326      -0.35420073
N       -0.05369105      -0.56169019      -0.37392302
C        0.67303963      -1.53797383       0.25954204
C        1.03246176      -0.10944002       0.46935378
C        2.14718521       0.64084198      -0.20881745
H       -2.83739654       1.17471535       0.07620635
H       -1.17320117       1.74993611       0.24748951
H       -1.87719790       1.53578742      -1.35808185
H       -1.43554411      -1.35829474       1.20654122
H       -1.95791190      -1.01224230      -0.92397299
H       -0.59962992      -1.80977364       1.25288762
H        1.23237948      -2.30567860      -0.25752575
H        0.73207408       0.28705900       1.44321311
H        3.06293749       0.56079995       0.38041511
H        1.90792662       1.70252908      -0.31269295
H        2.34372949       0.22675021      -1.19885172
17
Frame=6 idx=000426 GeodesicLength=0.3412035357657159 rxn_smarts="[C:1]([C:2]([N:3]1[C:4]([H:12])([H:13])[C@:5]1([C:6]([H:15])([H:16])[H:17])[H:14])([H:10])[H:11])([H:7])([H:8])[H:9]>>[C:1]([C-:2]([N+:3]1=[C:4]([H:13])[C@:5]1([C:6]([H:15])([H:16])[H:17])[H:14])[H:11])([H:7])([H:8])[H:9].[H:10][H:12]"
C       -1.83416419       1.11838324      -0.34392755
C       -1.36638649      -0.30386572      -0.34240175
N       -0.05253027      -0.55966510      -0.37287988
C        0.67331887      -1.53614604       0.26888594
C        1.03295545      -0.10652918       0.47106992
C        2.14725518       0.63976913      -0.21210467
H       -2.84015848       1.17910672       0.07380347
H       -1.17541018       1.75125012       0.25172955
H       -1.86990578       1.53200459      -1.35610342
H       -1.44926182      -1.36469864       1.19288078
H       -1.95495665      -1.00637957      -0.92872920
H       -0.59833870      -1.82458479       1.25283232
H        1.23780808      -2.29646017      -0.25411928
H        0.73517281       0.29436916       1.44360321
H        3.06402933       0.56112614       0.37583400
H        1.90855366       1.70124228      -0.31973788
H        2.34201916       0.22107783      -1.20063553
17
Frame=7 idx=000426 GeodesicLength=0.3980396562304335 rxn_smarts="[C:1]([C:2]([N:3]1[C:4]([H:12])([H:13])[C@:5]1([C:6]([H:15])([H:16])[H:17])[H:14])([H:10])[H:11])([H:7])([H:8])[H:9]>>[C:1]([C-:2]([N+:3]1=[C:4]([H:13])[C@:5]1([C:6]([H:15])([H:16])[H:17])[H:14])[H:11])([H:7])([H:8])[H:9].[H:10][H:12]"
C       -1.83451192       1.11820487      -0.34030672
C       -1.36935081      -0.30586251      -0.33090490
N       -0.05137596      -0.55763062      -0.37185297
C        0.67359783      -1.53425437       0.27822612
C        1.03343290      -0.10358503       0.47276472
C        2.14732592       0.63869312      -0.21536917
H       -2.84282647       1.18334945       0.07144874
H       -1.17760752       1.75253382       0.25591491
H       -1.86275405       1.52828533      -1.35404361
H       -1.46303272      -1.37072822       1.17924151
H       -1.95199573      -1.00046018      -0.93317562
H       -0.59683933      -1.83978709       1.25248224
H        1.24308696      -2.28728590      -0.25051110
H        0.73822926       0.30174907       1.44392152
H        3.06510190       0.56143449       0.37129772
H        1.90919204       1.69994126      -0.32676642
H        2.34032771       0.21540252      -1.20236697
17
Frame=8 idx=000426 GeodesicLength=0.45484511572800956 rxn_smarts="[C:1]([C:2]([N:3]1[C:4]([H:12])([H:13])[C@:5]1([C:6]([H:15])([H:16])[H:17])[H:14])([H:10])[H:11])([H:7])([H:8])[H:9]>>[C:1]([C-:2]([N+:3]1=[C:4]([H:13])[C@:5]1([C:6]([H:15])([H:16])[H:17])[H:14])[H:11])([H:7])([H:8])[H:9].[H:10][H:12]"
C       -1.83485225       1.11799912      -0.33670318
C       -1.37224982      -0.30784066      -0.31969346
N       -0.05022931      -0.55559067      -0.37083275
C        0.67387750      -1.53229412       0.28757952
C        1.03389470      -0.10060188       0.47443882
C        2.14739223       0.63761024      -0.21862973
H       -2.84543299       1.18744720       0.06908326
H       -1.17983087       1.75376763       0.26013325
H       -1.85565832       1.52466850      -1.35187868
H       -1.47689453      -1.37640580       1.16561837
H       -1.94902633      -0.99448971      -0.93734995
H       -0.59510170      -1.85538436       1.25184562
H        1.24823094      -2.27815285      -0.24668318
H        0.74124771       0.30921283       1.44416483
H        3.06615052       0.56174630       0.36678969
H        1.90982634       1.69861556      -0.33383152
H        2.33865618       0.20969265      -1.20405089
17
Frame=9 idx=000426 GeodesicLength=0.5116665804172119 rxn_smarts="[C:1]([C:2]([N:3]1[C:4]([H:12])([H:13])[C@:5]1([C:6]([H:15])([H:16])[H:17])[H:14])([H:10])[H:11])([H:7])([H:8])[H:9]>>[C:1]([C-:2]([N+:3]1=[C:4]([H:13])[C@:5]1([C:6]([H:15])([H:16])[H:17])[H:14])[H:11])([H:7])([H:8])[H:9].[H:10][H:12]"
C       -1.83517743       1.11777187      -0.33315260
C       -1.37509436      -0.30980324      -0.30873134
N       -0.04909682      -0.55355198      -0.36981382
C        0.67416230      -1.53028192       0.29692083
C        1.03433804      -0.09759982       0.47610141
C        2.14744093       0.63653034      -0.22186022
H       -2.84795311       1.19144668       0.06671239
H       -1.18203651       1.75498466       0.26427936
H       -1.84865338       1.52109692      -1.34967170
H       -1.49083468      -1.38163173       1.15210189
H       -1.94607467      -0.98849856      -0.94120168
H       -0.59308279      -1.87145053       1.25087610
H        1.25324616      -2.26905883      -0.24269954
H        0.74422820       0.31671430       1.44435383
H        3.06717399       0.56203443       0.36231297
H        1.91044928       1.69728323      -0.34083779
H        2.33696483       0.20401418      -1.20569007
17
Frame=10 idx=000426 GeodesicLength=0.5684779609387861 rxn_smarts="[C:1]([C:2]([N:3]1[C:4]([H:12])([H:13])[C@:5]1([C:6]([H:15])([H:16])[H:17])[H:14])([H:10])[H:11])([H:7])([H:8])[H:9]>>[C:1]([C-:2]([N+:3]1=[C:4]([H:13])[C@:5]1([C:6]([H:15])([H:16])[H:17])[H:14])[H:11])([H:7])([H:8])[H:9].[H:10][H:12]"
C       -1.83548727       1.11752733      -0.32963890
C       -1.37788645      -0.31174742      -0.29801131
N       -0.04797789      -0.55151446      -0.36879041
C        0.67445073      -1.52821090       0.30626679
C        1.03476258      -0.09456967       0.47775296
C        2.14747396       0.63545008      -0.22507138
H       -2.85039518       1.19534912       0.06433665
H       -1.18423314       1.75617877       0.26839066
H       -1.84171807       1.51758867      -1.34740410
H       -1.50490716      -1.38644776       1.13865164
H       -1.94313873      -0.98248199      -0.94477599
H       -0.59074877      -1.88798348       1.24960388
H        1.25813784      -2.25999788      -0.23854514
H        0.74717174       0.32427263       1.44448423
H        3.06816908       0.56231905       0.35786718
H        1.91105562       1.69593498      -0.34783805
H        2.33527111       0.19833295      -1.20727873
17
Frame=11 idx=000426 GeodesicLength=0.6252704280697958 rxn_smarts="[C:1]([C:2]([N:3]1[C:4]([H:12])([H:13])[C@:5]1([C:6]([H:15])([H:16])[H:17])[H:14])([H:10])[H:11])([H:7])([H:8])[H:9]>>[C:1]([C-:2]([N+:3]1=[C:4]([H:13])[C@:5]1([C:6]([H:15])([H:16])[H:17])[H:14])[H:11])([H:7])([H:8])[H:9].[H:10][H:12]"
C       -1.83577176       1.11727724      -0.32619685
C       -1.38063704      -0.31367020      -0.28749402
N       -0.04688056      -0.54948275      -0.36776296
C        0.67474563      -1.52610319       0.31557820
C        1.03516496      -0.09153780       0.47940139
C        2.14747737       0.63437931      -0.22823406
H       -2.85273068       1.19920824       0.06196442
H       -1.18637114       1.75739067       0.27235828
H       -1.83489197       1.51408519      -1.34514141
H       -1.51908843      -1.39075088       1.12538324
H       -1.94024890      -0.97647359      -0.94800963
H       -0.58806020      -1.90506210       1.24796034
H        1.26291083      -2.25096910      -0.23430115
H        0.75008007       0.33182832       1.44457999
H        3.06912020       0.56260978       0.35348463
H        1.91161504       1.69458078      -0.35476977
H        2.33356659       0.19269008      -1.20880067
17
Frame=12 idx=000426 GeodesicLength=0.6820606626861734 rxn_smarts="[C:1]([C:2]([N:3]1[C:4]([H:12])([H:13])[C@:5]1([C:6]([H:15])([H:16])[H:17])[H:14])([H:10])[H:11])([H:7])([H:8])[H:9]>>[C:1]([C-:2]([N+:3]1=[C:4]([H:13])[C@:5]1([C:6]([H:15])([H:16])[H:17])[H:14])[H:11])([H:7])([H:8])[H:9].[H:10][H:12]"
C       -1.83603083       1.11702434      -0.32281860
C       -1.38334969      -0.31557065      -0.27716721
N       -0.04580590      -0.54746028      -0.36672055
C        0.67504979      -1.52395499       0.32487210
C        1.03554510      -0.08849745       0.48105038
C        2.14744794       0.63331667      -0.23136003
H       -2.85497831       1.20302832       0.05956167
H       -1.18847270       1.75860992       0.27622916
H       -1.82812610       1.51060668      -1.34287210
H       -1.53343040      -1.39454689       1.11228686
H       -1.93740441      -0.97047238      -0.95093185
H       -0.58497499      -1.92271054       1.24595367
H        1.26757759      -2.24196741      -0.22995024
H        0.75295580       0.33939541       1.44464250
H        3.07003016       0.56290789       0.34914486
H        1.91212590       1.69321858      -0.36165606
H        2.33184105       0.18707278      -1.21026456
17
Frame=13 idx=000426 GeodesicLength=0.7388529299736711 rxn_smarts="[C:1]([C:2]([N:3]1[C:4]([H:12])([H:13])[C@:5]1([C:6]([H:15])([H:16])[H:17])[H:14])([H:10])[H:11])([H:7])([H:8])[H:9]>>[C:1]([C-:2]([N+:3]1=[C:4]([H:13])[C@:5]1([C:6]([H:15])([H:16])[H:17])[H:14])[H:11])([H:7])([H:8])[H:9].[H:10][H:12]"
C       -1.83625907       1.11677414      -0.31950007
C       -1.38603063      -0.31744818      -0.26701077
N       -0.04475814      -0.54545374      -0.36564891
C        0.67536544      -1.52176663       0.33416349
C        1.03590149      -0.08544645       0.48270571
C        2.14737615       0.63226339      -0.23445883
H       -2.85715052       1.20682155       0.05708499
H       -1.19055261       1.75982990       0.28004231
H       -1.82136195       1.50716753      -1.34059002
H       -1.54797333      -1.39782278       1.09938053
H       -1.93460276      -0.96447929      -0.95355886
H       -0.58145592      -1.94097640       1.24356382
H        1.27215226      -2.23298709      -0.22548164
H        0.75579960       0.34698053       1.44467592
H        3.07089574       0.56322199       0.34482898
H        1.91257330       1.69184699      -0.36851906
H        2.33008097       0.18147454      -1.21167758
17
Frame=14 idx=000426 GeodesicLength=0.7956523792335314 rxn_smarts="[C:1]([C:2]([N:3]1[C:4]([H:12])([H:13])[C@:5]1([C:6]([H:15])([H:16])[H:17])[H:14])([H:10])[H:11])([H:7])([H:8])[H:9]>>[C:1]([C-:2]([N+:3]1=[C:4]([H:13])[C@:5]1([C:6]([H:15])([H:16])[H:17])[H:14])[H:11])([H:7])([H:8])[H:9].[H:10][H:12]"
C       -1.83644812       1.11653355      -0.31624210
C       -1.38868581      -0.31930053      -0.25700153
N       -0.04374216      -0.54346961      -0.36453578
C        0.67569452      -1.51954150       0.34345930
C        1.03623221      -0.08238761       0.48437431
C        2.14725046       0.63122161      -0.23753325
H       -2.85924731       1.21060949       0.05450743
H       -1.19260782       1.76105513       0.28380502
H       -1.81456308       1.50376715      -1.33829929
H       -1.56275322      -1.40055322       1.08669147
H       -1.93185053      -0.95849689      -0.95588922
H       -0.57746379      -1.95992035       1.24075287
H        1.27664971      -2.22402029      -0.22089554
H        0.75861389       0.35457860       1.44468859
H        3.07170799       0.56357372       0.34053202
H        1.91293412       1.69046287      -0.37537734
H        2.32827895       0.17588788      -1.21303695
17
Frame=15 idx=000426 GeodesicLength=0.8524550062880026 rxn_smarts="[C:1]([C:2]([N:3]1[C:4]([H:12])([H:13])[C@:5]1([C:6]([H:15])([H:16])[H:17])[H:14])([H:10])[H:11])([H:7])([H:8])[H:9]>>[C:1]([C-:2]([N+:3]1=[C:4]([H:13])[C@:5]1([C:6]([H:15])([H:16])[H:17])[H:14])[H:11])([H:7])([H:8])[H:9].[H:10][H:12]"
C       -1.83659232       1.11630815      -0.31307544
C       -1.39132102      -0.32112458      -0.24711497
N       -0.04276298      -0.54151104      -0.36338099
C        0.67603951      -1.51729555       0.35273494
C        1.03653369      -0.07933711       0.48606243
C        2.14706305       0.63019966      -0.24056083
H       -2.86124703       1.21442499       0.05183578
H       -1.19460347       1.76231347       0.28743157
H       -1.80776397       1.50036075      -1.33605166
H       -1.57778043      -1.40266270       1.07429975
H       -1.92917056      -0.95255330      -0.95788338
H       -0.57293850      -1.97959138       1.23748804
H        1.28106863      -2.21506732      -0.21624835
H        0.76139562       0.36215123       1.44469783
H        3.07246358       0.56394299       0.33626588
H        1.91320133       1.68908188      -0.38215947
H        2.32641487       0.17035987      -1.21434112
17
Frame=16 idx=000426 GeodesicLength=0.9092517569397627 rxn_smarts="[C:1]([C:2]([N:3]1[C:4]([H:12])([H:13])[C@:5]1([C:6]([H:15])([H:16])[H:17])[H:14])([H:10])[H:11])([H:7])([H:8])[H:9]>>[C:1]([C-:2]([N+:3]1=[C:4]([H:13])[C@:5]1([C:6]([H:15])([H:16])[H:17])[H:14])[H:11])([H:7])([H:8])[H:9].[H:10][H:12]"
C       -1.83668525       1.11610418      -0.31003316
C       -1.39394324      -0.32291424      -0.23731838
N       -0.04182866      -0.53957925      -0.36218407
C        0.67640272      -1.51504675       0.36195565
C        1.03680251      -0.07631490       0.48777596
C        2.14680474       0.62920557      -0.24351634
H       -2.86313202       1.21830209       0.04906038
H       -1.19650548       1.76363382       0.29083542
H       -1.80099095       1.49690012      -1.33390165
H       -1.59305612      -1.40404530       1.06232071
H       -1.92659274      -0.94668306      -0.95948229
H       -0.56782256      -2.00005896       1.23370092
H        1.28540873      -2.20612200      -0.21161102
H        0.76414746       0.36964824       1.44472481
H        3.07315236       0.56432794       0.33205618
H        1.91335717       1.68771462      -0.38880502
H        2.32448133       0.16492788      -1.21557812
