13
Frame=0 idx=010416 GeodesicLength=0.0 rxn_smarts="[C:1]([c:2]1[c:3]([H:11])[n:4]([H:12])[c:5]([O:6][H:13])[n:7]1)([H:8])([H:9])[H:10]>>[C:1]([C:2](/[C:3](=[N:4]\[H:12])[H:11])=[N+:7]=[C-:5][O:6][H:13])([H:8])([H:9])[H:10]"
C        1.94844981       0.44528250      -0.03595457
C        0.51838182       0.01930901       0.00386143
C        0.07896579      -1.32282807       0.00007255
N       -1.18532099      -1.64231923       0.04501208
C       -1.60430107       0.47469419       0.60630014
O       -2.72700013       1.00635751       0.16733362
N       -0.44483433       0.89122676       0.24593726
H        2.17693162       1.10981102       0.79857441
H        2.16542962       0.98620221      -0.95909687
H        2.60898705      -0.42069422       0.00717786
H        0.80505243      -2.10376159       0.21989299
H       -1.78361542      -1.07843241      -0.54905875
H       -2.55712622       1.63515228      -0.55005216
13
Frame=1 idx=010416 GeodesicLength=0.03936806972847709 rxn_smarts="[C:1]([c:2]1[c:3]([H:11])[n:4]([H:12])[c:5]([O:6][H:13])[n:7]1)([H:8])([H:9])[H:10]>>[C:1]([C:2](/[C:3](=[N:4]\[H:12])[H:11])=[N+:7]=[C-:5][O:6][H:13])([H:8])([H:9])[H:10]"
C        1.94937186       0.44608484      -0.03633767
C        0.51924073       0.02026439      -0.00158396
C        0.08054031      -1.32293204       0.00414607
N       -1.18692882      -1.62869737       0.07850259
C       -1.60481109       0.47549206       0.59628781
O       -2.72725342       1.00866798       0.15554781
N       -0.44503527       0.89295314       0.23579926
H        2.18528690       1.07707442       0.82193863
H        2.15930124       1.02167441      -0.93978073
H        2.61127248      -0.41997394      -0.03156920
H        0.80466778      -2.10649334       0.21950667
H       -1.79173510      -1.10256943      -0.54251895
H       -2.55391761       1.63845489      -0.55993833
13
Frame=2 idx=010416 GeodesicLength=0.0787058689117772 rxn_smarts="[C:1]([c:2]1[c:3]([H:11])[n:4]([H:12])[c:5]([O:6][H:13])[n:7]1)([H:8])([H:9])[H:10]>>[C:1]([C:2](/[C:3](=[N:4]\[H:12])[H:11])=[N+:7]=[C-:5][O:6][H:13])([H:8])([H:9])[H:10]"
C        1.95038958       0.44684105      -0.03663231
C        0.52011132       0.02141177      -0.00769257
C        0.08206096      -1.32277541       0.00778243
N       -1.18797328      -1.61436712       0.11027774
C       -1.60506779       0.47639948       0.58637212
O       -2.72751822       1.01078522       0.14416668
N       -0.44517894       0.89485580       0.22517478
H        2.19338375       1.04381894       0.84381408
H        2.15407453       1.05589992      -0.91914992
H        2.61304721      -0.41809911      -0.06928663
H        0.80401920      -2.10899993       0.21911430
H       -1.80023640      -1.12723240      -0.53435701
H       -2.55111193       1.64146178      -0.56958368
13
Frame=3 idx=010416 GeodesicLength=0.1180284159066475 rxn_smarts="[C:1]([c:2]1[c:3]([H:11])[n:4]([H:12])[c:5]([O:6][H:13])[n:7]1)([H:8])([H:9])[H:10]>>[C:1]([C:2](/[C:3](=[N:4]\[H:12])[H:11])=[N+:7]=[C-:5][O:6][H:13])([H:8])([H:9])[H:10]"
C        1.95143640       0.44757687      -0.03693383
C        0.52097922       0.02268857      -0.01392203
C        0.08354034      -1.32243143       0.01122719
N       -1.18856297      -1.59945418       0.14006890
C       -1.60524886       0.47723376       0.57657752
O       -2.72778135       1.01267309       0.13292467
N       -0.44528910       0.89683477       0.21471030
H        2.20139621       1.01029253       0.86401412
H        2.14925903       1.08883082      -0.89755352
H        2.61432135      -0.41510792      -0.10623292
H        0.80309134      -2.11133145       0.21916703
H       -1.80875756      -1.15224258      -0.52513719
H       -2.54838406       1.64443712      -0.57891024
13
Frame=4 idx=010416 GeodesicLength=0.15731707230311198 rxn_smarts="[C:1]([c:2]1[c:3]([H:11])[n:4]([H:12])[c:5]([O:6][H:13])[n:7]1)([H:8])([H:9])[H:10]>>[C:1]([C:2](/[C:3](=[N:4]\[H:12])[H:11])=[N+:7]=[C-:5][O:6][H:13])([H:8])([H:9])[H:10]"
C        1.95254124       0.44829446      -0.03716062
C        0.52185732       0.02410803      -0.02042020
C        0.08496783      -1.32188114       0.01435013
N       -1.18873327      -1.58402520       0.16817610
C       -1.60529291       0.47809432       0.56687056
O       -2.72805277       1.01437940       0.12191125
N       -0.44536494       0.89892892       0.20406929
H        2.20920424       0.97657497       0.88265436
H        2.14504928       1.12040701      -0.87496438
H        2.61521047      -0.41102844      -0.14209138
H        0.80194416      -2.11351849       0.21912846
H       -1.81746384      -1.17762623      -0.51453444
H       -2.54586682       1.64729239      -0.58798912
13
Frame=5 idx=010416 GeodesicLength=0.19659142443060262 rxn_smarts="[C:1]([c:2]1[c:3]([H:11])[n:4]([H:12])[c:5]([O:6][H:13])[n:7]1)([H:8])([H:9])[H:10]>>[C:1]([C:2](/[C:3](=[N:4]\[H:12])[H:11])=[N+:7]=[C-:5][O:6][H:13])([H:8])([H:9])[H:10]"
C        1.95368843       0.44900479      -0.03729253
C        0.52276021       0.02565655      -0.02718175
C        0.08634390      -1.32112706       0.01710846
N       -1.18849176      -1.56812740       0.19489282
C       -1.60520792       0.47905605       0.55723995
O       -2.72830746       1.01599513       0.11099089
N       -0.44538479       0.90115271       0.19328677
H        2.21685442       0.94244906       0.89998001
H        2.14131678       1.15093232      -0.85124608
H        2.61573768      -0.40591068      -0.17716901
H        0.80060927      -2.11556760       0.21879256
H       -1.82643159      -1.20341800      -0.50226871
H       -2.54348718       1.64990414      -0.59713339
13
Frame=6 idx=010416 GeodesicLength=0.23592119485476465 rxn_smarts="[C:1]([c:2]1[c:3]([H:11])[n:4]([H:12])[c:5]([O:6][H:13])[n:7]1)([H:8])([H:9])[H:10]>>[C:1]([C:2](/[C:3](=[N:4]\[H:12])[H:11])=[N+:7]=[C-:5][O:6][H:13])([H:8])([H:9])[H:10]"
C        1.95484964       0.44971713      -0.03737487
C        0.52364065       0.02736024      -0.03397323
C        0.08763796      -1.32015917       0.01969549
N       -1.18792922      -1.55179520       0.22036260
C       -1.60511426       0.48007990       0.54766361
O       -2.72851426       1.01749992       0.09985493
N       -0.44536492       0.90350422       0.18273021
H        2.22454970       0.90761595       0.91603214
H        2.13781106       1.18067327      -0.82625675
H        2.61585523      -0.39966693      -0.21205214
H        0.79908096      -2.11748899       0.21824887
H       -1.83550685      -1.22960813      -0.48834698
H       -2.54099570       1.65226779      -0.60658388
13
Frame=7 idx=010416 GeodesicLength=0.27524041653884446 rxn_smarts="[C:1]([c:2]1[c:3]([H:11])[n:4]([H:12])[c:5]([O:6][H:13])[n:7]1)([H:8])([H:9])[H:10]>>[C:1]([C:2](/[C:3](=[N:4]\[H:12])[H:11])=[N+:7]=[C-:5][O:6][H:13])([H:8])([H:9])[H:10]"
C        1.95603005       0.45043439      -0.03738925
C        0.52454553       0.02917708      -0.04074450
C        0.08888401      -1.31902601       0.02195392
N       -1.18705846      -1.53512413       0.24431758
C       -1.60496864       0.48110400       0.53815513
O       -2.72870690       1.01886249       0.08870100
N       -0.44530536       0.90594745       0.17228533
H        2.23219194       0.87261555       0.93063448
H        2.13457384       1.20923545      -0.80037005
H        2.61564578      -0.39241695      -0.24611658
H        0.79734155      -2.11929460       0.21759773
H       -1.84464865      -1.25605347      -0.47301804
H       -2.53852468       1.65453873      -0.61600675
13
Frame=8 idx=010416 GeodesicLength=0.3145838389024895 rxn_smarts="[C:1]([c:2]1[c:3]([H:11])[n:4]([H:12])[c:5]([O:6][H:13])[n:7]1)([H:8])([H:9])[H:10]>>[C:1]([C:2](/[C:3](=[N:4]\[H:12])[H:11])=[N+:7]=[C-:5][O:6][H:13])([H:8])([H:9])[H:10]"
C        1.95723225       0.45115723      -0.03731455
C        0.52545351       0.03110884      -0.04749915
C        0.09006170      -1.31771427       0.02389241
N       -1.18590981      -1.51812850       0.26703518
C       -1.60480227       0.48218506       0.52866625
O       -2.72887642       1.02010965       0.07735338
N       -0.44521721       0.90849748       0.16196110
H        2.23982791       0.83719214       0.94394400
H        2.13157458       1.23684485      -0.77337866
H        2.61511997      -0.38411449      -0.27968428
H        0.79542573      -2.12098895       0.21663420
H       -1.85387888      -1.28280719      -0.45598348
H       -2.53601107       1.65665815      -0.62562639
13
Frame=9 idx=010416 GeodesicLength=0.3539430902721489 rxn_smarts="[C:1]([c:2]1[c:3]([H:11])[n:4]([H:12])[c:5]([O:6][H:13])[n:7]1)([H:8])([H:9])[H:10]>>[C:1]([C:2](/[C:3](=[N:4]\[H:12])[H:11])=[N+:7]=[C-:5][O:6][H:13])([H:8])([H:9])[H:10]"
C        1.95845213       0.45189929      -0.03712787
C        0.52637810       0.03317624      -0.05423470
C        0.09115364      -1.31621791       0.02547669
N       -1.18446811      -1.50084646       0.28878047
C       -1.60464463       0.48337734       0.51917134
O       -2.72902098       1.02126040       0.06562029
N       -0.44507805       0.91118784       0.15180239
H        2.24753814       0.80109621       0.95605699
H        2.12874476       1.26371773      -0.74504015
H        2.61427433      -0.37468831      -0.31301025
H        0.79333604      -2.12261446       0.21510461
H       -1.86328246      -1.30990877      -0.43687862
H       -2.53338292       1.65856086      -0.63572119
13
Frame=10 idx=010416 GeodesicLength=0.3934061713740592 rxn_smarts="[C:1]([c:2]1[c:3]([H:11])[n:4]([H:12])[c:5]([O:6][H:13])[n:7]1)([H:8])([H:9])[H:10]>>[C:1]([C:2](/[C:3](=[N:4]\[H:12])[H:11])=[N+:7]=[C-:5][O:6][H:13])([H:8])([H:9])[H:10]"
C        1.95966579       0.45266211      -0.03683006
C        0.52727177       0.03542734      -0.06089816
C        0.09211581      -1.31449757       0.02671534
N       -1.18278922      -1.48324604       0.30963486
C       -1.60450680       0.48468016       0.50964446
O       -2.72908515       1.02225736       0.05335916
N       -0.44489711       0.91404867       0.14191626
H        2.25540755       0.76416800       0.96691801
H        2.12608942       1.28987175      -0.71516712
H        2.61302008      -0.36401288      -0.34627332
H        0.79101383      -2.12411790       0.21291599
H       -1.87277801      -1.33739057      -0.41551915
H       -2.53052796       1.66014958      -0.64641628
13
Frame=11 idx=010416 GeodesicLength=0.43316609195441574 rxn_smarts="[C:1]([c:2]1[c:3]([H:11])[n:4]([H:12])[c:5]([O:6][H:13])[n:7]1)([H:8])([H:9])[H:10]>>[C:1]([C:2](/[C:3](=[N:4]\[H:12])[H:11])=[N+:7]=[C-:5][O:6][H:13])([H:8])([H:9])[H:10]"
C        1.96092950       0.45344759      -0.03636711
C        0.52817079       0.03790648      -0.06759304
C        0.09292033      -1.31251868       0.02746065
N       -1.18080497      -1.46523565       0.32989515
C       -1.60444552       0.48620181       0.50008336
O       -2.72915624       1.02311413       0.04043413
N       -0.44465185       0.91716320       0.13222896
H        2.26361178       0.72619036       0.97656057
H        2.12377418       1.31542680      -0.68334612
H        2.61136188      -0.35199062      -0.37956193
H        0.78848418      -2.12553095       0.20961069
H       -1.88266748      -1.36542183      -0.39136452
H       -2.52752658       1.66124735      -0.65804079
13
Frame=12 idx=010416 GeodesicLength=0.47291124370910637 rxn_smarts="[C:1]([c:2]1[c:3]([H:11])[n:4]([H:12])[c:5]([O:6][H:13])[n:7]1)([H:8])([H:9])[H:10]>>[C:1]([C:2](/[C:3](=[N:4]\[H:12])[H:11])=[N+:7]=[C-:5][O:6][H:13])([H:8])([H:9])[H:10]"
C        1.96202604       0.45429028      -0.03599544
C        0.52888891       0.04063274      -0.07329157
C        0.09353659      -1.31029902       0.02850244
N       -1.17875326      -1.44705630       0.34965246
C       -1.60477052       0.48762850       0.49048800
O       -2.72892203       1.02369762       0.02568772
N       -0.44438596       0.92046747       0.12460041
H        2.27252320       0.68614171       0.98489723
H        2.12041190       1.34108105      -0.64970767
H        2.60870025      -0.33836937      -0.41481392
H        0.78564808      -2.12681336       0.20616809
H       -1.89169488      -1.39354886      -0.36509145
H       -2.52320833       1.66214753      -0.67109629
13
Frame=13 idx=010416 GeodesicLength=0.5127435551826564 rxn_smarts="[C:1]([c:2]1[c:3]([H:11])[n:4]([H:12])[c:5]([O:6][H:13])[n:7]1)([H:8])([H:9])[H:10]>>[C:1]([C:2](/[C:3](=[N:4]\[H:12])[H:11])=[N+:7]=[C-:5][O:6][H:13])([H:8])([H:9])[H:10]"
C        1.96318069       0.45514627      -0.03542815
C        0.52960407       0.04359004      -0.07891950
C        0.09395974      -1.30780413       0.02889336
N       -1.17640545      -1.42857271       0.36883355
C       -1.60518727       0.48924763       0.48083686
O       -2.72867940       1.02404279       0.01011355
N       -0.44406608       0.92401785       0.11730272
H        2.28179576       0.64504170       0.99175323
H        2.11737973       1.36587815      -0.61395656
H        2.60560122      -0.32314562      -0.44997883
H        0.78255275      -2.12798807       0.20143989
H       -1.90104707      -1.42190980      -0.33567324
H       -2.51868869       1.66245590      -0.68521689
13
Frame=14 idx=010416 GeodesicLength=0.5527124337768539 rxn_smarts="[C:1]([c:2]1[c:3]([H:11])[n:4]([H:12])[c:5]([O:6][H:13])[n:7]1)([H:8])([H:9])[H:10]>>[C:1]([C:2](/[C:3](=[N:4]\[H:12])[H:11])=[N+:7]=[C-:5][O:6][H:13])([H:8])([H:9])[H:10]"
C        1.96434225       0.45603971      -0.03469655
C        0.53027040       0.04683448      -0.08413182
C        0.09414724      -1.30504798       0.02871494
N       -1.17386801      -1.40982581       0.38736537
C       -1.60580619       0.49097436       0.47120435
O       -2.72835613       1.02409424      -0.00655371
N       -0.44371107       0.92787066       0.11092916
H        2.29155862       0.60293778       0.99696453
H        2.11442653       1.38974063      -0.57627944
H        2.60192505      -0.30628247      -0.48520870
H        0.77912363      -2.12909604       0.19546218
H       -1.91039853      -1.45044004      -0.30323147
H       -2.51365378       1.66220048      -0.70053883
13
Frame=15 idx=010416 GeodesicLength=0.592715829149586 rxn_smarts="[C:1]([c:2]1[c:3]([H:11])[n:4]([H:12])[c:5]([O:6][H:13])[n:7]1)([H:8])([H:9])[H:10]>>[C:1]([C:2](/[C:3](=[N:4]\[H:12])[H:11])=[N+:7]=[C-:5][O:6][H:13])([H:8])([H:9])[H:10]"
C        1.96544182       0.45698232      -0.03376069
C        0.53087950       0.05035861      -0.08898299
C        0.09400594      -1.30201222       0.02777458
N       -1.17112981      -1.39086173       0.40508913
C       -1.60646183       0.49275389       0.46156314
O       -2.72776824       1.02373272      -0.02418548
N       -0.44326321       0.93198333       0.10532256
H        2.30153867       0.56020702       1.00041051
H        2.11158654       1.41239576      -0.53685584
H        2.59763098      -0.28781106      -0.51999955
H        0.77516335      -2.13006971       0.18810775
H       -1.91959963      -1.47897444      -0.26762745
H       -2.50802408       1.66131550      -0.71685566
13
Frame=16 idx=010416 GeodesicLength=0.6327658865396129 rxn_smarts="[C:1]([c:2]1[c:3]([H:11])[n:4]([H:12])[c:5]([O:6][H:13])[n:7]1)([H:8])([H:9])[H:10]>>[C:1]([C:2](/[C:3](=[N:4]\[H:12])[H:11])=[N+:7]=[C-:5][O:6][H:13])([H:8])([H:9])[H:10]"
C        1.96654116       0.45794703      -0.03260611
C        0.53143104       0.05418088      -0.09345256
C        0.09354912      -1.29870490       0.02602036
N       -1.16824574      -1.37170149       0.42201146
C       -1.60725296       0.49459818       0.45195028
O       -2.72703591       1.02293872      -0.04283544
N       -0.44279369       0.93639305       0.10056272
H        2.31174813       0.51686256       1.00210641
H        2.10892324       1.43372607      -0.49577055
H        2.59283335      -0.26773317      -0.55429339
H        0.77072267      -2.13094175       0.17929208
H       -1.92852901      -1.50736982      -0.22876287
H       -2.50189139       1.65980464      -0.73422239
