12
Frame=0 idx=003473 GeodesicLength=0.0 rxn_smarts="[N:1]([C@@:2]1([H:9])[C:3]([H:10])([H:11])[O:4]/[C:5]1=[N:6]\[H:12])([H:7])[H:8]>>[H:7][H:12].[N:1](=[C:2](\[C:3]([O:4][C:5]#[N:6])([H:10])[H:11])[H:9])\[H:8]"
N        1.47128954      -0.17774581       0.38731133
C        0.53854808      -0.06868924      -0.53852680
C       -0.62359801      -0.98989489      -0.84639943
O       -1.70183182      -0.03609797      -0.62387458
C       -1.01224424       0.79299817       0.14691753
N       -0.96470504       1.60246016       1.01439566
H        1.17850700       0.94559760       1.31256775
H        1.25919849      -0.93744388       1.03651925
H        0.77782696       0.60669214      -1.36139374
H       -0.66315691      -1.35535698      -1.87183558
H       -0.72862326      -1.81897998      -0.14285334
H        0.46878917       1.43646068       1.48717196
12
Frame=1 idx=003473 GeodesicLength=0.07444146992272237 rxn_smarts="[N:1]([C@@:2]1([H:9])[C:3]([H:10])([H:11])[O:4]/[C:5]1=[N:6]\[H:12])([H:7])[H:8]>>[H:7][H:12].[N:1](=[C:2](\[C:3]([O:4][C:5]#[N:6])([H:10])[H:11])[H:9])\[H:8]"
N        1.47585461      -0.17633716       0.38011346
C        0.54098199      -0.06719901      -0.54637773
C       -0.62346624      -0.98930519      -0.84298458
O       -1.70197545      -0.03571289      -0.62338309
C       -1.01559322       0.80832883       0.13368726
N       -0.97113949       1.60803577       1.01178470
H        1.17993261       0.93617982       1.32737290
H        1.27199564      -0.94378256       1.02227129
H        0.78356593       0.59958371      -1.37518589
H       -0.66801555      -1.36206182      -1.86548032
H       -0.72466373      -1.81208411      -0.13158826
H        0.45252289       1.43435460       1.50977026
12
Frame=2 idx=003473 GeodesicLength=0.14887358113660712 rxn_smarts="[N:1]([C@@:2]1([H:9])[C:3]([H:10])([H:11])[O:4]/[C:5]1=[N:6]\[H:12])([H:7])[H:8]>>[H:7][H:12].[N:1](=[C:2](\[C:3]([O:4][C:5]#[N:6])([H:10])[H:11])[H:9])\[H:8]"
N        1.48059151      -0.17467711       0.37269978
C        0.54347529      -0.06568845      -0.55437300
C       -0.62328939      -0.98864955      -0.83933893
O       -1.70203452      -0.03525702      -0.62251440
C       -1.01890610       0.82358138       0.12052625
N       -0.97713443       1.61490726       1.00778066
H        1.18125228       0.92605516       1.34244484
H        1.28552184      -0.95010236       1.00741817
H        0.78907808       0.59242313      -1.38912074
H       -0.67302981      -1.36877370      -1.85877322
H       -0.72044723      -1.80498964      -0.12007416
H        0.43492247       1.43117089       1.53332475
12
Frame=3 idx=003473 GeodesicLength=0.2232979933159094 rxn_smarts="[N:1]([C@@:2]1([H:9])[C:3]([H:10])([H:11])[O:4]/[C:5]1=[N:6]\[H:12])([H:7])[H:8]>>[H:7][H:12].[N:1](=[C:2](\[C:3]([O:4][C:5]#[N:6])([H:10])[H:11])[H:9])\[H:8]"
N        1.48549263      -0.17277175       0.36508282
C        0.54604075      -0.06416823      -0.56252032
C       -0.62306735      -0.98791460      -0.83545904
O       -1.70199203      -0.03468536      -0.62130735
C       -1.02216559       0.83880006       0.10738019
N       -0.98267523       1.62291147       1.00259547
H        1.18251673       0.91526863       1.35769498
H        1.29971616      -0.95633761       0.99200326
H        0.79440940       0.58516556      -1.40322488
H       -0.67819093      -1.37550270      -1.85169485
H       -0.71599800      -1.79766069      -0.10829135
H        0.41591346       1.42689521       1.55774107
12
Frame=4 idx=003473 GeodesicLength=0.29774938592659456 rxn_smarts="[N:1]([C@@:2]1([H:9])[C:3]([H:10])([H:11])[O:4]/[C:5]1=[N:6]\[H:12])([H:7])[H:8]>>[H:7][H:12].[N:1](=[C:2](\[C:3]([O:4][C:5]#[N:6])([H:10])[H:11])[H:9])\[H:8]"
N        1.49055791      -0.17063911       0.35728237
C        0.54869198      -0.06265044      -0.57082257
C       -0.62280259      -0.98709047      -0.83134852
O       -1.70184285      -0.03395592      -0.61979740
C       -1.02536570       0.85401953       0.09421583
N       -0.98775433       1.63188078       0.99643271
H        1.18378177       0.90385230       1.37305725
H        1.31452161      -0.96244250       0.97607933
H        0.79960196       0.57778055      -1.41751195
H       -0.68349268      -1.38225121      -1.84423914
H       -0.71133877      -1.79007767      -0.09623454
H        0.39544169       1.42157416       1.58288664
12
Frame=5 idx=003473 GeodesicLength=0.3719924397453262 rxn_smarts="[N:1]([C@@:2]1([H:9])[C:3]([H:10])([H:11])[O:4]/[C:5]1=[N:6]\[H:12])([H:7])[H:8]>>[H:7][H:12].[N:1](=[C:2](\[C:3]([O:4][C:5]#[N:6])([H:10])[H:11])[H:9])\[H:8]"
N        1.49570438      -0.16834776       0.34938450
C        0.55140519      -0.06116411      -0.57922574
C       -0.62247958      -0.98616406      -0.82705891
O       -1.70154108      -0.03309031      -0.61799131
C       -1.02850075       0.86914873       0.08112343
N       -0.99248090       1.64147307       0.98963333
H        1.18495294       0.89156240       1.38872760
H        1.32981637      -0.96845676       0.95968014
H        0.80464669       0.57025748      -1.43187438
H       -0.68890078      -1.38893072      -1.83648189
H       -0.70645611      -1.78225138      -0.08403251
H        0.37383362       1.41596342       1.60811574
12
Frame=6 idx=003473 GeodesicLength=0.44635371118002987 rxn_smarts="[N:1]([C@@:2]1([H:9])[C:3]([H:10])([H:11])[O:4]/[C:5]1=[N:6]\[H:12])([H:7])[H:8]>>[H:7][H:12].[N:1](=[C:2](\[C:3]([O:4][C:5]#[N:6])([H:10])[H:11])[H:9])\[H:8]"
N        1.50104849      -0.16577885       0.34123785
C        0.55423152      -0.05968094      -0.58784781
C       -0.62211637      -0.98511094      -0.82247478
O       -1.70108959      -0.03193949      -0.61596230
C       -1.03151396       0.88442895       0.06785740
N       -0.99657723       1.65195897       0.98196079
H        1.18631127       0.87887775       1.40420304
H        1.34571007      -0.97416156       0.94278949
H        0.80960578       0.56248982      -1.44655728
H       -0.69446527      -1.39572957      -1.82821452
H       -0.70140125      -1.77401671      -0.07138678
H        0.35025654       1.40866256       1.63439491
12
Frame=7 idx=003473 GeodesicLength=0.5207614890454306 rxn_smarts="[N:1]([C@@:2]1([H:9])[C:3]([H:10])([H:11])[O:4]/[C:5]1=[N:6]\[H:12])([H:7])[H:8]>>[H:7][H:12].[N:1](=[C:2](\[C:3]([O:4][C:5]#[N:6])([H:10])[H:11])[H:9])\[H:8]"
N        1.50655676      -0.16301960       0.33293137
C        0.55716847      -0.05822182      -0.59663678
C       -0.62170783      -0.98392762      -0.81764683
O       -1.70049853      -0.03051841      -0.61371597
C       -1.03444287       0.89977606       0.05452122
N       -1.00017501       1.66302981       0.97373025
H        1.18782061       0.86557130       1.41967241
H        1.36211243      -0.97964224       0.92546815
H        0.81449680       0.55451799      -1.46146049
H       -0.70015613      -1.40254962      -1.81951853
H       -0.69617432      -1.76543444      -0.05841920
H        0.32499963       1.40041859       1.66107440
12
Frame=8 idx=003473 GeodesicLength=0.5949891352031229 rxn_smarts="[N:1]([C@@:2]1([H:9])[C:3]([H:10])([H:11])[O:4]/[C:5]1=[N:6]\[H:12])([H:7])[H:8]>>[H:7][H:12].[N:1](=[C:2](\[C:3]([O:4][C:5]#[N:6])([H:10])[H:11])[H:9])\[H:8]"
N        1.51213339      -0.16014303       0.32453053
C        0.56017818      -0.05681534      -0.60553066
C       -0.62123251      -0.98261707      -0.81263231
O       -1.69971012      -0.02888660      -0.61123073
C       -1.03727233       0.91507193       0.04123837
N       -1.00334228       1.67446530       0.96516440
H        1.18944133       0.85145236       1.43526369
H        1.37888392      -0.98493992       0.90772462
H        0.81927881       0.54634612      -1.47643894
H       -0.70594138      -1.40930860      -1.81047375
H       -0.69074216      -1.75654253      -0.04529887
H        0.29832518       1.39191738       1.68768365
12
Frame=9 idx=003473 GeodesicLength=0.6693240024774841 rxn_smarts="[N:1]([C@@:2]1([H:9])[C:3]([H:10])([H:11])[O:4]/[C:5]1=[N:6]\[H:12])([H:7])[H:8]>>[H:7][H:12].[N:1](=[C:2](\[C:3]([O:4][C:5]#[N:6])([H:10])[H:11])[H:9])\[H:8]"
N        1.51789105      -0.15706846       0.31592537
C        0.56331120      -0.05543861      -0.61462494
C       -0.62070991      -0.98114897      -0.80733470
O       -1.69875570      -0.02690967      -0.60856798
C       -1.03998005       0.93050424       0.02782842
N       -1.00588357       1.68643938       0.95611102
H        1.19141022       0.83682180       1.45066744
H        1.39613292      -0.98990808       0.88956128
H        0.82401415       0.53789783      -1.49170090
H       -0.71186120      -1.41613644      -1.80091289
H       -0.68514987      -1.74720572      -0.03177030
H        0.26958074       1.38215270       1.71481818
12
Frame=10 idx=003473 GeodesicLength=0.7436490008160238 rxn_smarts="[N:1]([C@@:2]1([H:9])[C:3]([H:10])([H:11])[O:4]/[C:5]1=[N:6]\[H:12])([H:7])[H:8]>>[H:7][H:12].[N:1](=[C:2](\[C:3]([O:4][C:5]#[N:6])([H:10])[H:11])[H:9])\[H:8]"
N        1.52383851      -0.15382534       0.30711272
C        0.56657458      -0.05411147      -0.62392595
C       -0.62014217      -0.97948953      -0.80174873
O       -1.69757898      -0.02449672      -0.60583580
C       -1.04251565       0.94609612       0.01428404
N       -1.00778480       1.69868402       0.94681111
H        1.19387982       0.82185630       1.46573544
H        1.41375602      -0.99448201       0.87107298
H        0.82871916       0.52910372      -1.50726247
H       -0.71791986      -1.42303631      -1.79079649
H       -0.67944125      -1.73732402      -0.01779690
H        0.23861462       1.37102525       1.74235006
12
Frame=11 idx=003473 GeodesicLength=0.8180069575706207 rxn_smarts="[N:1]([C@@:2]1([H:9])[C:3]([H:10])([H:11])[O:4]/[C:5]1=[N:6]\[H:12])([H:7])[H:8]>>[H:7][H:12].[N:1](=[C:2](\[C:3]([O:4][C:5]#[N:6])([H:10])[H:11])[H:9])\[H:8]"
N        1.52990636      -0.15051546       0.29816395
C        0.56993272      -0.05284301      -0.63335203
C       -0.61950648      -0.97767402      -0.79593977
O       -1.69620955      -0.02179164      -0.60289773
C       -1.04494709       0.96169170       0.00078926
N       -1.00913660       1.71119951       0.93731217
H        1.19679789       0.80613840       1.48074589
H        1.43173045      -0.99885087       0.85219127
H        0.83334196       0.52008012      -1.52294396
H       -0.72407343      -1.42988203      -1.78025122
H       -0.67353120      -1.72707174      -0.00360371
H        0.20569497       1.35951904       1.76978586
12
Frame=12 idx=003473 GeodesicLength=0.8923056431810376 rxn_smarts="[N:1]([C@@:2]1([H:9])[C:3]([H:10])([H:11])[O:4]/[C:5]1=[N:6]\[H:12])([H:7])[H:8]>>[H:7][H:12].[N:1](=[C:2](\[C:3]([O:4][C:5]#[N:6])([H:10])[H:11])[H:9])\[H:8]"
N        1.53613357      -0.14714564       0.28901201
C        0.57340712      -0.05165773      -0.64295683
C       -0.61881742      -0.97566236      -0.78987382
O       -1.69460072      -0.01864475      -0.59991468
C       -1.04720190       0.97739079      -0.01274306
N       -1.00982119       1.72383321       0.92774480
H        1.20054604       0.79022058       1.49527112
H        1.44988460      -1.00280996       0.83308455
H        0.83793261       0.51070187      -1.53884082
H       -0.73033301      -1.43676055      -1.76917484
H       -0.66751514      -1.71628535       0.01094211
H        0.17038543       1.34681988       1.79744945
12
Frame=13 idx=003473 GeodesicLength=0.9666839701875423 rxn_smarts="[N:1]([C@@:2]1([H:9])[C:3]([H:10])([H:11])[O:4]/[C:5]1=[N:6]\[H:12])([H:7])[H:8]>>[H:7][H:12].[N:1](=[C:2](\[C:3]([O:4][C:5]#[N:6])([H:10])[H:11])[H:9])\[H:8]"
N        1.54255462      -0.14378467       0.27967365
C        0.57700255      -0.05056043      -0.65271887
C       -0.61807927      -0.97345710      -0.78357245
O       -1.69278923      -0.01508783      -0.59686110
C       -1.04931483       0.99314392      -0.02623761
N       -1.00986067       1.73652720       0.91818772
H        1.20525835       0.77398213       1.50939785
H        1.46823596      -1.00646611       0.81377783
H        0.84248209       0.50101703      -1.55492428
H       -0.73671071      -1.44360570      -1.75761629
H       -0.66137359      -1.70502088       0.02578254
H        0.13259471       1.33331245       1.82511102
12
Frame=14 idx=003473 GeodesicLength=1.041011949438437 rxn_smarts="[N:1]([C@@:2]1([H:9])[C:3]([H:10])([H:11])[O:4]/[C:5]1=[N:6]\[H:12])([H:7])[H:8]>>[H:7][H:12].[N:1](=[C:2](\[C:3]([O:4][C:5]#[N:6])([H:10])[H:11])[H:9])\[H:8]"
N        1.54914175      -0.14051822       0.27011603
C        0.58070329      -0.04958230      -0.66262560
C       -0.61728156      -0.97104656      -0.77704804
O       -1.69071550      -0.01107178      -0.59380404
C       -1.05123416       1.00894550      -0.03964938
N       -1.00921198       1.74913461       0.90878072
H        1.21125908       0.75776463       1.52285671
H        1.48656503      -1.00977788       0.79438915
H        0.84698549       0.49098422      -1.57114018
H       -0.74317515      -1.45041235      -1.74555572
H       -0.65514008      -1.69324714       0.04087610
H        0.09210378       1.31882726       1.85280425
12
Frame=15 idx=003473 GeodesicLength=1.115375186911254 rxn_smarts="[N:1]([C@@:2]1([H:9])[C:3]([H:10])([H:11])[O:4]/[C:5]1=[N:6]\[H:12])([H:7])[H:8]>>[H:7][H:12].[N:1](=[C:2](\[C:3]([O:4][C:5]#[N:6])([H:10])[H:11])[H:9])\[H:8]"
N        1.55593024      -0.13747113       0.26035342
C        0.58451330      -0.04875456      -0.67265469
C       -0.61643959      -0.96844485      -0.77035823
O       -1.68842264      -0.00664314      -0.59072546
C       -1.05298798       1.02472301      -0.05288439
N       -1.00787646       1.76158211       0.89962466
H        1.21891393       0.74175654       1.53556129
H        1.50474021      -1.01280427       0.77509512
H        0.85144382       0.48064569      -1.58744464
H       -0.74974534      -1.45709771      -1.73310459
H       -0.64882670      -1.68105656       0.05610688
H        0.04875722       1.30356488       1.88043065
12
Frame=16 idx=003473 GeodesicLength=1.1897366138826404 rxn_smarts="[N:1]([C@@:2]1([H:9])[C:3]([H:10])([H:11])[O:4]/[C:5]1=[N:6]\[H:12])([H:7])[H:8]>>[H:7][H:12].[N:1](=[C:2](\[C:3]([O:4][C:5]#[N:6])([H:10])[H:11])[H:9])\[H:8]"
N        1.56292781      -0.13478890       0.25036905
C        0.58842405      -0.04811849      -0.68278093
C       -0.61555878      -0.96565966      -0.76355524
O       -1.68590035      -0.00180573      -0.58765339
C       -1.05455837       1.04042698      -0.06585221
N       -1.00583254       1.77373270       0.89086373
H        1.22868638       0.72634888       1.54727858
H        1.52252298      -1.01557881       0.75610326
H        0.85585354       0.47001675      -1.60376821
H       -0.75641498      -1.46360181      -1.72033811
H       -0.64247089      -1.66851133       0.07136166
H        0.00232116       1.28753942       1.90797180
