13
Frame=0 idx=008479 GeodesicLength=0.0 rxn_smarts="[N:1]([c:2]1[c:3]([O:4][H:10])[c:5]([H:11])[c:6]([H:12])[n:7]1[H:13])([H:8])[H:9]>>[N-:1]([C:2]1=[C:3]([O:4][H:10])[C:5]([H:8])([H:11])[C+:6]([H:12])[N:7]1[H:13])[H:9]"
N        1.51536228       0.91093497      -0.25433135
C        0.63314507       0.52707713       0.67715171
C        0.12792844      -0.82740800       0.66999369
O        0.88922165      -1.86050900       1.07154825
C       -0.96276192      -0.76223595      -0.13299710
C       -1.11581945       0.62929747      -0.50934710
N       -0.47432550       1.36093210       0.53318037
H        0.39700023       0.79492448      -1.16777258
H        2.23134272       0.20625040      -0.41477911
H        0.48323329      -2.68526376       0.79365348
H       -1.50386109      -1.58090923      -0.58664853
H       -2.04836112       1.00514970      -0.92268521
H       -0.17210456       2.28175967       0.24303351
13
Frame=1 idx=008479 GeodesicLength=0.09562852904234535 rxn_smarts="[N:1]([c:2]1[c:3]([O:4][H:10])[c:5]([H:11])[c:6]([H:12])[n:7]1[H:13])([H:8])[H:9]>>[N-:1]([C:2]1=[C:3]([O:4][H:10])[C:5]([H:8])([H:11])[C+:6]([H:12])[N:7]1[H:13])[H:9]"
N        1.52715547       0.91880458      -0.25731052
C        0.64041455       0.52434980       0.66875993
C        0.13605115      -0.82709215       0.65361210
O        0.90251991      -1.86359031       1.04186707
C       -0.94323695      -0.76266092      -0.17395460
C       -1.13353773       0.63431650      -0.49940031
N       -0.47526857       1.35213099       0.53270509
H        0.40749789       0.76603726      -1.19364017
H        2.26271504       0.22996627      -0.39350097
H        0.45116867      -2.68850340       0.84780987
H       -1.51914919      -1.57853498      -0.58738710
H       -2.07045846       1.01270978      -0.89870105
H       -0.18587179       2.28206659       0.25914065
13
Frame=2 idx=008479 GeodesicLength=0.1908713237893373 rxn_smarts="[N:1]([c:2]1[c:3]([O:4][H:10])[c:5]([H:11])[c:6]([H:12])[n:7]1[H:13])([H:8])[H:9]>>[N-:1]([C:2]1=[C:3]([O:4][H:10])[C:5]([H:8])([H:11])[C+:6]([H:12])[N:7]1[H:13])[H:9]"
N        1.53913673       0.92573300      -0.25932852
C        0.64702976       0.52113784       0.66052831
C        0.14300042      -0.82690891       0.63683984
O        0.91346872      -1.86818641       1.00988619
C       -0.92435712      -0.76221030      -0.21550527
C       -1.15070310       0.63797751      -0.48977152
N       -0.47662688       1.34280547       0.53151910
H        0.41990672       0.73598136      -1.21968848
H        2.29323663       0.25325862      -0.37017667
H        0.42398873      -2.68641920       0.89883909
H       -1.53681262      -1.57358060      -0.58254938
H       -2.09122738       1.01895293      -0.87610911
H       -0.20004061       2.28145870       0.27551641
13
Frame=3 idx=008479 GeodesicLength=0.28614090239535034 rxn_smarts="[N:1]([c:2]1[c:3]([O:4][H:10])[c:5]([H:11])[c:6]([H:12])[n:7]1[H:13])([H:8])[H:9]>>[N-:1]([C:2]1=[C:3]([O:4][H:10])[C:5]([H:8])([H:11])[C+:6]([H:12])[N:7]1[H:13])[H:9]"
N        1.55096210       0.93060548      -0.26147743
C        0.65306190       0.51788389       0.65250396
C        0.14803079      -0.82633688       0.62142284
O        0.92124725      -1.87325186       0.97904541
C       -0.90829226      -0.76044290      -0.25433873
C       -1.16837446       0.64082696      -0.47914901
N       -0.47790536       1.33418882       0.52965170
H        0.43292340       0.70320101      -1.24597629
H        2.32226452       0.27457277      -0.34533002
H        0.40324413      -2.68044415       0.94452996
H       -1.55180297      -1.56653721      -0.57817876
H       -2.11169554       1.02494100      -0.85359962
H       -0.21366350       2.28079306       0.29089598
13
Frame=4 idx=008479 GeodesicLength=0.381499550932013 rxn_smarts="[N:1]([c:2]1[c:3]([O:4][H:10])[c:5]([H:11])[c:6]([H:12])[n:7]1[H:13])([H:8])[H:9]>>[N-:1]([C:2]1=[C:3]([O:4][H:10])[C:5]([H:8])([H:11])[C+:6]([H:12])[N:7]1[H:13])[H:9]"
N        1.56255215       0.93353930      -0.26442186
C        0.65880005       0.51471886       0.64444602
C        0.15159416      -0.82529063       0.60734709
O        0.92641521      -1.87859393       0.94929487
C       -0.89527652      -0.75727723      -0.28963391
C       -1.18680078       0.64312465      -0.46685508
N       -0.47885150       1.32644866       0.52739524
H        0.44604879       0.66750821      -1.27254207
H        2.34981491       0.29426858      -0.31971260
H        0.38685162      -2.67123442       0.98727946
H       -1.56226336      -1.55840102      -0.57800684
H       -2.13231157       1.03092374      -0.83003527
H       -0.22657314       2.28026523       0.30544495
13
Frame=5 idx=008479 GeodesicLength=0.4768968975990845 rxn_smarts="[N:1]([c:2]1[c:3]([O:4][H:10])[c:5]([H:11])[c:6]([H:12])[n:7]1[H:13])([H:8])[H:9]>>[N-:1]([C:2]1=[C:3]([O:4][H:10])[C:5]([H:8])([H:11])[C+:6]([H:12])[N:7]1[H:13])[H:9]"
N        1.57394791       0.93473787      -0.26802446
C        0.66418573       0.51160233       0.63629404
C        0.15384232      -0.82383234       0.59429379
O        0.92940408      -1.88408948       0.91979997
C       -0.88496629      -0.75274516      -0.32193374
C       -1.20590620       0.64500334      -0.45294781
N       -0.47953115       1.31949108       0.52477022
H        0.45951502       0.62895680      -1.29929933
H        2.37604355       0.31290068      -0.29321072
H        0.37459243      -2.65934679       1.02813959
H       -1.56941886      -1.54969352      -0.58163863
H       -2.15284247       1.03716974      -0.80565349
H       -0.23886608       2.27984545       0.31941057
13
Frame=6 idx=008479 GeodesicLength=0.5723387074750526 rxn_smarts="[N:1]([c:2]1[c:3]([O:4][H:10])[c:5]([H:11])[c:6]([H:12])[n:7]1[H:13])([H:8])[H:9]>>[N-:1]([C:2]1=[C:3]([O:4][H:10])[C:5]([H:8])([H:11])[C+:6]([H:12])[N:7]1[H:13])[H:9]"
N        1.58538018       0.93455859      -0.27203769
C        0.66929094       0.50874835       0.62812251
C        0.15506439      -0.82189353       0.58231516
O        0.93037288      -1.88945732       0.89180210
C       -0.87680884      -0.74698789      -0.35167764
C       -1.22562424       0.64647521      -0.43749621
N       -0.48001019       1.31341116       0.52167730
H        0.47366586       0.58761853      -1.32611717
H        2.40087832       0.33056037      -0.26613959
H        0.36605293      -2.64554330       1.06572519
H       -1.57424148      -1.54073288      -0.58824943
H       -2.17332859       1.04351358      -0.78061419
H       -0.25069217       2.27972913       0.33268967
13
Frame=7 idx=008479 GeodesicLength=0.6677947242873412 rxn_smarts="[N:1]([c:2]1[c:3]([O:4][H:10])[c:5]([H:11])[c:6]([H:12])[n:7]1[H:13])([H:8])[H:9]>>[N-:1]([C:2]1=[C:3]([O:4][H:10])[C:5]([H:8])([H:11])[C+:6]([H:12])[N:7]1[H:13])[H:9]"
N        1.59691783       0.93324558      -0.27629701
C        0.67409529       0.50615543       0.61988985
C        0.15542043      -0.81952695       0.57114341
O        0.92965146      -1.89460773       0.86502073
C       -0.87036886      -0.74007856      -0.37949866
C       -1.24593214       0.64751318      -0.42050962
N       -0.48037519       1.30811564       0.51807660
H        0.48880195       0.54352039      -1.35290930
H        2.42442058       0.34763756      -0.23847500
H        0.36083170      -2.63033076       1.10026883
H       -1.57759305      -1.53153053      -0.59694429
H       -2.19364333       1.04999465      -0.75516785
H       -0.26222668       2.27989210       0.34540231
13
Frame=8 idx=008479 GeodesicLength=0.7632742990590822 rxn_smarts="[N:1]([c:2]1[c:3]([O:4][H:10])[c:5]([H:11])[c:6]([H:12])[n:7]1[H:13])([H:8])[H:9]>>[N-:1]([C:2]1=[C:3]([O:4][H:10])[C:5]([H:8])([H:11])[C+:6]([H:12])[N:7]1[H:13])[H:9]"
N        1.60859843       0.93099070      -0.28073252
C        0.67861605       0.50377259       0.61152568
C        0.15507008      -0.81682632       0.56045115
O        0.92746595      -1.89962929       0.83897229
C       -0.86533168      -0.73204034      -0.40594648
C       -1.26688399       0.64806055      -0.40183569
N       -0.48067385       1.30348675       0.51399283
H        0.50512632       0.49667083      -1.37960896
H        2.44674148       0.36446693      -0.21027331
H        0.35851326      -2.61385954       1.13254517
H       -1.57992344      -1.52205062      -0.60738628
H       -2.21371161       1.05667938      -0.72943977
H       -0.27360702       2.28027837       0.35773590
13
Frame=9 idx=008479 GeodesicLength=0.8587526144171608 rxn_smarts="[N:1]([c:2]1[c:3]([O:4][H:10])[c:5]([H:11])[c:6]([H:12])[n:7]1[H:13])([H:8])[H:9]>>[N-:1]([C:2]1=[C:3]([O:4][H:10])[C:5]([H:8])([H:11])[C+:6]([H:12])[N:7]1[H:13])[H:9]"
N        1.62043723       0.92791975      -0.28531239
C        0.68286170       0.50166203       0.60301362
C        0.15410430      -0.81376462       0.55019381
O        0.92396051      -1.90439276       0.81384669
C       -0.86145082      -0.72283624      -0.43128127
C       -1.28857786       0.64802044      -0.38117282
N       -0.48094038       1.29954036       0.50939211
H        0.52280686       0.44685980      -1.40608376
H        2.46781794       0.38120418      -0.18167218
H        0.35877231      -2.59648186       1.16231545
H       -1.58140590      -1.51224700      -0.61933301
H       -2.23345052       1.06359536      -0.70355390
H       -0.28493537       2.28092055       0.36964765
13
Frame=10 idx=008479 GeodesicLength=0.9542320971564499 rxn_smarts="[N:1]([c:2]1[c:3]([O:4][H:10])[c:5]([H:11])[c:6]([H:12])[n:7]1[H:13])([H:8])[H:9]>>[N-:1]([C:2]1=[C:3]([O:4][H:10])[C:5]([H:8])([H:11])[C+:6]([H:12])[N:7]1[H:13])[H:9]"
N        1.63241505       0.92415688      -0.29003612
C        0.68684963       0.49980597       0.59431246
C        0.15263014      -0.81039086       0.54017039
O        0.91922943      -1.90898297       0.78935821
C       -0.85854782      -0.71237448      -0.45580750
C       -1.31114506       0.64725301      -0.35808925
N       -0.48121224       1.29620980       0.50431329
H        0.54196488       0.39391818      -1.43219586
H        2.48762115       0.39801550      -0.15287544
H        0.36132463      -2.57818631       1.19012356
H       -1.58209744      -1.50203744      -0.63286255
H       -2.25270122       1.07083312      -0.67767134
H       -0.29633113       2.28177960       0.38126014
13
Frame=11 idx=008479 GeodesicLength=1.0496979368350337 rxn_smarts="[N:1]([c:2]1[c:3]([O:4][H:10])[c:5]([H:11])[c:6]([H:12])[n:7]1[H:13])([H:8])[H:9]>>[N-:1]([C:2]1=[C:3]([O:4][H:10])[C:5]([H:8])([H:11])[C+:6]([H:12])[N:7]1[H:13])[H:9]"
N        1.64448065       0.91980974      -0.29493644
C        0.69058746       0.49825874       0.58541443
C        0.15072732      -0.80668654       0.53033301
O        0.91335609      -1.91335514       0.76555121
C       -0.85648281      -0.70050483      -0.47966264
C       -1.33473637       0.64555919      -0.33200793
N       -0.48153887       1.29349341       0.49875646
H        0.56269447       0.33752127      -1.45773751
H        2.50609191       0.41501976      -0.12412837
H        0.36591081      -2.55913534       1.21591789
H       -1.58196940      -1.49131059      -0.64801977
H       -2.27119774       1.07846823      -0.65205839
H       -0.30792352       2.28286210       0.39257805
13
Frame=12 idx=008479 GeodesicLength=1.1451450422121536 rxn_smarts="[N:1]([c:2]1[c:3]([O:4][H:10])[c:5]([H:11])[c:6]([H:12])[n:7]1[H:13])([H:8])[H:9]>>[N-:1]([C:2]1=[C:3]([O:4][H:10])[C:5]([H:8])([H:11])[C+:6]([H:12])[N:7]1[H:13])[H:9]"
N        1.65656212       0.91497598      -0.30007187
C        0.69407563       0.49707260       0.57630807
C        0.14846725      -0.80263743       0.52060055
O        0.90638010      -1.91750966       0.74236175
C       -0.85515194      -0.68699904      -0.50297687
C       -1.35947864       0.64269712      -0.30228020
N       -0.48198897       1.29137593       0.49269337
H        0.58508653       0.27728002      -1.48245741
H        2.52318118       0.43235218      -0.09567392
H        0.37229064      -2.53940139       1.23977121
H       -1.58095859      -1.47987981      -0.66496089
H       -2.28860340       1.08651337      -0.62693390
H       -0.31986192       2.28416012       0.40362013
13
Frame=13 idx=008479 GeodesicLength=1.2405617181082125 rxn_smarts="[N:1]([c:2]1[c:3]([O:4][H:10])[c:5]([H:11])[c:6]([H:12])[n:7]1[H:13])([H:8])[H:9]>>[N-:1]([C:2]1=[C:3]([O:4][H:10])[C:5]([H:8])([H:11])[C+:6]([H:12])[N:7]1[H:13])[H:9]"
N        1.66865339       0.90975695      -0.30548229
C        0.69731624       0.49636277       0.56696341
C        0.14590394      -0.79816381       0.51086093
O        0.89824802      -1.92139399       0.71986618
C       -0.85439080      -0.67151255      -0.52597697
C       -1.38530765       0.63846050      -0.26851011
N       -0.48263912       1.28988878       0.48590699
H        0.60941314       0.21268726      -1.50605930
H        2.53888213       0.45009429      -0.06770514
H        0.38000460      -2.51902578       1.26165857
H       -1.57890787      -1.46742169      -0.68403306
H       -2.30488603       1.09455946      -0.60176561
H       -0.33229000       2.28570781       0.41427642
13
Frame=14 idx=008479 GeodesicLength=1.335950136465652 rxn_smarts="[N:1]([c:2]1[c:3]([O:4][H:10])[c:5]([H:11])[c:6]([H:12])[n:7]1[H:13])([H:8])[H:9]>>[N-:1]([C:2]1=[C:3]([O:4][H:10])[C:5]([H:8])([H:11])[C+:6]([H:12])[N:7]1[H:13])[H:9]"
N        1.68092558       0.90418273      -0.31115326
C        0.70032470       0.49629335       0.55727930
C        0.14303631      -0.79311012       0.50085808
O        0.88870198      -1.92494600       0.69818364
C       -0.85388630      -0.65356400      -0.54920815
C       -1.41173422       0.63282931      -0.23108074
N       -0.48353308       1.28914005       0.47782283
H        0.63631750       0.14307205      -1.52821586
H        2.55331985       0.46827538      -0.04013077
H        0.38830444      -2.49784672       1.28173287
H       -1.57557582      -1.45337643      -0.70595122
H       -2.32094128       1.10144542      -0.57435169
H       -0.34525966       2.28760497       0.42421499
13
Frame=15 idx=008479 GeodesicLength=1.4313146360454765 rxn_smarts="[N:1]([c:2]1[c:3]([O:4][H:10])[c:5]([H:11])[c:6]([H:12])[n:7]1[H:13])([H:8])[H:9]>>[N-:1]([C:2]1=[C:3]([O:4][H:10])[C:5]([H:8])([H:11])[C+:6]([H:12])[N:7]1[H:13])[H:9]"
N        1.69366363       0.89825169      -0.31705971
C        0.70316265       0.49706939       0.54711126
C        0.13987435      -0.78726712       0.49024573
O        0.87739846      -1.92806630       0.67761270
C       -0.85313823      -0.63264592      -0.57344567
C       -1.43781665       0.62596671      -0.19119890
N       -0.48469362       1.28926849       0.46769866
H        0.66658861       0.06768956      -1.54847463
H        2.56667636       0.48683046      -0.01282845
H        0.39616211      -2.47560114       1.30020800
H       -1.57065997      -1.43703405      -0.73155674
H       -2.33843721       1.10556855      -0.54144334
H       -0.35878049       2.28996968       0.43313109
13
Frame=16 idx=008479 GeodesicLength=1.526672041975334 rxn_smarts="[N:1]([c:2]1[c:3]([O:4][H:10])[c:5]([H:11])[c:6]([H:12])[n:7]1[H:13])([H:8])[H:9]>>[N-:1]([C:2]1=[C:3]([O:4][H:10])[C:5]([H:8])([H:11])[C+:6]([H:12])[N:7]1[H:13])[H:9]"
N        1.70696364       0.89196878      -0.32334154
C        0.70592203       0.49882984       0.53634964
C        0.13651206      -0.78051586       0.47873191
O        0.86414278      -1.93071528       0.65842375
C       -0.85166874      -0.60842475      -0.59927126
C       -1.46251249       0.61803236      -0.15023097
N       -0.48621320       1.29026080       0.45519289
H        0.70036999      -0.01399016      -1.56618883
H        2.57902959       0.50574260       0.01394159
H        0.40280637      -2.45204798       1.31740345
H       -1.56399873      -1.41777782      -0.76124752
H       -2.35838066       1.10589272      -0.50119055
H       -0.37297264       2.29274474       0.44142745
