15
Frame=0 idx=006530 GeodesicLength=0.0 rxn_smarts="[C:1]([C@@:2]1([H:11])[C:3]([H:12])([H:13])[O:4][C@:5]1([C:6]#[C:7][H:15])[H:14])([H:8])([H:9])[H:10]>>[C:1](=[C:2]([C:3]([O:4][C:5]1([H:14])[C:6]([H:9])=[C:7]1[H:15])([H:12])[H:13])[H:11])([H:8])[H:10]"
C       -1.28524023       1.14402334       0.37190813
C       -0.98843271      -0.19296691       0.58982022
C       -1.00557174      -1.17354039      -0.57228902
O        0.38554551      -1.51217619      -0.61392915
C        0.83414437      -0.59901546       0.32724673
C        1.32434541       0.75715456      -0.13126248
C        2.51564054       0.61548785      -0.46470166
H       -1.49100956       1.81399852       1.19770636
H        0.43519244       1.51836691      -0.07934291
H       -1.59126285       1.48558973      -0.61022242
H       -1.16558923      -0.60701566       1.57874547
H       -1.32448571      -0.70910736      -1.51012423
H       -1.59758758      -2.07522533      -0.39953654
H        1.42575580      -1.05896032       1.11774308
H        3.52855548       0.59338673      -0.80176158
15
Frame=1 idx=006530 GeodesicLength=0.08741838537140995 rxn_smarts="[C:1]([C@@:2]1([H:11])[C:3]([H:12])([H:13])[O:4][C@:5]1([C:6]#[C:7][H:15])[H:14])([H:8])([H:9])[H:10]>>[C:1](=[C:2]([C:3]([O:4][C:5]1([H:14])[C:6]([H:9])=[C:7]1[H:15])([H:12])[H:13])[H:11])([H:8])[H:10]"
C       -1.28918917       1.15179113       0.36585384
C       -0.98743276      -0.18599025       0.58511516
C       -1.00600146      -1.17324844      -0.56988901
O        0.38747730      -1.49318447      -0.64012934
C        0.84671284      -0.59827726       0.31539943
C        1.34439482       0.76245542      -0.10967114
C        2.52854501       0.59669618      -0.45544088
H       -1.53735086       1.80885930       1.19051179
H        0.43997544       1.53846249      -0.05646905
H       -1.59856906       1.48583878      -0.61822727
H       -1.15124858      -0.59324405       1.57911458
H       -1.34893347      -0.71952592      -1.50433331
H       -1.58008993      -2.08290752      -0.37782989
H        1.41705418      -1.07934818       1.10911231
H        3.53465570       0.58162278      -0.81311721
15
Frame=2 idx=006530 GeodesicLength=0.17460170628550115 rxn_smarts="[C:1]([C@@:2]1([H:11])[C:3]([H:12])([H:13])[O:4][C@:5]1([C:6]#[C:7][H:15])[H:14])([H:8])([H:9])[H:10]>>[C:1](=[C:2]([C:3]([O:4][C:5]1([H:14])[C:6]([H:9])=[C:7]1[H:15])([H:12])[H:13])[H:11])([H:8])[H:10]"
C       -1.29294716       1.15984395       0.35981404
C       -0.98658270      -0.17881569       0.58050572
C       -1.00640962      -1.17288006      -0.56725489
O        0.38876591      -1.47349331      -0.66622825
C        0.85925942      -0.59774864       0.30357271
C        1.36476206       0.76673904      -0.08761905
C        2.54097059       0.57787135      -0.44678569
H       -1.58367217       1.80294218       1.18175493
H        0.44482492       1.55833692      -0.03213570
H       -1.60503725       1.48611900      -0.62645924
H       -1.13690685      -0.57897185       1.57947212
H       -1.37342174      -0.73028783      -1.49773048
H       -1.56172176      -2.09023086      -0.35605270
H        1.40806497      -1.10005702       1.09949678
H        3.54005136       0.57063283      -0.82435031
15
Frame=3 idx=006530 GeodesicLength=0.261539599268776 rxn_smarts="[C:1]([C@@:2]1([H:11])[C:3]([H:12])([H:13])[O:4][C@:5]1([C:6]#[C:7][H:15])[H:14])([H:8])([H:9])[H:10]>>[C:1](=[C:2]([C:3]([O:4][C:5]1([H:14])[C:6]([H:9])=[C:7]1[H:15])([H:12])[H:13])[H:11])([H:8])[H:10]"
C       -1.29656295       1.16815040       0.35384235
C       -0.98590489      -0.17147700       0.57601734
C       -1.00680923      -1.17243445      -0.56439016
O        0.38936606      -1.45317325      -0.69211292
C        0.87176758      -0.59742575       0.29173350
C        1.38537285       0.76995542      -0.06529080
C        2.55283193       0.55901707      -0.43898699
H       -1.62967351       1.79628827       1.17147936
H        0.44960311       1.57792290      -0.00651141
H       -1.61078885       1.48641189      -0.63483503
H       -1.12255207      -0.56424917       1.57983069
H       -1.39786089      -0.74135422      -1.49031691
H       -1.54255344      -2.09714464      -0.33428257
H        1.39882610      -1.12094405       1.08889551
H        3.54493821       0.56045658      -0.83507197
15
Frame=4 idx=006530 GeodesicLength=0.34822972436845945 rxn_smarts="[C:1]([C@@:2]1([H:11])[C:3]([H:12])([H:13])[O:4][C@:5]1([C:6]#[C:7][H:15])[H:14])([H:8])([H:9])[H:10]>>[C:1](=[C:2]([C:3]([O:4][C:5]1([H:14])[C:6]([H:9])=[C:7]1[H:15])([H:12])[H:13])[H:11])([H:8])[H:10]"
C       -1.30009587       1.17667517       0.34798393
C       -0.98543046      -0.16401089       0.57166588
C       -1.00716676      -1.17189949      -0.56132298
O        0.38929521      -1.43229710      -0.71762345
C        0.88422614      -0.59729455       0.27992189
C        1.40617216       0.77207932      -0.04277880
C        2.56408430       0.54016775      -0.43212518
H       -1.67511396       1.78894107       1.15975672
H        0.45417961       1.59717017       0.02028273
H       -1.61593105       1.48670572      -0.64328295
H       -1.10823031      -0.54914428       1.58018040
H       -1.42206317      -0.75265925      -1.48214551
H       -1.52263649      -2.10359111      -0.31265672
H        1.38934644      -1.14185500       1.07742023
H        3.54936423       0.55101246      -0.84527619
15
Frame=5 idx=006530 GeodesicLength=0.43467733004980147 rxn_smarts="[C:1]([C@@:2]1([H:11])[C:3]([H:12])([H:13])[O:4][C@:5]1([C:6]#[C:7][H:15])[H:14])([H:8])([H:9])[H:10]>>[C:1](=[C:2]([C:3]([O:4][C:5]1([H:14])[C:6]([H:9])=[C:7]1[H:15])([H:12])[H:13])[H:11])([H:8])[H:10]"
C       -1.30360446       1.18538283       0.34226822
C       -0.98519867      -0.15645485       0.56745411
C       -1.00739547      -1.17124973      -0.55810979
O        0.38864988      -1.41094139      -0.74254366
C        0.89663265      -0.59733963       0.26827610
C        1.42713371       0.77309888      -0.02004326
C        2.57474018       0.52136906      -0.42606225
H       -1.71981576       1.78094507       1.14666510
H        0.45844496       1.61604215       0.04820050
H       -1.62052800       1.48700205      -0.65175593
H       -1.09406165      -0.53374150       1.58048749
H       -1.44572868      -0.76410623      -1.47333573
H       -1.50200636      -2.10950450      -0.29137555
H        1.37959688      -1.16264247       1.06531694
H        3.55314081       0.54214025      -0.85544229
15
Frame=6 idx=006530 GeodesicLength=0.5208902879494788 rxn_smarts="[C:1]([C@@:2]1([H:11])[C:3]([H:12])([H:13])[O:4][C@:5]1([C:6]#[C:7][H:15])[H:14])([H:8])([H:9])[H:10]>>[C:1](=[C:2]([C:3]([O:4][C:5]1([H:14])[C:6]([H:9])=[C:7]1[H:15])([H:12])[H:13])[H:11])([H:8])[H:10]"
C       -1.30714135       1.19423505       0.33674171
C       -0.98521602      -0.14884216       0.56340057
C       -1.00751291      -1.17048491      -0.55476370
O        0.38742095      -1.38922773      -0.76677041
C        0.90898222      -0.59755773       0.25675675
C        1.44820007       0.77299314       0.00268525
C        2.58474187       0.50263398      -0.42102740
H       -1.76351956       1.77237211       1.13236544
H        0.46226168       1.63449941       0.07697644
H       -1.62477145       1.48727416      -0.66015467
H       -1.08002652      -0.51809773       1.58075880
H       -1.46876902      -0.77564145      -1.46394301
H       -1.48079337      -2.11484225      -0.27050403
H        1.36963003      -1.18315977       1.05262218
H        3.55651338       0.53384589      -0.86514392
15
Frame=7 idx=006530 GeodesicLength=0.6068847723782029 rxn_smarts="[C:1]([C@@:2]1([H:11])[C:3]([H:12])([H:13])[O:4][C@:5]1([C:6]#[C:7][H:15])[H:14])([H:8])([H:9])[H:10]>>[C:1](=[C:2]([C:3]([O:4][C:5]1([H:14])[C:6]([H:9])=[C:7]1[H:15])([H:12])[H:13])[H:11])([H:8])[H:10]"
C       -1.31075368       1.20319834       0.33141122
C       -0.98551406      -0.14120482       0.55949448
C       -1.00741396      -1.16957605      -0.55135643
O        0.38576626      -1.36724511      -0.79008839
C        0.92128540      -0.59794208       0.24555369
C        1.46937929       0.77176369       0.02552620
C        2.59415985       0.48400106      -0.41673218
H       -1.80612244       1.76327655       1.11696292
H        0.46555209       1.65253422       0.10659819
H       -1.62869821       1.48752917      -0.66845921
H       -1.06627732      -0.50229638       1.58094984
H       -1.49086068      -0.78715738      -1.45414413
H       -1.45905033      -2.11954971      -0.25024480
H        1.35940083      -1.20329260       1.03965602
H        3.55914697       0.52596109      -0.87512742
15
Frame=8 idx=006530 GeodesicLength=0.6927744250665238 rxn_smarts="[C:1]([C@@:2]1([H:11])[C:3]([H:12])([H:13])[O:4][C@:5]1([C:6]#[C:7][H:15])[H:14])([H:8])([H:9])[H:10]>>[C:1](=[C:2]([C:3]([O:4][C:5]1([H:14])[C:6]([H:9])=[C:7]1[H:15])([H:12])[H:13])[H:11])([H:8])[H:10]"
C       -1.31452814       1.21228101       0.32636266
C       -0.98609450      -0.13357334       0.55578885
C       -1.00724845      -1.16861264      -0.54786291
O        0.38357096      -1.34521628      -0.81261139
C        0.93352472      -0.59850686       0.23438945
C        1.49060087       0.76947208       0.04792205
C        2.60288203       0.46552742      -0.41390519
H       -1.84734269       1.75383676       1.10083859
H        0.46814905       1.67023846       0.13649457
H       -1.63270838       1.48774109      -0.67649885
H       -1.05267772      -0.48637054       1.58115701
H       -1.51218017      -0.79870051      -1.44393703
H       -1.43701864      -2.12373497      -0.23049206
H        1.34903197      -1.22294449       1.02619940
H        3.56203909       0.51856281      -0.88384514
15
Frame=9 idx=006530 GeodesicLength=0.7783457484609164 rxn_smarts="[C:1]([C@@:2]1([H:11])[C:3]([H:12])([H:13])[O:4][C@:5]1([C:6]#[C:7][H:15])[H:14])([H:8])([H:9])[H:10]>>[C:1](=[C:2]([C:3]([O:4][C:5]1([H:14])[C:6]([H:9])=[C:7]1[H:15])([H:12])[H:13])[H:11])([H:8])[H:10]"
C       -1.31832979       1.22135975       0.32137076
C       -0.98695527      -0.12594619       0.55212749
C       -1.00649396      -1.16733472      -0.54446656
O        0.38145991      -1.32288293      -0.83363574
C        0.94579690      -0.59926065       0.22424003
C        1.51206398       0.76589800       0.07132233
C        2.61131218       0.44707754      -0.41037662
H       -1.88765999       1.74382784       1.08322398
H        0.47025791       1.68735046       0.16819286
H       -1.63574698       1.48800318      -0.68468646
H       -1.03975631      -0.47039018       1.58106694
H       -1.53173602      -0.80996049      -1.43375887
H       -1.41439806      -2.12701038      -0.21176918
H        1.33823082      -1.24211045       1.01338312
H        3.56195469       0.51137922      -0.89623407
15
Frame=10 idx=006530 GeodesicLength=0.8638084716691776 rxn_smarts="[C:1]([C@@:2]1([H:11])[C:3]([H:12])([H:13])[O:4][C@:5]1([C:6]#[C:7][H:15])[H:14])([H:8])([H:9])[H:10]>>[C:1](=[C:2]([C:3]([O:4][C:5]1([H:14])[C:6]([H:9])=[C:7]1[H:15])([H:12])[H:13])[H:11])([H:8])[H:10]"
C       -1.32239501       1.23048061       0.31668200
C       -0.98806859      -0.11836163       0.54866496
C       -1.00568999      -1.16598426      -0.54101522
O        0.37888317      -1.30070158      -0.85376847
C        0.95801269      -0.60017722       0.21407857
C        1.53349420       0.76129374       0.09386098
C        2.61904012       0.42880509      -0.40846409
H       -1.92632199       1.73358853       1.06532593
H        0.47144208       1.70418245       0.19970880
H       -1.63928615       1.48816191      -0.69248372
H       -1.02693379      -0.45437785       1.58097752
H       -1.55043595      -0.82113100      -1.42333576
H       -1.39172949      -2.12972191      -0.19360828
H        1.32738161      -1.26058982       1.00020739
H        3.56260711       0.50453295      -0.90683061
15
Frame=11 idx=006530 GeodesicLength=0.9490797245405121 rxn_smarts="[C:1]([C@@:2]1([H:11])[C:3]([H:12])([H:13])[O:4][C@:5]1([C:6]#[C:7][H:15])[H:14])([H:8])([H:9])[H:10]>>[C:1](=[C:2]([C:3]([O:4][C:5]1([H:14])[C:6]([H:9])=[C:7]1[H:15])([H:12])[H:13])[H:11])([H:8])[H:10]"
C       -1.32669745       1.23957480       0.31222836
C       -0.98942229      -0.11082159       0.54534032
C       -1.00469732      -1.16446461      -0.53756992
O        0.37606013      -1.27864868      -0.87277436
C        0.97021949      -0.60127680       0.20421701
C        1.55501122       0.75557542       0.11602429
C        2.62620719       0.41065452      -0.40753259
H       -1.96345915       1.72306685       1.04697855
H        0.47174137       1.72063205       0.23133843
H       -1.64307619       1.48822054      -0.69996975
H       -1.01436304      -0.43834987       1.58075988
H       -1.56798104      -0.83208566      -1.41284363
H       -1.36902106      -2.13171216      -0.17616650
H        1.31643716      -1.27836513       0.98705536
H        3.56304098       0.49800032      -0.91708546
15
Frame=12 idx=006530 GeodesicLength=1.0342672856220503 rxn_smarts="[C:1]([C@@:2]1([H:11])[C:3]([H:12])([H:13])[O:4][C@:5]1([C:6]#[C:7][H:15])[H:14])([H:8])([H:9])[H:10]>>[C:1](=[C:2]([C:3]([O:4][C:5]1([H:14])[C:6]([H:9])=[C:7]1[H:15])([H:12])[H:13])[H:11])([H:8])[H:10]"
C       -1.33123480       1.24867103       0.30797779
C       -0.99103232      -0.10333875       0.54214274
C       -1.00339736      -1.16279620      -0.53420597
O        0.37322118      -1.25680152      -0.89054314
C        0.98245141      -0.60260128       0.19487630
C        1.57669546       0.74875724       0.13805745
C        2.63300569       0.39260913      -0.40711327
H       -1.99923187       1.71236964       1.02818494
H        0.47116999       1.73681898       0.26340452
H       -1.64689706       1.48826528      -0.70725307
H       -1.00224943      -0.42236858       1.58042163
H       -1.58410466      -0.84278950      -1.40251111
H       -1.34631137      -2.13304810      -0.15955377
H        1.30530847      -1.29547761       0.97427175
H        3.56260667       0.49173024      -0.92815678
15
Frame=13 idx=006530 GeodesicLength=1.1193442558072626 rxn_smarts="[C:1]([C@@:2]1([H:11])[C:3]([H:12])([H:13])[O:4][C@:5]1([C:6]#[C:7][H:15])[H:14])([H:8])([H:9])[H:10]>>[C:1](=[C:2]([C:3]([O:4][C:5]1([H:14])[C:6]([H:9])=[C:7]1[H:15])([H:12])[H:13])[H:11])([H:8])[H:10]"
C       -1.33604233       1.25773204       0.30391768
C       -0.99286047      -0.09591062       0.53905800
C       -1.00183990      -1.16096717      -0.53091265
O        0.37036057      -1.23520358      -0.90713087
C        0.99471669      -0.60415494       0.18597049
C        1.59855139       0.74084235       0.15979636
C        2.63942144       0.37465165      -0.40734609
H       -2.03355631       1.70152948       1.00913787
H        0.46963943       1.75278200       0.29563826
H       -1.65097143       1.48824410      -0.71428142
H       -0.99049205      -0.40642584       1.57994684
H       -1.59891526      -0.85321895      -1.39235318
H       -1.32369762      -2.13371839      -0.14370307
H        1.29406520      -1.31189734       0.96180295
H        3.56162064       0.48571520      -0.93954117
15
Frame=14 idx=006530 GeodesicLength=1.2043280284700433 rxn_smarts="[C:1]([C@@:2]1([H:11])[C:3]([H:12])([H:13])[O:4][C@:5]1([C:6]#[C:7][H:15])[H:14])([H:8])([H:9])[H:10]>>[C:1](=[C:2]([C:3]([O:4][C:5]1([H:14])[C:6]([H:9])=[C:7]1[H:15])([H:12])[H:13])[H:11])([H:8])[H:10]"
C       -1.34113537       1.26674908       0.30002552
C       -0.99488286      -0.08853212       0.53607190
C       -1.00001690      -1.15897328      -0.52770279
O        0.36754936      -1.21388382      -0.92255341
C        1.00703579      -0.60595755       0.17752064
C        1.62062743       0.73182984       0.18125561
C        2.64552229       0.35675668      -0.40814119
H       -2.06648602       1.69058247       0.98992706
H        0.46710670       1.76859521       0.32800591
H       -1.65533574       1.48815614      -0.72106717
H       -0.97909002      -0.39052381       1.57932658
H       -1.61241270      -0.86335323      -1.38243877
H       -1.30123777      -2.13373928      -0.12859544
H        1.28272227      -1.32764118       0.94971280
H        3.56003353       0.47993486      -0.95134725
15
Frame=15 idx=006530 GeodesicLength=1.2892319434298936 rxn_smarts="[C:1]([C@@:2]1([H:11])[C:3]([H:12])([H:13])[O:4][C@:5]1([C:6]#[C:7][H:15])[H:14])([H:8])([H:9])[H:10]>>[C:1](=[C:2]([C:3]([O:4][C:5]1([H:14])[C:6]([H:9])=[C:7]1[H:15])([H:12])[H:13])[H:11])([H:8])[H:10]"
C       -1.34654280       1.27571232       0.29628695
C       -0.99707066      -0.08119475       0.53317382
C       -0.99794374      -1.15681276      -0.52457887
O        0.36482081      -1.19286240      -0.93686347
C        1.01942442      -0.60802203       0.16949397
C        1.64296457       0.72172467       0.20238058
C        2.65135193       0.33890166      -0.40950622
H       -2.09805720       1.67955920       0.97068345
H        0.46351082       1.78434918       0.36039178
H       -1.66010225       1.48798526      -0.72759921
H       -0.96800180      -0.37465494       1.57855754
H       -1.62465248      -0.87318315      -1.37280443
H       -1.27898933      -2.13313144      -0.11418649
H        1.27131254      -1.34272080       0.93799948
H        3.55797516       0.47434998      -0.96342890
15
Frame=16 idx=006530 GeodesicLength=1.3740694596397618 rxn_smarts="[C:1]([C@@:2]1([H:11])[C:3]([H:12])([H:13])[O:4][C@:5]1([C:6]#[C:7][H:15])[H:14])([H:8])([H:9])[H:10]>>[C:1](=[C:2]([C:3]([O:4][C:5]1([H:14])[C:6]([H:9])=[C:7]1[H:15])([H:12])[H:13])[H:11])([H:8])[H:10]"
C       -1.35228920       1.28461544       0.29268316
C       -0.99939499      -0.07388681       0.53035089
C       -0.99562242      -1.15447954      -0.52154677
O        0.36222126      -1.17214578      -0.95010483
C        1.03190133      -0.61036355       0.16188073
C        1.66561591       0.71052303       0.22316109
C        2.65696788       0.32105559      -0.41140027
H       -2.12833451       1.66847894       0.95150819
H        0.45879645       1.80014206       0.39273239
H       -1.66534863       1.48772101      -0.73387994
H       -0.95719963      -0.35880858       1.57763373
H       -1.63566939      -0.88269604      -1.36349072
H       -1.25699346      -2.13191327      -0.10044168
H        1.25985783      -1.35715861       0.92667943
H        3.55549157       0.46891609      -0.97576539
