9
Frame=0 idx=005109 GeodesicLength=0.0 rxn_smarts="[O:1]([c:2]1[n:3][n:4]([H:8])[n:5][c:6]1[H:9])[H:7]>>[O:1]([C:2]([N:3]=[N:4][H:8])=[C:6]=[N:5][H:9])[H:7]"
O       -2.09158319      -0.43536330      -0.01247758
C       -0.79835294      -0.10651170       0.04154246
N        0.15726314      -0.99579763       0.12891013
N        1.28021598      -0.29339945       0.07936281
N        1.06371654       1.03514258       0.13752644
C       -0.30264859       1.24524148       0.07390796
H       -2.16841317      -1.39385666       0.01637435
H        2.16650397      -0.69944529       0.32498314
H        0.69329825       1.64398997      -0.79012971
9
Frame=1 idx=005109 GeodesicLength=0.10247619376159131 rxn_smarts="[O:1]([c:2]1[n:3][n:4]([H:8])[n:5][c:6]1[H:9])[H:7]>>[O:1]([C:2]([N:3]=[N:4][H:8])=[C:6]=[N:5][H:9])[H:7]"
O       -2.09045560      -0.43651975      -0.01365036
C       -0.79567803      -0.10825766       0.02453133
N        0.16024066      -1.00175144       0.11567169
N        1.28362660      -0.30317651       0.08172782
N        1.06122244       1.05140976       0.13990386
C       -0.30047285       1.23837583       0.06540654
H       -2.16626967      -1.39417044       0.03790369
H        2.16150895      -0.72163462       0.33833265
H        0.68627750       1.67572483      -0.78982722
9
Frame=2 idx=005109 GeodesicLength=0.2049577507037239 rxn_smarts="[O:1]([c:2]1[n:3][n:4]([H:8])[n:5][c:6]1[H:9])[H:7]>>[O:1]([C:2]([N:3]=[N:4][H:8])=[C:6]=[N:5][H:9])[H:7]"
O       -2.08905591      -0.43738246      -0.01286038
C       -0.79280948      -0.10997095       0.00861214
N        0.16320848      -1.00774519       0.10482560
N        1.28709204      -0.31357503       0.08466160
N        1.05876310       1.06805293       0.14130000
C       -0.29791783       1.23148875       0.05653432
H       -2.16344461      -1.39408992       0.05586663
H        2.15648937      -0.74453354       0.35108340
H        0.67767483       1.70775540      -0.79002332
9
Frame=3 idx=005109 GeodesicLength=0.307419520717392 rxn_smarts="[O:1]([c:2]1[n:3][n:4]([H:8])[n:5][c:6]1[H:9])[H:7]>>[O:1]([C:2]([N:3]=[N:4][H:8])=[C:6]=[N:5][H:9])[H:7]"
O       -2.08727113      -0.43818132      -0.01292825
C       -0.78969064      -0.11182299      -0.00763121
N        0.16620702      -1.01393533       0.09474092
N        1.29063983      -0.32459527       0.08799048
N        1.05618370       1.08504971       0.14244823
C       -0.29507907       1.22443590       0.04712937
H       -2.16017967      -1.39350548       0.07443232
H        2.15131635      -0.76823838       0.36350426
H        0.66787360       1.74079316      -0.78968612
9
Frame=4 idx=005109 GeodesicLength=0.4098836414289559 rxn_smarts="[O:1]([c:2]1[n:3][n:4]([H:8])[n:5][c:6]1[H:9])[H:7]>>[O:1]([C:2]([N:3]=[N:4][H:8])=[C:6]=[N:5][H:9])[H:7]"
O       -2.08517934      -0.43850037      -0.01139231
C       -0.78633020      -0.11362233      -0.02193474
N        0.16919700      -1.02021528       0.08729842
N        1.29431398      -0.33628880       0.09196513
N        1.05381246       1.10249468       0.14224626
C       -0.29168178       1.21738295       0.03753989
H       -2.15651441      -1.39268201       0.08901910
H        2.14628927      -0.79270144       0.37523071
H        0.65609302       1.77413260      -0.78997246
9
Frame=5 idx=005109 GeodesicLength=0.51233779630015 rxn_smarts="[O:1]([c:2]1[n:3][n:4]([H:8])[n:5][c:6]1[H:9])[H:7]>>[O:1]([C:2]([N:3]=[N:4][H:8])=[C:6]=[N:5][H:9])[H:7]"
O       -2.08274150      -0.43849310      -0.00966920
C       -0.78268066      -0.11548887      -0.03536715
N        0.17220282      -1.02668916       0.08143293
N        1.29814752      -0.34866459       0.09652134
N        1.05155509       1.12038490       0.14113495
C       -0.28778348       1.21022596       0.02753272
H       -2.15261097      -1.39154021       0.10209362
H        2.14134029      -0.81799932       0.38651811
H        0.64257088       1.80826440      -0.79019731
9
Frame=6 idx=005109 GeodesicLength=0.6147795246125388 rxn_smarts="[O:1]([c:2]1[n:3][n:4]([H:8])[n:5][c:6]1[H:9])[H:7]>>[O:1]([C:2]([N:3]=[N:4][H:8])=[C:6]=[N:5][H:9])[H:7]"
O       -2.07995063      -0.43811673      -0.00767184
C       -0.77870481      -0.11743364      -0.04796214
N        0.17524148      -1.03338014       0.07702376
N        1.30216517      -0.36175312       0.10171904
N        1.04945785       1.13874529       0.13899141
C       -0.28330991       1.20295001       0.01703780
H       -2.14853760      -1.39010540       0.11365305
H        2.13646893      -0.84418942       0.39748197
H        0.62716951       1.84328314      -0.79027305
9
Frame=7 idx=005109 GeodesicLength=0.7172069312929806 rxn_smarts="[O:1]([c:2]1[n:3][n:4]([H:8])[n:5][c:6]1[H:9])[H:7]>>[O:1]([C:2]([N:3]=[N:4][H:8])=[C:6]=[N:5][H:9])[H:7]"
O       -2.07678788      -0.43734588      -0.00542306
C       -0.77436285      -0.11947809      -0.05985928
N        0.17832612      -1.04032038       0.07388886
N        1.30638598      -0.37558634       0.10763598
N        1.04755112       1.15759622       0.13572850
C       -0.27819824       1.19552578       0.00592805
H       -2.14434639      -1.38837182       0.12389659
H        2.13166747      -0.87134240       0.40823255
H        0.60976467       1.87932290      -0.79002820
9
Frame=8 idx=005109 GeodesicLength=0.8196201282152719 rxn_smarts="[O:1]([c:2]1[n:3][n:4]([H:8])[n:5][c:6]1[H:9])[H:7]>>[O:1]([C:2]([N:3]=[N:4][H:8])=[C:6]=[N:5][H:9])[H:7]"
O       -2.07321983      -0.43620523      -0.00326411
C       -0.76960559      -0.12166427      -0.07138150
N        0.18148784      -1.04755915       0.07164390
N        1.31081797      -0.39019919       0.11435921
N        1.04583140       1.17694974       0.13133313
C       -0.27239660       1.18790248      -0.00598774
H       -2.14004753      -1.38625342       0.13352100
H        2.12688595      -0.89955261       0.41891529
H        0.59024640       1.91658165      -0.78913918
9
Frame=9 idx=005109 GeodesicLength=0.9220186909357526 rxn_smarts="[O:1]([c:2]1[n:3][n:4]([H:8])[n:5][c:6]1[H:9])[H:7]>>[O:1]([C:2]([N:3]=[N:4][H:8])=[C:6]=[N:5][H:9])[H:7]"
O       -2.06922647      -0.43459811      -0.00090354
C       -0.76439153      -0.12399322      -0.08240136
N        0.18471538      -1.05510385       0.07056819
N        1.31547317      -0.40563135       0.12202076
N        1.04437769       1.19683010       0.12554205
C       -0.26579316       1.18006142      -0.01886123
H       -2.13569721      -1.38377605       0.14206172
H        2.12217952      -0.92889415       0.42947068
H        0.56836260       1.95510521      -0.78749726
9
Frame=10 idx=005109 GeodesicLength=1.0244123102319773 rxn_smarts="[O:1]([c:2]1[n:3][n:4]([H:8])[n:5][c:6]1[H:9])[H:7]>>[O:1]([C:2]([N:3]=[N:4][H:8])=[C:6]=[N:5][H:9])[H:7]"
O       -2.06478125      -0.43246915       0.00180133
C       -0.75867953      -0.12649663      -0.09299455
N        0.18799067      -1.06299489       0.07067499
N        1.32035656      -0.42191429       0.13077897
N        1.04326129       1.21726941       0.11814238
C       -0.25827512       1.17196004      -0.03296052
H       -2.13134012      -1.38093565       0.14946397
H        2.11755902      -0.95945035       0.43993126
H        0.54390848       1.99503150      -0.78483783
9
Frame=11 idx=005109 GeodesicLength=1.126777092448634 rxn_smarts="[O:1]([c:2]1[n:3][n:4]([H:8])[n:5][c:6]1[H:9])[H:7]>>[O:1]([C:2]([N:3]=[N:4][H:8])=[C:6]=[N:5][H:9])[H:7]"
O       -2.05982341      -0.42963718       0.00508130
C       -0.75238089      -0.12912224      -0.10298153
N        0.19143722      -1.07116131       0.07220204
N        1.32549837      -0.43910683       0.14088019
N        1.04256960       1.23820581       0.10862037
C       -0.24968380       1.16356354      -0.04842147
H       -2.12704326      -1.37768616       0.15523021
H        2.11307365      -0.99137564       0.45028722
H        0.51635251       2.03632001      -0.78089832
9
Frame=12 idx=005109 GeodesicLength=1.2292381340326481 rxn_smarts="[O:1]([c:2]1[n:3][n:4]([H:8])[n:5][c:6]1[H:9])[H:7]>>[O:1]([C:2]([N:3]=[N:4][H:8])=[C:6]=[N:5][H:9])[H:7]"
O       -2.05425419      -0.42629538       0.00810200
C       -0.74544584      -0.13209499      -0.11322062
N        0.19489593      -1.07986982       0.07450537
N        1.33077072      -0.45720071       0.15258300
N        1.04221823       1.25977487       0.09721936
C       -0.23994133       1.15472762      -0.06617992
H       -2.12267265      -1.37381622       0.16117286
H        2.10856838      -1.02475248       0.46057851
H        0.48586075       2.07952711      -0.77476057
9
Frame=13 idx=005109 GeodesicLength=1.331757624510572 rxn_smarts="[O:1]([c:2]1[n:3][n:4]([H:8])[n:5][c:6]1[H:9])[H:7]>>[O:1]([C:2]([N:3]=[N:4][H:8])=[C:6]=[N:5][H:9])[H:7]"
O       -2.04805950      -0.42205704       0.01145577
C       -0.73776600      -0.13530062      -0.12312151
N        0.19852414      -1.08891341       0.07874469
N        1.33625263      -0.47624617       0.16638706
N        1.04241760       1.28183388       0.08295879
C       -0.22879639       1.14538607      -0.08644609
H       -2.11845421      -1.36929438       0.16571467
H        2.10437033      -1.05979341       0.47037606
H        0.45151140       2.12438509      -0.76606944
9
Frame=14 idx=005109 GeodesicLength=1.4343431425515434 rxn_smarts="[O:1]([c:2]1[n:3][n:4]([H:8])[n:5][c:6]1[H:9])[H:7]>>[O:1]([C:2]([N:3]=[N:4][H:8])=[C:6]=[N:5][H:9])[H:7]"
O       -2.04114117      -0.41688585       0.01456873
C       -0.72924548      -0.13888394      -0.13343348
N        0.20236680      -1.09839268       0.08423084
N        1.34181715      -0.49619790       0.18307390
N        1.04313528       1.30434237       0.06555271
C       -0.21605570       1.13528640      -0.11051388
H       -2.11424957      -1.36378051       0.17029333
H        2.10042244      -1.09668042       0.47970391
H        0.41295025       2.17119253      -0.75347605
9
Frame=15 idx=005109 GeodesicLength=1.5356112618005722 rxn_smarts="[O:1]([c:2]1[n:3][n:4]([H:8])[n:5][c:6]1[H:9])[H:7]>>[O:1]([C:2]([N:3]=[N:4][H:8])=[C:6]=[N:5][H:9])[H:7]"
O       -2.03325499      -0.41035494       0.01990680
C       -0.71979564      -0.14300045      -0.14325857
N        0.20597946      -1.10771593       0.09345574
N        1.34731371      -0.51667284       0.20321998
N        1.04481281       1.32699451       0.04363175
C       -0.20102204       1.12373414      -0.14004791
H       -2.11063921      -1.35748565       0.17134229
H        2.09691614      -1.13478338       0.48748910
H        0.36968975       2.21928454      -0.73573917
9
Frame=16 idx=005109 GeodesicLength=1.6375772853263864 rxn_smarts="[O:1]([c:2]1[n:3][n:4]([H:8])[n:5][c:6]1[H:9])[H:7]>>[O:1]([C:2]([N:3]=[N:4][H:8])=[C:6]=[N:5][H:9])[H:7]"
O       -2.02422132      -0.40262145       0.02292035
C       -0.70911048      -0.14795071      -0.15593070
N        0.21024212      -1.11814845       0.10076501
N        1.35199786      -0.53766945       0.23029303
N        1.04679927       1.35008179       0.01767426
C       -0.18343494       1.11048571      -0.17844712
H       -2.10648895      -1.34882647       0.17763645
H        2.09337520      -1.17511601       0.49439820
H        0.32084123       2.26976503      -0.70930949
