10
Frame=0 idx=004769 GeodesicLength=0.0 rxn_smarts="[O:1]=[C:2]([C:3]([O:4][C:5](=[O:6])[H:10])([H:8])[H:9])[H:7]>>[O+:1](=[C-:2][H:7])[C:3]([O:4][C:5](=[O:6])[H:10])([H:8])[H:9]"
O        1.05712117       0.77253078      -0.35130745
C        2.01677735       0.14002847       0.15378604
C        0.59157847      -0.60754814      -0.15404961
O       -1.17367786      -0.26717910      -0.85767035
C       -1.87579482       0.29882269       0.05252310
O       -1.49069232       0.62553607       1.16937342
H        2.93419323       0.69002800       0.40513998
H        0.73035454      -1.29873695      -0.96593538
H        0.13657544      -0.84066424       0.79330492
H       -2.92643519       0.48718242      -0.24516467
10
Frame=1 idx=004769 GeodesicLength=0.09505617858356122 rxn_smarts="[O:1]=[C:2]([C:3]([O:4][C:5](=[O:6])[H:10])([H:8])[H:9])[H:7]>>[O+:1](=[C-:2][H:7])[C:3]([O:4][C:5](=[O:6])[H:10])([H:8])[H:9]"
O        1.05415826       0.79405517      -0.34398820
C        2.02231889       0.13799690       0.10892067
C        0.57299932      -0.60152563      -0.16049018
O       -1.15511189      -0.27006108      -0.84591797
C       -1.87158155       0.29602136       0.05855477
O       -1.50040420       0.61650467       1.17956744
H        2.92087721       0.68875088       0.42144430
H        0.72343266      -1.31366517      -0.95337801
H        0.14531806      -0.84535695       0.79807824
H       -2.91200674       0.49727983      -0.26279105
10
Frame=2 idx=004769 GeodesicLength=0.19013019958941285 rxn_smarts="[O:1]=[C:2]([C:3]([O:4][C:5](=[O:6])[H:10])([H:8])[H:9])[H:7]>>[O+:1](=[C-:2][H:7])[C:3]([O:4][C:5](=[O:6])[H:10])([H:8])[H:9]"
O        1.04862134       0.81659184      -0.33465436
C        2.02541574       0.14081219       0.06363630
C        0.55558167      -0.59595219      -0.16515295
O       -1.13694444      -0.27557576      -0.83351941
C       -1.86861656       0.28816571       0.06577911
O       -1.51180055       0.60265816       1.19080268
H        2.90708778       0.68485559       0.43259021
H        0.71828791      -1.32819240      -0.93851557
H        0.15536699      -0.85061862       0.80363639
H       -2.89299989       0.51725548      -0.28460240
10
Frame=3 idx=004769 GeodesicLength=0.2851352090607244 rxn_smarts="[O:1]=[C:2]([C:3]([O:4][C:5](=[O:6])[H:10])([H:8])[H:9])[H:7]>>[O+:1](=[C-:2][H:7])[C:3]([O:4][C:5](=[O:6])[H:10])([H:8])[H:9]"
O        1.04423223       0.84028788      -0.32190614
C        2.02719452       0.14561933       0.02064681
C        0.53868741      -0.58956104      -0.16838499
O       -1.11798946      -0.27718864      -0.82313265
C       -1.86550896       0.28332496       0.07074440
O       -1.52430490       0.59038088       1.20033817
H        2.89683300       0.67426064       0.43887748
H        0.71365978      -1.34077936      -0.92214308
H        0.16391504      -0.85464846       0.80897658
H       -2.87671865       0.52830380      -0.30401657
10
Frame=4 idx=004769 GeodesicLength=0.3801354745165805 rxn_smarts="[O:1]=[C:2]([C:3]([O:4][C:5](=[O:6])[H:10])([H:8])[H:9])[H:7]>>[O+:1](=[C-:2][H:7])[C:3]([O:4][C:5](=[O:6])[H:10])([H:8])[H:9]"
O        1.03966207       0.86455790      -0.30611271
C        2.02725952       0.15298270      -0.02107411
C        0.52244895      -0.58336155      -0.17005320
O       -1.09882467      -0.27780189      -0.81350272
C       -1.86283581       0.27827464       0.07488094
O       -1.53816199       0.57701727       1.20926965
H        2.88861720       0.66031151       0.44005963
H        0.71003341      -1.35227756      -0.90428824
H        0.17188529      -0.85861515       0.81468437
H       -2.86008396       0.53891212      -0.32386359
10
Frame=5 idx=004769 GeodesicLength=0.4751023020297799 rxn_smarts="[O:1]=[C:2]([C:3]([O:4][C:5](=[O:6])[H:10])([H:8])[H:9])[H:7]>>[O+:1](=[C-:2][H:7])[C:3]([O:4][C:5](=[O:6])[H:10])([H:8])[H:9]"
O        1.03519879       0.88903822      -0.28730788
C        2.02562892       0.16247231      -0.06149764
C        0.50677239      -0.57752602      -0.17024436
O       -1.07940119      -0.27728316      -0.80461976
C       -1.86038446       0.27344463       0.07808231
O       -1.55313397       0.56294695       1.21743154
H        2.88226607       0.64366010       0.43647123
H        0.70728574      -1.36270619      -0.88527516
H        0.17910508      -0.86260417       0.82078291
H       -2.84333736       0.54855733      -0.34382320
10
Frame=6 idx=004769 GeodesicLength=0.5700137611186474 rxn_smarts="[O:1]=[C:2]([C:3]([O:4][C:5](=[O:6])[H:10])([H:8])[H:9])[H:7]>>[O+:1](=[C-:2][H:7])[C:3]([O:4][C:5](=[O:6])[H:10])([H:8])[H:9]"
O        1.03101276       0.91340756      -0.26561688
C        2.02229761       0.17382522      -0.10064275
C        0.49160450      -0.57224426      -0.16902665
O       -1.05973455      -0.27574326      -0.79636880
C       -1.85803316       0.26897115       0.08037865
O       -1.56902530       0.54835716       1.22475630
H        2.87747346       0.62498480       0.42841290
H        0.70537256      -1.37213643      -0.86539812
H        0.18552027      -0.86677343       0.82732245
H       -2.82648816       0.55735150      -0.36381711
10
Frame=7 idx=004769 GeodesicLength=0.6649071788371366 rxn_smarts="[O:1]=[C:2]([C:3]([O:4][C:5](=[O:6])[H:10])([H:8])[H:9])[H:7]>>[O+:1](=[C-:2][H:7])[C:3]([O:4][C:5](=[O:6])[H:10])([H:8])[H:9]"
O        1.02717813       0.93738538      -0.24134598
C        2.01722536       0.18691492      -0.13860086
C        0.47691654      -0.56771332      -0.16648642
O       -1.03987187      -0.27347004      -0.78857065
C       -1.85569867       0.26481292       0.08189817
O       -1.58562866       0.53338536       1.23123915
H        2.87372396       0.60491355       0.41631079
H        0.70432609      -1.38068298      -0.84495442
H        0.19114700      -0.87130099       0.83435281
H       -2.80931787       0.56575520      -0.38384260
10
Frame=8 idx=004769 GeodesicLength=0.7597124538787011 rxn_smarts="[O:1]=[C:2]([C:3]([O:4][C:5](=[O:6])[H:10])([H:8])[H:9])[H:7]>>[O+:1](=[C-:2][H:7])[C:3]([O:4][C:5](=[O:6])[H:10])([H:8])[H:9]"
O        1.02403599       0.96076241      -0.21456822
C        2.01053889       0.20144424      -0.17514780
C        0.46267036      -0.56400329      -0.16270216
O       -1.01981963      -0.27033991      -0.78119907
C       -1.85329226       0.26133666       0.08259031
O       -1.60279947       0.51841682       1.23675096
H        2.87099852       0.58383240       0.40034832
H        0.70408253      -1.38836466      -0.82421895
H        0.19588631      -0.87631432       0.84182842
H       -2.79230123       0.57322966      -0.40368181
10
Frame=9 idx=004769 GeodesicLength=0.8545394330846137 rxn_smarts="[O:1]=[C:2]([C:3]([O:4][C:5](=[O:6])[H:10])([H:8])[H:9])[H:7]>>[O+:1](=[C-:2][H:7])[C:3]([O:4][C:5](=[O:6])[H:10])([H:8])[H:9]"
O        1.02115924       0.98321754      -0.18607620
C        2.00181408       0.21755023      -0.21048041
C        0.44880614      -0.56135234      -0.15777460
O       -0.99965427      -0.26717477      -0.77391627
C       -1.85064566       0.25791038       0.08281220
O       -1.62009697       0.50325836       1.24147573
H        2.86801379       0.56245639       0.38115415
H        0.70477688      -1.39530303      -0.80343935
H        0.19993202      -0.88199470       0.84986054
H       -2.77410524       0.58143195      -0.42361579
10
Frame=10 idx=004769 GeodesicLength=0.9493462076719416 rxn_smarts="[O:1]=[C:2]([C:3]([O:4][C:5](=[O:6])[H:10])([H:8])[H:9])[H:7]>>[O+:1](=[C-:2][H:7])[C:3]([O:4][C:5](=[O:6])[H:10])([H:8])[H:9]"
O        1.01896121       1.00469699      -0.15615596
C        1.99139973       0.23484787      -0.24414426
C        0.43531298      -0.55987206      -0.15185063
O       -0.97948951      -0.26388104      -0.76675499
C       -1.84782628       0.25494718       0.08254302
O       -1.63747154       0.48838456       1.24537689
H        2.86501330       0.54130736       0.35899478
H        0.70638993      -1.40166691      -0.78296008
H        0.20319521      -0.88859483       0.85832766
H       -2.75548504       0.58983086      -0.44337643
10
Frame=11 idx=004769 GeodesicLength=1.0439599205792902 rxn_smarts="[O:1]=[C:2]([C:3]([O:4][C:5](=[O:6])[H:10])([H:8])[H:9])[H:7]>>[O+:1](=[C-:2][H:7])[C:3]([O:4][C:5](=[O:6])[H:10])([H:8])[H:9]"
O        1.01795064       1.02502348      -0.12511714
C        1.97956200       0.25291892      -0.27590582
C        0.42212534      -0.55927411      -0.14519726
O       -0.95922471      -0.25982933      -0.75977673
C       -1.84447733       0.25318737       0.08169690
O       -1.65436934       0.47477896       1.24811878
H        2.86179327       0.51993293       0.33473455
H        0.70863557      -1.40705647      -0.76312078
H        0.20552535      -0.89587117       0.86685600
H       -2.73752079       0.59618942      -0.46228849
10
Frame=12 idx=004769 GeodesicLength=1.1385651029640644 rxn_smarts="[O:1]=[C:2]([C:3]([O:4][C:5](=[O:6])[H:10])([H:8])[H:9])[H:7]>>[O+:1](=[C-:2][H:7])[C:3]([O:4][C:5](=[O:6])[H:10])([H:8])[H:9]"
O        1.01790959       1.04419078      -0.09326614
C        1.96627872       0.27167526      -0.30570961
C        0.40922049      -0.55974795      -0.13786194
O       -0.93892190      -0.25551458      -0.75284287
C       -1.84070912       0.25231733       0.08047975
O       -1.67094475       0.46216127       1.24999520
H        2.85810348       0.49907667       0.30832471
H        0.71168406      -1.41182535      -0.74396662
H        0.20699261      -0.90409240       0.87553990
H       -2.71961318       0.60175897      -0.48069239
10
Frame=13 idx=004769 GeodesicLength=1.2331838826104813 rxn_smarts="[O:1]=[C:2]([C:3]([O:4][C:5](=[O:6])[H:10])([H:8])[H:9])[H:7]>>[O+:1](=[C-:2][H:7])[C:3]([O:4][C:5](=[O:6])[H:10])([H:8])[H:9]"
O        1.01817049       1.06225266      -0.06189137
C        1.95137664       0.29130000      -0.33375459
C        0.39657579      -0.56156908      -0.13001379
O       -0.91893844      -0.25209394      -0.74565077
C       -1.83668805       0.25129499       0.07929269
O       -1.68681238       0.45011489       1.25129216
H        2.85288333       0.47945776       0.28073739
H        0.71569414      -1.41629733      -0.72558289
H        0.20805400      -0.91341770       0.88443975
H       -2.70031550       0.60895776      -0.49886858
10
Frame=14 idx=004769 GeodesicLength=1.327666182000906 rxn_smarts="[O:1]=[C:2]([C:3]([O:4][C:5](=[O:6])[H:10])([H:8])[H:9])[H:7]>>[O+:1](=[C-:2][H:7])[C:3]([O:4][C:5](=[O:6])[H:10])([H:8])[H:9]"
O        1.01943103       1.07919271      -0.03068165
C        1.93536397       0.31115186      -0.35962762
C        0.38410756      -0.56439858      -0.12184937
O       -0.89910234      -0.24854374      -0.73847146
C       -1.83216277       0.25115850       0.07792579
O       -1.70181931       0.43945965       1.25183353
H        2.84680555       0.46074885       0.25216326
H        0.72026684      -1.42017810      -0.70818631
H        0.20839703      -0.92369428       0.89323296
H       -2.68128756       0.61510313      -0.51633914
10
Frame=15 idx=004769 GeodesicLength=1.4222928067663954 rxn_smarts="[O:1]=[C:2]([C:3]([O:4][C:5](=[O:6])[H:10])([H:8])[H:9])[H:7]>>[O+:1](=[C-:2][H:7])[C:3]([O:4][C:5](=[O:6])[H:10])([H:8])[H:9]"
O        1.02129685       1.09526316      -0.00056957
C        1.91832872       0.33123815      -0.38350057
C        0.37181377      -0.56834712      -0.11358459
O       -0.87956439      -0.24548891      -0.73118058
C       -1.82725280       0.25136866       0.07664769
O       -1.71582739       0.43009773       1.25185913
H        2.83924622       0.44323380       0.22345572
H        0.72552935      -1.42374373      -0.69186789
H        0.20824292      -0.93496265       0.90183533
H       -2.66181326       0.62134091      -0.53309467
10
Frame=16 idx=004769 GeodesicLength=1.516856595422243 rxn_smarts="[O:1]=[C:2]([C:3]([O:4][C:5](=[O:6])[H:10])([H:8])[H:9])[H:7]>>[O+:1](=[C-:2][H:7])[C:3]([O:4][C:5](=[O:6])[H:10])([H:8])[H:9]"
O        1.02366177       1.11053940       0.02825688
C        1.90042349       0.35136739      -0.40540688
C        0.35965725      -0.57335092      -0.10528285
O       -0.86039838      -0.24296521      -0.72378525
C       -1.82202578       0.25183718       0.07546662
O       -1.72884449       0.42187553       1.25141630
H        2.83033449       0.42701045       0.19478941
H        0.73140428      -1.42699515      -0.67651173
H        0.20768752      -0.94714858       0.91021365
H       -2.64190016       0.62782991      -0.54915615
