14
Frame=0 idx=005225 GeodesicLength=0.0 rxn_smarts="[C:1]([N:2]([C@@:3]([C:4]([H:12])([H:13])[H:14])([C:5]#[N:6])[H:11])[H:10])([H:7])([H:8])[H:9]>>[C:1]([N+:2]([C:3]([C:5]#[N:6])([H:11])[H:12])([C-:4]([H:13])[H:14])[H:10])([H:7])([H:8])[H:9]"
C        1.80280603       0.01093105       0.47059545
N        0.37486456      -0.24958276       0.54379934
C       -0.41030581       0.43639172      -0.45411416
C       -2.35427001      -1.57053748      -0.01453734
C       -0.28213649       1.90970075      -0.44756670
N       -0.15771652       3.04960331      -0.40767993
H        2.18996039      -0.36112973      -0.48057298
H        2.30484709      -0.53400003       1.26922980
H        2.06299418       1.07441696       0.55463341
H        0.01533859      -0.04147638       1.46529037
H       -0.13731082       0.08251859      -1.45112669
H       -1.47950920       0.20978117      -0.28634144
H       -2.38800573      -1.78541581      -1.10253314
H       -1.54155625      -2.23120130       0.34092402
14
Frame=1 idx=005225 GeodesicLength=0.1506200172337706 rxn_smarts="[C:1]([N:2]([C@@:3]([C:4]([H:12])([H:13])[H:14])([C:5]#[N:6])[H:11])[H:10])([H:7])([H:8])[H:9]>>[C:1]([N+:2]([C:3]([C:5]#[N:6])([H:11])[H:12])([C-:4]([H:13])[H:14])[H:10])([H:7])([H:8])[H:9]"
C        1.77235534      -0.02012894       0.45711293
N        0.33814455      -0.24391540       0.53794038
C       -0.43500886       0.45675565      -0.46031044
C       -2.25903826      -1.54045783      -0.02671997
C       -0.28251023       1.92770896      -0.43382873
N       -0.14397420       3.06556716      -0.38325399
H        2.14506604      -0.40374917      -0.49510176
H        2.26195934      -0.57856368       1.25404257
H        2.05657879       1.03729811       0.53797604
H       -0.00934357      -0.02364461       1.46145762
H       -0.15473014       0.11506810      -1.45968557
H       -1.52801416       0.24877224      -0.31122082
H       -2.25470317      -1.82526446      -1.09791857
H       -1.50678147      -2.21544612       0.41951032
14
Frame=2 idx=005225 GeodesicLength=0.30100901370120914 rxn_smarts="[C:1]([N:2]([C@@:3]([C:4]([H:12])([H:13])[H:14])([C:5]#[N:6])[H:11])[H:10])([H:7])([H:8])[H:9]>>[C:1]([N+:2]([C:3]([C:5]#[N:6])([H:11])[H:12])([C-:4]([H:13])[H:14])[H:10])([H:7])([H:8])[H:9]"
C        1.74564481      -0.04806977       0.44401359
N        0.30687259      -0.24098417       0.53140847
C       -0.45609758       0.47223636      -0.46701992
C       -2.17120388      -1.50912982      -0.03957083
C       -0.28534721       1.94074752      -0.41964001
N       -0.13778126       3.07688377      -0.35696726
H        2.10574259      -0.44043805      -0.50935710
H        2.22428960      -0.61851028       1.23899492
H        2.04937045       1.00394262       0.52284029
H       -0.02974891      -0.01111254       1.45684103
H       -0.16701399       0.14361359      -1.46839556
H       -1.57210649       0.27861743      -0.33887880
H       -2.12544866      -1.85753419      -1.08966130
H       -1.48717208      -2.19026247       0.49539248
14
Frame=3 idx=005225 GeodesicLength=0.4511514720973844 rxn_smarts="[C:1]([N:2]([C@@:3]([C:4]([H:12])([H:13])[H:14])([C:5]#[N:6])[H:11])[H:10])([H:7])([H:8])[H:9]>>[C:1]([N+:2]([C:3]([C:5]#[N:6])([H:11])[H:12])([C-:4]([H:13])[H:14])[H:10])([H:7])([H:8])[H:9]"
C        1.72254475      -0.07323718       0.43143457
N        0.28043146      -0.24034387       0.52464065
C       -0.47399657       0.48352557      -0.47394074
C       -2.08992194      -1.47736353      -0.05201547
C       -0.29027026       1.94962021      -0.40523321
N       -0.13799078       3.08437410      -0.32961492
H        2.07164048      -0.47224218      -0.52315057
H        2.19160537      -0.65431703       1.22433713
H        2.04192269       0.97410775       0.50895746
H       -0.04640672      -0.00284207       1.45188673
H       -0.17510801       0.16835782      -1.47688357
H       -1.61239257       0.30047095      -0.36869904
H       -2.00188883      -1.88293369      -1.07746454
H       -1.48016906      -2.15717684       0.56574552
14
Frame=4 idx=005225 GeodesicLength=0.601111538587702 rxn_smarts="[C:1]([N:2]([C@@:3]([C:4]([H:12])([H:13])[H:14])([C:5]#[N:6])[H:11])[H:10])([H:7])([H:8])[H:9]>>[C:1]([N+:2]([C:3]([C:5]#[N:6])([H:11])[H:12])([C-:4]([H:13])[H:14])[H:10])([H:7])([H:8])[H:9]"
C        1.70283464      -0.09594384       0.41945640
N        0.25825252      -0.24157197       0.51796312
C       -0.48907408       0.49124687      -0.48083847
C       -2.01459703      -1.44549727      -0.06328952
C       -0.29693700       1.95494405      -0.39078792
N       -0.14361612       3.08857885      -0.30181767
H        2.04233397      -0.49998500      -0.53637547
H        2.16356618      -0.68642305       1.21022364
H        2.03459076       0.94746567       0.49611286
H       -0.05980155       0.00202575       1.44693713
H       -0.17979650       0.18956833      -1.48490602
H       -1.64936942       0.31535979      -0.40011781
H       -1.88514073      -1.90206145      -1.06141289
H       -1.48324566      -2.11770673       0.62885263
14
Frame=5 idx=005225 GeodesicLength=0.7507006286696867 rxn_smarts="[C:1]([N:2]([C@@:3]([C:4]([H:12])([H:13])[H:14])([C:5]#[N:6])[H:11])[H:10])([H:7])([H:8])[H:9]>>[C:1]([N+:2]([C:3]([C:5]#[N:6])([H:11])[H:12])([C-:4]([H:13])[H:14])[H:10])([H:7])([H:8])[H:9]"
C        1.68621318      -0.11653406       0.40811185
N        0.23983038      -0.24436965       0.51153734
C       -0.50162351       0.49596505      -0.48764471
C       -1.94471623      -1.41376257      -0.07307145
C       -0.30493268       1.95743315      -0.37650178
N       -0.15396312       3.09026911      -0.27363553
H        2.01722920      -0.52444282      -0.54897813
H        2.13973985      -0.71539133       1.19672277
H        2.02763840       0.92373999       0.48417168
H       -0.07024595       0.00420422       1.44214754
H       -0.18177258       0.20751831      -1.49239624
H       -1.68332866       0.32421132      -0.43289813
H       -1.77591306      -1.91592912      -1.04188456
H       -1.49415520      -2.07291160       0.68431936
14
Frame=6 idx=005225 GeodesicLength=0.9001342820267031 rxn_smarts="[C:1]([N:2]([C@@:3]([C:4]([H:12])([H:13])[H:14])([C:5]#[N:6])[H:11])[H:10])([H:7])([H:8])[H:9]>>[C:1]([N+:2]([C:3]([C:5]#[N:6])([H:11])[H:12])([C-:4]([H:13])[H:14])[H:10])([H:7])([H:8])[H:9]"
C        1.67241195      -0.13518021       0.39744356
N        0.22466653      -0.24834890       0.50553890
C       -0.51195427       0.49815415      -0.49412318
C       -1.87998398      -1.38211554      -0.08101016
C       -0.31399273       1.95734725      -0.36238410
N       -0.16807771       3.08952971      -0.24579060
H        1.99593046      -0.54604571      -0.56082539
H        2.11972436      -0.74140873       1.18387432
H        2.02122665       0.90256601       0.47299098
H       -0.07820041       0.00426987       1.43764198
H       -0.18158983       0.22250244      -1.49910188
H       -1.71470328       0.32771577      -0.46640181
H       -1.67480322      -1.92465692      -1.01934784
H       -1.51065453      -2.02432919       0.73149522
14
Frame=7 idx=005225 GeodesicLength=1.0495396169359994 rxn_smarts="[C:1]([N:2]([C@@:3]([C:4]([H:12])([H:13])[H:14])([C:5]#[N:6])[H:11])[H:10])([H:7])([H:8])[H:9]>>[C:1]([N+:2]([C:3]([C:5]#[N:6])([H:11])[H:12])([C-:4]([H:13])[H:14])[H:10])([H:7])([H:8])[H:9]"
C        1.66110384      -0.15215162       0.38741586
N        0.21231676      -0.25323618       0.49999603
C       -0.52029204       0.49828563      -0.50024253
C       -1.82002941      -1.35046551      -0.08707418
C       -0.32386177       1.95509243      -0.34851745
N       -0.18540976       3.08666162      -0.21830681
H        1.97796112      -0.56529333      -0.57191317
H        2.10304007      -0.76488198       1.17163907
H        2.01540753       0.88357212       0.46244485
H       -0.08402028       0.00271506       1.43342510
H       -0.17965595       0.23486643      -1.50501440
H       -1.74375349       0.32655263      -0.50037629
H       -1.58176137      -1.92887619      -0.99430637
H       -1.53104525      -1.97284112       0.77083030
14
Frame=8 idx=005225 GeodesicLength=1.1986622847353627 rxn_smarts="[C:1]([N:2]([C@@:3]([C:4]([H:12])([H:13])[H:14])([C:5]#[N:6])[H:11])[H:10])([H:7])([H:8])[H:9]>>[C:1]([N+:2]([C:3]([C:5]#[N:6])([H:11])[H:12])([C-:4]([H:13])[H:14])[H:10])([H:7])([H:8])[H:9]"
C        1.65204259      -0.16770426       0.37802748
N        0.20241698      -0.25882390       0.49495542
C       -0.52685204       0.49682494      -0.50606480
C       -1.76458661      -1.31885586      -0.09136100
C       -0.33428273       1.95122528      -0.33500811
N       -0.20548553       3.08224417      -0.19113455
H        1.96287972      -0.58269564      -0.58230600
H        2.08933068      -0.78622678       1.16012165
H        2.01031364       0.86650847       0.45244936
H       -0.08793402      -0.00004716       1.42963175
H       -0.17637721       0.24495934      -1.51034351
H       -1.77078348       0.32130334      -0.53465716
H       -1.49669677      -1.92937045      -0.96738457
H       -1.55398521      -1.91934148       0.80307403
14
Frame=9 idx=005225 GeodesicLength=1.3475474719550011 rxn_smarts="[C:1]([N:2]([C@@:3]([C:4]([H:12])([H:13])[H:14])([C:5]#[N:6])[H:11])[H:10])([H:7])([H:8])[H:9]>>[C:1]([N+:2]([C:3]([C:5]#[N:6])([H:11])[H:12])([C-:4]([H:13])[H:14])[H:10])([H:7])([H:8])[H:9]"
C        1.64493440      -0.18221750       0.36925606
N        0.19467059      -0.26508259       0.49036875
C       -0.53173852       0.49410904      -0.51171493
C       -1.71313801      -1.28714790      -0.09392652
C       -0.34506296       1.94616862      -0.32199403
N       -0.22860816       3.07663283      -0.16411050
H        1.95033019      -0.59869012      -0.59208989
H        2.07816290      -0.80609901       1.14927610
H        2.00584674       0.85100828       0.44310283
H       -0.09015891      -0.00379576       1.42624030
H       -0.17194235       0.25302519      -1.51526426
H       -1.79580074       0.31263847      -0.56925307
H       -1.41941868      -1.92671090      -0.93915762
H       -1.57807648      -1.86383864       0.82926678
14
Frame=10 idx=005225 GeodesicLength=1.4961826927274742 rxn_smarts="[C:1]([N:2]([C@@:3]([C:4]([H:12])([H:13])[H:14])([C:5]#[N:6])[H:11])[H:10])([H:7])([H:8])[H:9]>>[C:1]([N+:2]([C:3]([C:5]#[N:6])([H:11])[H:12])([C-:4]([H:13])[H:14])[H:10])([H:7])([H:8])[H:9]"
C        1.63948980      -0.19565462       0.36107797
N        0.18868374      -0.27170149       0.48626437
C       -0.53518971       0.49048286      -0.51701751
C       -1.66554402      -1.25540200      -0.09500409
C       -0.35601689       1.94006545      -0.30931380
N       -0.25347134       3.06987370      -0.13779954
H        1.93989163      -0.61331770      -0.60121687
H        2.06913073      -0.82442148       1.13904913
H        2.00204190       0.83691690       0.43429572
H       -0.09102832      -0.00823083       1.42324031
H       -0.16673001       0.25940094      -1.51964325
H       -1.81921873       0.30069225      -0.60351968
H       -1.34954194      -1.92113055      -0.91013870
H       -1.60249684      -1.80757345       0.84972593
14
Frame=11 idx=005225 GeodesicLength=1.64473456904533 rxn_smarts="[C:1]([N:2]([C@@:3]([C:4]([H:12])([H:13])[H:14])([C:5]#[N:6])[H:11])[H:10])([H:7])([H:8])[H:9]>>[C:1]([N+:2]([C:3]([C:5]#[N:6])([H:11])[H:12])([C-:4]([H:13])[H:14])[H:10])([H:7])([H:8])[H:9]"
C        1.63546655      -0.20823384       0.35345312
N        0.18419344      -0.27855429       0.48257842
C       -0.53730342       0.48622039      -0.52204264
C       -1.62142928      -1.22348809      -0.09478512
C       -0.36696088       1.93314691      -0.29706392
N       -0.28008570       3.06209866      -0.11203020
H        1.93124059      -0.62691213      -0.60968738
H        2.06186749      -0.84149001       1.12941308
H        1.99887139       0.82392849       0.42595963
H       -0.09074242      -0.01310233       1.42053787
H       -0.16088675       0.26430961      -1.52356647
H       -1.84117087       0.28580812      -0.63730205
H       -1.28657129      -1.91297654      -0.88071708
H       -1.62648885      -1.75075493       0.86525274
14
Frame=12 idx=005225 GeodesicLength=1.792969173396767 rxn_smarts="[C:1]([N:2]([C@@:3]([C:4]([H:12])([H:13])[H:14])([C:5]#[N:6])[H:11])[H:10])([H:7])([H:8])[H:9]>>[C:1]([N+:2]([C:3]([C:5]#[N:6])([H:11])[H:12])([C-:4]([H:13])[H:14])[H:10])([H:7])([H:8])[H:9]"
C        1.63265790      -0.22015624       0.34634539
N        0.18095949      -0.28556493       0.47929150
C       -0.53816633       0.48161468      -0.52687944
C       -1.58047004      -1.19144675      -0.09346086
C       -0.37772370       1.92580295      -0.28530999
N       -0.30837426       3.05368909      -0.08674318
H        1.92412334      -0.63976886      -0.61761905
H        2.05604497      -0.85765204       1.12039104
H        1.99631802       0.81186012       0.41807317
H       -0.08950925      -0.01823294       1.41819421
H       -0.15452128       0.26799549      -1.52725206
H       -1.86181784       0.26829862      -0.67042127
H       -1.22997459      -1.90273510      -0.85130748
H       -1.64954642      -1.69370411       0.87669801
14
Frame=13 idx=005225 GeodesicLength=1.9411261512200515 rxn_smarts="[C:1]([N:2]([C@@:3]([C:4]([H:12])([H:13])[H:14])([C:5]#[N:6])[H:11])[H:10])([H:7])([H:8])[H:9]>>[C:1]([N+:2]([C:3]([C:5]#[N:6])([H:11])[H:12])([C-:4]([H:13])[H:14])[H:10])([H:7])([H:8])[H:9]"
C        1.63091273      -0.23155564       0.33972096
N        0.17881930      -0.29263850       0.47630159
C       -0.53782164       0.47683190      -0.53156207
C       -1.54236128      -1.15914739      -0.09124263
C       -0.38810108       1.91804475      -0.27406643
N       -0.33854019       3.04441491      -0.06186340
H        1.91832778      -0.65196065      -0.62498934
H        2.05141718      -0.87311052       1.11185950
H        1.99439290       0.80043059       0.41069174
H       -0.08742491      -0.02349714       1.41603196
H       -0.14772306       0.27063209      -1.53067487
H       -1.88127471       0.24836655      -0.70275654
H       -1.17928387      -1.89056299      -0.82212819
H       -1.67133915      -1.63624796       0.88467772
14
Frame=14 idx=005225 GeodesicLength=2.0890491508849958 rxn_smarts="[C:1]([N:2]([C@@:3]([C:4]([H:12])([H:13])[H:14])([C:5]#[N:6])[H:11])[H:10])([H:7])([H:8])[H:9]>>[C:1]([N+:2]([C:3]([C:5]#[N:6])([H:11])[H:12])([C-:4]([H:13])[H:14])[H:10])([H:7])([H:8])[H:9]"
C        1.62998806      -0.24250271       0.33357322
N        0.17750428      -0.29966797       0.47363549
C       -0.53644341       0.47211823      -0.53606349
C       -1.50681759      -1.12668932      -0.08835832
C       -0.39805881       1.91020508      -0.26328774
N       -0.36979496       3.03468503      -0.03773493
H        1.91357630      -0.66363667      -0.63185951
H        2.04765504      -0.88800862       1.10386165
H        1.99299616       0.78957924       0.40379138
H       -0.08476054      -0.02876560       1.41413889
H       -0.14068483       0.27243566      -1.53393421
H       -1.89982482       0.22611089      -0.73384572
H       -1.13390026      -1.87673911      -0.79357686
H       -1.69143462      -1.57912413       0.88966015
14
Frame=15 idx=005225 GeodesicLength=2.236844420483775 rxn_smarts="[C:1]([N:2]([C@@:3]([C:4]([H:12])([H:13])[H:14])([C:5]#[N:6])[H:11])[H:10])([H:7])([H:8])[H:9]>>[C:1]([N+:2]([C:3]([C:5]#[N:6])([H:11])[H:12])([C-:4]([H:13])[H:14])[H:10])([H:7])([H:8])[H:9]"
C        1.62973050      -0.25309698       0.32787886
N        0.17686023      -0.30656186       0.47123047
C       -0.53408345       0.46762271      -0.54042134
C       -1.47356662      -1.09400947      -0.08500555
C       -0.40742471       1.90238893      -0.25301624
N       -0.40214507       3.02446408      -0.01430216
H        1.90965966      -0.67492549      -0.63821870
H        2.04451319      -0.90247328       1.09636382
H        1.99212103       0.77912745       0.39736050
H       -0.08163268      -0.03390667       1.41241878
H       -0.13347701       0.27354082      -1.53706130
H       -1.91761028       0.20164265      -0.76348585
H       -1.09333673      -1.86140300      -0.76583971
H       -1.70960805      -1.52240990       0.89209843
14
Frame=16 idx=005225 GeodesicLength=2.3845054866375746 rxn_smarts="[C:1]([N:2]([C@@:3]([C:4]([H:12])([H:13])[H:14])([C:5]#[N:6])[H:11])[H:10])([H:7])([H:8])[H:9]>>[C:1]([N+:2]([C:3]([C:5]#[N:6])([H:11])[H:12])([C-:4]([H:13])[H:14])[H:10])([H:7])([H:8])[H:9]"
C        1.63001523      -0.26344342       0.32261670
N        0.17674717      -0.31325432       0.46904504
C       -0.53079785       0.46350380      -0.54467538
C       -1.44235631      -1.06108470      -0.08136710
C       -0.41607100       1.89476676      -0.24327173
N       -0.43557861       3.01382069       0.00841727
H        1.90643027      -0.68594693      -0.64410162
H        2.04178416      -0.91667432       1.08934951
H        1.99176010       0.76893260       0.39140554
H       -0.07817351      -0.03883011       1.41083923
H       -0.12614515       0.27409917      -1.54012933
H       -1.93479352       0.17506172      -0.79147996
H       -1.05708990      -1.84471911      -0.73908058
H       -1.72573105      -1.46623183       0.89243242
