16
Frame=0 idx=002771 GeodesicLength=0.0 rxn_smarts="[C:1]([C@@:2]1([H:10])[C@:3]([C:4]([H:12])([H:13])[H:14])([H:11])[C@:5]1([O:6][H:16])[H:15])([H:7])([H:8])[H:9]>>[C:1]([C@@:2]([C:3](=[C:4]([H:12])[H:14])[H:11])([C:5](=[O:6])[H:15])[H:10])([H:7])([H:8])[H:9].[H:13][H:16]"
C       -0.98253647      -1.15191809      -1.00371637
C       -0.98903294      -0.36220606       0.28330833
C        0.29728134      -0.19844381       1.04379534
C        1.54187235      -0.17236481       0.44901557
C       -0.82262099       1.11548161       0.18927568
O       -0.27068387       1.70032282      -0.78094995
H       -0.25839441      -0.75210032      -1.71291135
H       -1.96265211      -1.10318184      -1.48034938
H       -0.74395963      -2.19971371      -0.81259507
H       -1.80489198      -0.63963872       0.94786435
H        0.22296745       0.01440151       2.10233149
H        1.70597865      -0.67563944      -0.49668084
H        1.75192046       1.19280568      -0.23996068
H        2.41610617      -0.10541294       1.08612212
H       -1.17464188       1.70725903       1.04178841
H        1.07328789       1.63034913      -0.61633760
16
Frame=1 idx=002771 GeodesicLength=0.09822057557223761 rxn_smarts="[C:1]([C@@:2]1([H:10])[C@:3]([C:4]([H:12])([H:13])[H:14])([H:11])[C@:5]1([O:6][H:16])[H:15])([H:7])([H:8])[H:9]>>[C:1]([C@@:2]([C:3](=[C:4]([H:12])[H:14])[H:11])([C:5](=[O:6])[H:15])[H:10])([H:7])([H:8])[H:9].[H:13][H:16]"
C       -0.98018165      -1.14052557      -1.00775567
C       -0.98912697      -0.36334311       0.28657216
C        0.29686819      -0.19885206       1.04703690
C        1.54556969      -0.17418835       0.45714552
C       -0.82839597       1.11647206       0.20517337
O       -0.29186511       1.70913069      -0.77197266
H       -0.25312042      -0.73913263      -1.71288375
H       -1.95713121      -1.07919105      -1.48950844
H       -0.74710776      -2.19104286      -0.82533487
H       -1.80530317      -0.64773259       0.94795637
H        0.21855661      -0.00210122       2.10860495
H        1.73591717      -0.73310759      -0.45180372
H        1.76484355       1.17567924      -0.29775436
H        2.41343634      -0.06634198       1.09798901
H       -1.18280797       1.70264530       1.06056564
H        1.05984870       1.63163173      -0.65403045
16
Frame=2 idx=002771 GeodesicLength=0.19579425426046604 rxn_smarts="[C:1]([C@@:2]1([H:10])[C@:3]([C:4]([H:12])([H:13])[H:14])([H:11])[C@:5]1([O:6][H:16])[H:15])([H:7])([H:8])[H:9]>>[C:1]([C@@:2]([C:3](=[C:4]([H:12])[H:14])[H:11])([C:5](=[O:6])[H:15])[H:10])([H:7])([H:8])[H:9].[H:13][H:16]"
C       -0.97734151      -1.12870059      -1.01194097
C       -0.98917874      -0.36434070       0.28971415
C        0.29642137      -0.19950430       1.05047418
C        1.54904843      -0.17651933       0.46485735
C       -0.83389832       1.11747104       0.22123282
O       -0.31204255       1.71817652      -0.76200759
H       -0.24750778      -0.72550427      -1.71298325
H       -1.95104584      -1.05500003      -1.49861264
H       -0.74925649      -2.18176660      -0.83847982
H       -1.80579178      -0.65575256       0.94764722
H        0.21436064      -0.01878366       2.11480382
H        1.76520624      -0.79019208      -0.40229690
H        1.77614186       1.15423089      -0.35871473
H        2.40994207      -0.02529136       1.10698168
H       -1.19095081       1.69775770       1.07955237
H        1.04589322       1.63371933      -0.69022772
16
Frame=3 idx=002771 GeodesicLength=0.2928357229360071 rxn_smarts="[C:1]([C@@:2]1([H:10])[C@:3]([C:4]([H:12])([H:13])[H:14])([H:11])[C@:5]1([O:6][H:16])[H:15])([H:7])([H:8])[H:9]>>[C:1]([C@@:2]([C:3](=[C:4]([H:12])[H:14])[H:11])([C:5](=[O:6])[H:15])[H:10])([H:7])([H:8])[H:9].[H:13][H:16]"
C       -0.97407959      -1.11655569      -1.01620653
C       -0.98920171      -0.36520639       0.29270398
C        0.29593778      -0.20044090       1.05405272
C        1.55230894      -0.17951607       0.47207752
C       -0.83907181       1.11844442       0.23729649
O       -0.33098250       1.72731685      -0.75122793
H       -0.24176171      -0.71129941      -1.71325981
H       -1.94452857      -1.03088173      -1.50751197
H       -0.75027843      -2.17194227      -0.85189808
H       -1.80638406      -0.66359876       0.94693672
H        0.21039286      -0.03555704       2.12086624
H        1.79380991      -0.84585241      -0.34849306
H        1.78546382       1.12872304      -0.42184069
H        2.40560003       0.01708086       1.11277018
H       -1.19895109       1.69265974       1.09855080
H        1.03172613       1.63662576      -0.72481659
16
Frame=4 idx=002771 GeodesicLength=0.38940239583762204 rxn_smarts="[C:1]([C@@:2]1([H:10])[C@:3]([C:4]([H:12])([H:13])[H:14])([H:11])[C@:5]1([O:6][H:16])[H:15])([H:7])([H:8])[H:9]>>[C:1]([C@@:2]([C:3](=[C:4]([H:12])[H:14])[H:11])([C:5](=[O:6])[H:15])[H:10])([H:7])([H:8])[H:9].[H:13][H:16]"
C       -0.97048137      -1.10421041      -1.02050655
C       -0.98921104      -0.36595315       0.29553289
C        0.29541404      -0.20170097       1.05774351
C        1.55537182      -0.18326970       0.47880633
C       -0.84386245       1.11937813       0.25324901
O       -0.34853368       1.73644731      -0.73981525
H       -0.23607556      -0.69661631      -1.71378774
H       -1.93773339      -1.00706641      -1.51608539
H       -0.75011868      -2.16166255      -0.86548211
H       -1.80710686      -0.67119233       0.94585338
H        0.20663877      -0.05238067       2.12676893
H        1.82173481      -0.89916454      -0.29087344
H        1.79264225       1.09982458      -0.48587969
H        2.40041278       0.06002320       1.11515444
H       -1.20667342       1.68742954       1.11741879
H        1.01758198       1.64011427      -0.75809712
16
Frame=5 idx=002771 GeodesicLength=0.4850324415521774 rxn_smarts="[C:1]([C@@:2]1([H:10])[C@:3]([C:4]([H:12])([H:13])[H:14])([H:11])[C@:5]1([O:6][H:16])[H:15])([H:7])([H:8])[H:9]>>[C:1]([C@@:2]([C:3](=[C:4]([H:12])[H:14])[H:11])([C:5](=[O:6])[H:15])[H:10])([H:7])([H:8])[H:9].[H:13][H:16]"
C       -0.96660693      -1.09174903      -1.02479265
C       -0.98917732      -0.36658214       0.29820954
C        0.29487474      -0.20327371       1.06152746
C        1.55831150      -0.18765102       0.48518052
C       -0.84823375       1.12025492       0.26900138
O       -0.36470024       1.74547536      -0.72797023
H       -0.23059545      -0.68153323      -1.71460851
H       -1.93077865      -0.98368320      -1.52420412
H       -0.74877148      -2.15099917      -0.87914030
H       -1.80791247      -0.67847267       0.94443291
H        0.20307431      -0.06923582       2.13248794
H        1.84896529      -0.94952937      -0.23018476
H        1.79756725       1.06834759      -0.54952826
H        2.39437212       0.10268278       1.11419160
H       -1.21400847       1.68210900       1.13602325
H        1.00361957       1.64383972      -0.79062577
16
Frame=6 idx=002771 GeodesicLength=0.5803512648324567 rxn_smarts="[C:1]([C@@:2]1([H:10])[C@:3]([C:4]([H:12])([H:13])[H:14])([H:11])[C@:5]1([O:6][H:16])[H:15])([H:7])([H:8])[H:9]>>[C:1]([C@@:2]([C:3](=[C:4]([H:12])[H:14])[H:11])([C:5](=[O:6])[H:15])[H:10])([H:7])([H:8])[H:9].[H:13][H:16]"
C       -0.96258910      -1.07928843      -1.02901716
C       -0.98913513      -0.36711925       0.30072858
C        0.29432172      -0.20515514       1.06533709
C        1.56112387      -0.19285121       0.49112306
C       -0.85218237       1.12105823       0.28447310
O       -0.37954735       1.75429486      -0.71589944
H       -0.22548810      -0.66619264      -1.71573358
H       -1.92384696      -0.96089937      -1.53179606
H       -0.74632053      -2.14005169      -0.89273983
H       -1.80883089      -0.68539642       0.94272378
H        0.19969015      -0.08605775       2.13797227
H        1.87561168      -0.99622011      -0.16692304
H        1.80087426       1.03523804      -0.61170541
H        2.38758020       0.14413163       1.11003782
H       -1.22091064       1.67677497       1.15425745
H        0.98964919       1.64773428      -0.82283862
16
Frame=7 idx=002771 GeodesicLength=0.6754969917371739 rxn_smarts="[C:1]([C@@:2]1([H:10])[C@:3]([C:4]([H:12])([H:13])[H:14])([H:11])[C@:5]1([O:6][H:16])[H:15])([H:7])([H:8])[H:9]>>[C:1]([C@@:2]([C:3](=[C:4]([H:12])[H:14])[H:11])([C:5](=[O:6])[H:15])[H:10])([H:7])([H:8])[H:9].[H:13][H:16]"
C       -0.95850233      -1.06688282      -1.03315965
C       -0.98907990      -0.36758599       0.30309493
C        0.29376837      -0.20732082       1.06913330
C        1.56384222      -0.19892415       0.49667831
C       -0.85571837       1.12177301       0.29963586
O       -0.39322245       1.76284947      -0.70374862
H       -0.22082356      -0.65066473      -1.71715215
H       -1.91703727      -0.93874832      -1.53883810
H       -0.74287139      -2.12888179      -0.90621944
H       -1.80984134      -0.69196647       0.94077116
H        0.19646364      -0.10282221       2.14320039
H        1.90173997      -1.03908690      -0.10148168
H        1.80305696       1.00105536      -0.67200327
H        2.38010586       0.18384277       1.10295647
H       -1.22739114       1.67144475       1.17207111
H        0.97551073       1.65191886      -0.85493861
16
Frame=8 idx=002771 GeodesicLength=0.770418185836494 rxn_smarts="[C:1]([C@@:2]1([H:10])[C@:3]([C:4]([H:12])([H:13])[H:14])([H:11])[C@:5]1([O:6][H:16])[H:15])([H:7])([H:8])[H:9]>>[C:1]([C@@:2]([C:3](=[C:4]([H:12])[H:14])[H:11])([C:5](=[O:6])[H:15])[H:10])([H:7])([H:8])[H:9].[H:13][H:16]"
C       -0.95439084      -1.05454577      -1.03722376
C       -0.98900751      -0.36800057       0.30531413
C        0.29322083      -0.20974535       1.07289413
C        1.56648876      -0.20589455       0.50189253
C       -0.85887242       1.12238639       0.31450126
O       -0.40586486       1.77112694      -0.69158136
H       -0.21662289      -0.63497182      -1.71885055
H       -1.91040673      -0.91720711      -1.54534586
H       -0.73851432      -2.11751489      -0.91956824
H       -1.81091982      -0.69821185       0.93860146
H        0.19336700      -0.11951284       2.14816791
H        1.92742651      -1.07811867      -0.03398898
H        1.80450386       0.96608069      -0.73038055
H        2.37203717       0.22147791       1.09312380
H       -1.23349458       1.66610529       1.18946583
H        0.96104982       1.65654620      -0.88702178
16
Frame=9 idx=002771 GeodesicLength=0.8655927666162366 rxn_smarts="[C:1]([C@@:2]1([H:10])[C@:3]([C:4]([H:12])([H:13])[H:14])([H:11])[C@:5]1([O:6][H:16])[H:15])([H:7])([H:8])[H:9]>>[C:1]([C@@:2]([C:3](=[C:4]([H:12])[H:14])[H:11])([C:5](=[O:6])[H:15])[H:10])([H:7])([H:8])[H:9].[H:13][H:16]"
C       -0.95023145      -1.04226862      -1.04122997
C       -0.98886679      -0.36837890       0.30739031
C        0.29272313      -0.21237992       1.07661308
C        1.56914334      -0.21368718       0.50688394
C       -0.86166021       1.12289838       0.32912334
O       -0.41770406       1.77914587      -0.67944513
H       -0.21283334      -0.61908281      -1.72080813
H       -1.90392013      -0.89620674      -1.55136481
H       -0.73330517      -2.10595713      -0.93282058
H       -1.81200436      -0.70420541       0.93622154
H        0.19038581      -0.13613968       2.15288286
H        1.95261882      -1.11359049       0.03553256
H        1.80542784       0.92989905      -0.78737364
H        2.36336998       0.25700858       1.08076996
H       -1.23930633       1.66073278       1.20648954
H        0.94616290       1.66221221      -0.91886488
16
Frame=10 idx=002771 GeodesicLength=0.9607643924093927 rxn_smarts="[C:1]([C@@:2]1([H:10])[C@:3]([C:4]([H:12])([H:13])[H:14])([H:11])[C@:5]1([O:6][H:16])[H:15])([H:7])([H:8])[H:9]>>[C:1]([C@@:2]([C:3](=[C:4]([H:12])[H:14])[H:11])([C:5](=[O:6])[H:15])[H:10])([H:7])([H:8])[H:9].[H:13][H:16]"
C       -0.94607383      -1.03004726      -1.04519074
C       -0.98868740      -0.36873792       0.30932507
C        0.29224872      -0.21524733       1.08028678
C        1.57176244      -0.22247798       0.51163776
C       -0.86410481       1.12329416       0.34352506
O       -0.42877197       1.78690644      -0.66732381
H       -0.20947140      -0.60301040      -1.72300680
H       -1.89763813      -0.87571795      -1.55693259
H       -0.72732158      -2.09421390      -0.94597624
H       -1.81312096      -0.70995695       0.93363682
H        0.18747838      -0.15271444       2.15735480
H        1.97746710      -1.14527729       0.10716826
H        1.80614524       0.89270818      -0.84301550
H        2.35420146       0.29024057       1.06586712
H       -1.24484923       1.65530732       1.22316795
H        0.93073596       1.66894477      -0.95052395
16
Frame=11 idx=002771 GeodesicLength=1.05593551847159 rxn_smarts="[C:1]([C@@:2]1([H:10])[C@:3]([C:4]([H:12])([H:13])[H:14])([H:11])[C@:5]1([O:6][H:16])[H:15])([H:7])([H:8])[H:9]>>[C:1]([C@@:2]([C:3](=[C:4]([H:12])[H:14])[H:11])([C:5](=[O:6])[H:15])[H:10])([H:7])([H:8])[H:9].[H:13][H:16]"
C       -0.94191183      -1.01785915      -1.04912055
C       -0.98845437      -0.36909303       0.31112163
C        0.29180050      -0.21834745       1.08391956
C        1.57436910      -0.23231197       0.51622266
C       -0.86621568       1.12355581       0.35774579
O       -0.43917379       1.79442282      -0.65520700
H       -0.20650282      -0.58672742      -1.72542336
H       -1.89154992      -0.85567196      -1.56209046
H       -0.72061282      -2.08227235      -0.95906346
H       -1.81424733      -0.71550476       0.93085216
H        0.18460307      -0.16926558       2.16160052
H        2.00199117      -1.17315161       0.18095373
H        1.80678134       0.85422268      -0.89768142
H        2.34455345       0.32117147       1.04849530
H       -1.25016525       1.64978560       1.23954070
H        0.91473519       1.67704689      -0.98186580
16
Frame=12 idx=002771 GeodesicLength=1.151040780906558 rxn_smarts="[C:1]([C@@:2]1([H:10])[C@:3]([C:4]([H:12])([H:13])[H:14])([H:11])[C@:5]1([O:6][H:16])[H:15])([H:7])([H:8])[H:9]>>[C:1]([C@@:2]([C:3](=[C:4]([H:12])[H:14])[H:11])([C:5](=[O:6])[H:15])[H:10])([H:7])([H:8])[H:9].[H:13][H:16]"
C       -0.93773738      -1.00568196      -1.05303313
C       -0.98816087      -0.36945854       0.31278345
C        0.29137237      -0.22170109       1.08752434
C        1.57697215      -0.24325580       0.52072247
C       -0.86798913       1.12366671       0.37183239
O       -0.44897534       1.80170687      -0.64306730
H       -0.20388190      -0.57021124      -1.72802897
H       -1.88563534      -0.83599669      -1.56688228
H       -0.71323261      -2.07012031      -0.97210933
H       -1.81538420      -0.72087833       0.92786100
H        0.18170892      -0.18583574       2.16564110
H        2.02624084      -1.19702389       0.25692234
H        1.80741863       0.81413473      -0.95168873
H        2.33442636       0.34976446       1.02865792
H       -1.25527931       1.64413365       1.25565758
H        0.89813681       1.68675719      -1.01279286
16
Frame=13 idx=002771 GeodesicLength=1.2462939303528955 rxn_smarts="[C:1]([C@@:2]1([H:10])[C@:3]([C:4]([H:12])([H:13])[H:14])([H:11])[C@:5]1([O:6][H:16])[H:15])([H:7])([H:8])[H:9]>>[C:1]([C@@:2]([C:3](=[C:4]([H:12])[H:14])[H:11])([C:5](=[O:6])[H:15])[H:10])([H:7])([H:8])[H:9].[H:13][H:16]"
C       -0.93352721      -0.99349709      -1.05695596
C       -0.98777297      -0.36984950       0.31430598
C        0.29100330      -0.22534328       1.09111562
C        1.57962810      -0.25530503       0.52525431
C       -0.86939212       1.12363644       0.38585463
O       -0.45827078       1.80877879      -0.63087854
H       -0.20155137      -0.55342273      -1.73079729
H       -1.87983779      -0.81661579      -1.57137466
H       -0.70524272      -2.05774788      -0.98517004
H       -1.81652547      -0.72612575       0.92463289
H        0.17877827      -0.20249904       2.16949854
H        2.05017812      -1.21681265       0.33509470
H        1.80813675       0.77188407      -1.00546359
H        2.32375655       0.37614082       1.00643726
H       -1.26019125       1.63834603       1.27159647
H        0.88083059       1.69843260      -1.04315033
16
Frame=14 idx=002771 GeodesicLength=1.3414373211439532 rxn_smarts="[C:1]([C@@:2]1([H:10])[C@:3]([C:4]([H:12])([H:13])[H:14])([H:11])[C@:5]1([O:6][H:16])[H:15])([H:7])([H:8])[H:9]>>[C:1]([C@@:2]([C:3](=[C:4]([H:12])[H:14])[H:11])([C:5](=[O:6])[H:15])[H:10])([H:7])([H:8])[H:9].[H:13][H:16]"
C       -0.92927479      -0.98126178      -1.06089916
C       -0.98731281      -0.37027417       0.31569927
C        0.29064174      -0.22930945       1.09473046
C        1.58228791      -0.26859489       0.52989165
C       -0.87043677       1.12343026       0.39986292
O       -0.46707662       1.81565904      -0.61855999
H       -0.19947772      -0.53631870      -1.73369880
H       -1.87416011      -0.79745080      -1.57559375
H       -0.69665600      -2.04512039      -0.99827500
H       -1.81769158      -0.73125076       0.92115491
H        0.17572072      -0.21931026       2.17321016
H        2.07393903      -1.23201827       0.41549259
H        1.80901178       0.72715820      -1.05910956
H        2.31257008       0.40013017       0.98167337
H       -1.26493014       1.63235268       1.28740524
H        0.86284528       1.71217911      -1.07298431
16
Frame=15 idx=002771 GeodesicLength=1.4363756664676401 rxn_smarts="[C:1]([C@@:2]1([H:10])[C@:3]([C:4]([H:12])([H:13])[H:14])([H:11])[C@:5]1([O:6][H:16])[H:15])([H:7])([H:8])[H:9]>>[C:1]([C@@:2]([C:3](=[C:4]([H:12])[H:14])[H:11])([C:5](=[O:6])[H:15])[H:10])([H:7])([H:8])[H:9].[H:13][H:16]"
C       -0.92493415      -0.96893195      -1.06486836
C       -0.98676063      -0.37074332       0.31697182
C        0.29027802      -0.23363849       1.09840800
C        1.58496518      -0.28315943       0.53477567
C       -0.87109938       1.12302463       0.41391962
O       -0.47542300       1.82236277      -0.60604378
H       -0.19758470      -0.51884772      -1.73668854
H       -1.86852928      -0.77841230      -1.57957629
H       -0.68748924      -2.03219024      -1.01145858
H       -1.81887935      -0.73627968       0.91740588
H        0.17246006      -0.23634111       2.17681261
H        2.09747045      -1.24231504       0.49797686
H        1.81007697       0.67943108      -1.11285494
H        2.30080763       0.42174728       0.95432172
H       -1.26950805       1.62609811       1.30314425
H        0.84414948       1.72819542      -1.10224593
16
Frame=16 idx=002771 GeodesicLength=1.531099440042882 rxn_smarts="[C:1]([C@@:2]1([H:10])[C@:3]([C:4]([H:12])([H:13])[H:14])([H:11])[C@:5]1([O:6][H:16])[H:15])([H:7])([H:8])[H:9]>>[C:1]([C@@:2]([C:3](=[C:4]([H:12])[H:14])[H:11])([C:5](=[O:6])[H:15])[H:10])([H:7])([H:8])[H:9].[H:13][H:16]"
C       -0.92046086      -0.95645427      -1.06888761
C       -0.98610156      -0.37126410       0.31812851
C        0.28990401      -0.23838963       1.10220251
C        1.58766399      -0.29904871       0.54006443
C       -0.87134820       1.12241051       0.42811518
O       -0.48333165       1.82892357      -0.59322974
H       -0.19579946      -0.50092829      -1.73973088
H       -1.86287574      -0.75939742      -1.58337749
H       -0.67774917      -2.01891132      -1.02479095
H       -1.82010109      -0.74123751       0.91334127
H        0.16892784      -0.25369970       2.18035875
H        2.12078612      -1.24724116       0.58248281
H        1.81138636       0.62805180      -1.16687542
H        2.28837607       0.44096069       0.92424750
H       -1.27392658       1.61953714       1.31890781
H        0.82464992       1.74668840      -1.13095668
