14
Frame=0 idx=002156 GeodesicLength=0.0 rxn_smarts="[C:1]([C:2]([C:3]([O:4][C:5](=[O:6])[H:14])([H:12])[H:13])([H:10])[H:11])([H:7])([H:8])[H:9]>>[C-:5]#[O+:6].[C:1]([C:2]([C:3]([O:4][H:14])([H:12])[H:13])([H:10])[H:11])([H:7])([H:8])[H:9]"
C       -2.03305114       0.01021301      -0.11751250
C       -0.67104719       0.47688093       0.37805157
C        0.44878485       0.11837496      -0.58524853
O        1.69089337       0.60056441      -0.12483041
C        2.79682984      -0.65287409       0.59700641
O        2.40245528      -1.41884240       1.34645852
H       -2.05769602      -1.07412286      -0.25291101
H       -2.82045318       0.27112180       0.59095670
H       -2.28579125       0.46931147      -1.07650955
H       -0.44850633       0.03171589       1.35178673
H       -0.66806603       1.56070940       0.52130420
H        0.47840491      -0.97698597      -0.71237959
H        0.24701654       0.54803940      -1.57399504
H        2.92022633       0.03589405      -0.34217744
14
Frame=1 idx=002156 GeodesicLength=0.10209999295318213 rxn_smarts="[C:1]([C:2]([C:3]([O:4][C:5](=[O:6])[H:14])([H:12])[H:13])([H:10])[H:11])([H:7])([H:8])[H:9]>>[C-:5]#[O+:6].[C:1]([C:2]([C:3]([O:4][H:14])([H:12])[H:13])([H:10])[H:11])([H:7])([H:8])[H:9]"
C       -2.04957712       0.02109760      -0.12936105
C       -0.69346421       0.49078344       0.37948723
C        0.44155386       0.09817312      -0.55184490
O        1.67600883       0.58519823      -0.07655376
C        2.83847103      -0.67606544       0.55072961
O        2.51226652      -1.49999644       1.27202064
H       -2.08055782      -1.06635986      -0.23519060
H       -2.84817554       0.30741566       0.55636030
H       -2.27994405       0.45507643      -1.10553309
H       -0.49291396       0.07010651       1.36876512
H       -0.68528804       1.57802177       0.49392694
H        0.46009292      -0.99933624      -0.65572100
H        0.26269411       0.50505470      -1.55465704
H        2.93883347       0.13083051      -0.31242841
14
Frame=2 idx=002156 GeodesicLength=0.19811381908421005 rxn_smarts="[C:1]([C:2]([C:3]([O:4][C:5](=[O:6])[H:14])([H:12])[H:13])([H:10])[H:11])([H:7])([H:8])[H:9]>>[C-:5]#[O+:6].[C:1]([C:2]([C:3]([O:4][H:14])([H:12])[H:13])([H:10])[H:11])([H:7])([H:8])[H:9]"
C       -2.06577415       0.03321185      -0.14216900
C       -0.71536680       0.50396277       0.38076371
C        0.43376314       0.07523209      -0.51631754
O        1.66102961       0.56634113      -0.02699592
C        2.88014718      -0.69635954       0.49786002
O        2.62714700      -1.57334627       1.18624186
H       -2.10534946      -1.05634569      -0.21948100
H       -2.87480221       0.34512276       0.51969966
H       -2.27247836       0.44257915      -1.13412483
H       -0.53835261       0.10844638       1.38477464
H       -0.69930641       1.59378040       0.46594165
H        0.44074508      -1.02407017      -0.59340090
H        0.27875389       0.45699487      -1.53293402
H        2.94984410       0.22445026      -0.26985834
14
Frame=3 idx=002156 GeodesicLength=0.2858885045143982 rxn_smarts="[C:1]([C:2]([C:3]([O:4][C:5](=[O:6])[H:14])([H:12])[H:13])([H:10])[H:11])([H:7])([H:8])[H:9]>>[C-:5]#[O+:6].[C:1]([C:2]([C:3]([O:4][H:14])([H:12])[H:13])([H:10])[H:11])([H:7])([H:8])[H:9]"
C       -2.08032062       0.04495145      -0.15434584
C       -0.73517252       0.51693819       0.38100425
C        0.42593449       0.05134886      -0.48119851
O        1.64693825       0.54583191       0.02039534
C        2.91836641      -0.71221459       0.44273829
O        2.73708359      -1.63974038       1.08753293
H       -2.12967122      -1.04589231      -0.20249151
H       -2.89833033       0.38271788       0.48330805
H       -2.26400852       0.42850296      -1.16105312
H       -0.58108078       0.14801718       1.39883382
H       -0.70974011       1.60852964       0.43597177
H        0.42081013      -1.04913047      -0.52972619
H        0.29433815       0.40653897      -1.51074665
H        2.95485308       0.31360071      -0.21022263
14
Frame=4 idx=002156 GeodesicLength=0.3643874116251043 rxn_smarts="[C:1]([C:2]([C:3]([O:4][C:5](=[O:6])[H:14])([H:12])[H:13])([H:10])[H:11])([H:7])([H:8])[H:9]>>[C-:5]#[O+:6].[C:1]([C:2]([C:3]([O:4][H:14])([H:12])[H:13])([H:10])[H:11])([H:7])([H:8])[H:9]"
C       -2.09223652       0.05480263      -0.16447414
C       -0.75165316       0.53003432       0.37942065
C        0.41872440       0.02863807      -0.44903156
O        1.63466498       0.52620810       0.06200414
C        2.95050898      -0.72298805       0.39013589
O        2.83340634      -1.69899495       0.97705613
H       -2.15126777      -1.03645974      -0.18185654
H       -2.91736945       0.41810082       0.44947321
H       -2.25545754       0.41029402      -1.18488449
H       -0.61777823       0.18934382       1.40984038
H       -0.71681626       1.62245685       0.40318767
H        0.40124591      -1.07210548      -0.46916727
H        0.30870219       0.35684446      -1.49001518
H        2.95532615       0.39382512      -0.13168889
14
Frame=5 idx=002156 GeodesicLength=0.43944195048032597 rxn_smarts="[C:1]([C:2]([C:3]([O:4][C:5](=[O:6])[H:14])([H:12])[H:13])([H:10])[H:11])([H:7])([H:8])[H:9]>>[C-:5]#[O+:6].[C:1]([C:2]([C:3]([O:4][H:14])([H:12])[H:13])([H:10])[H:11])([H:7])([H:8])[H:9]"
C       -2.10328472       0.06532807      -0.17511262
C       -0.76692043       0.54254270       0.37738651
C        0.41116999       0.00412163      -0.41560625
O        1.62260966       0.50547617       0.10290297
C        2.98155371      -0.72819941       0.33357624
O        2.93012808      -1.74692150       0.85543853
H       -2.17360534      -1.02531526      -0.16261746
H       -2.93453757       0.45418029       0.41438954
H       -2.24573322       0.39300308      -1.20786752
H       -0.65372722       0.23104053       1.41943594
H       -0.72068777       1.63475234       0.36957475
H        0.38176199      -1.09602756      -0.40364610
H        0.32240284       0.30248411      -1.46755398
H        2.94887002       0.46353481      -0.04030056
14
Frame=6 idx=002156 GeodesicLength=0.5088625133192977 rxn_smarts="[C:1]([C:2]([C:3]([O:4][C:5](=[O:6])[H:14])([H:12])[H:13])([H:10])[H:11])([H:7])([H:8])[H:9]>>[C-:5]#[O+:6].[C:1]([C:2]([C:3]([O:4][H:14])([H:12])[H:13])([H:10])[H:11])([H:7])([H:8])[H:9]"
C       -2.11203150       0.07394772      -0.18395279
C       -0.77919891       0.55516358       0.37361504
C        0.40432848      -0.01863070      -0.38512938
O        1.61238485       0.48743471       0.13749002
C        3.00760614      -0.72819490       0.28027267
O        3.01381907      -1.78499889       0.72537875
H       -2.19310628      -1.01514621      -0.14049871
H       -2.94789568       0.48756135       0.38165310
H       -2.23634074       0.37203396      -1.22795077
H       -0.68384387       0.27410721       1.42603569
H       -0.72204837       1.64613274       0.33362554
H        0.36348349      -1.11716120      -0.34090199
H        0.33450440       0.24920709      -1.44668998
H        2.93833893       0.51854354       0.06705280
14
Frame=7 idx=002156 GeodesicLength=0.5763442890460808 rxn_smarts="[C:1]([C:2]([C:3]([O:4][C:5](=[O:6])[H:14])([H:12])[H:13])([H:10])[H:11])([H:7])([H:8])[H:9]>>[C-:5]#[O+:6].[C:1]([C:2]([C:3]([O:4][H:14])([H:12])[H:13])([H:10])[H:11])([H:7])([H:8])[H:9]"
C       -2.11972433       0.08275920      -0.19311561
C       -0.79019357       0.56768296       0.36909857
C        0.39742164      -0.04235682      -0.35338490
O        1.60258240       0.47016036       0.17068592
C        3.03228479      -0.72170838       0.22590775
O        3.09568057      -1.81056925       0.58313686
H       -2.21244936      -1.00371089      -0.11885181
H       -2.95936568       0.52106674       0.34768915
H       -2.22599424       0.35078415      -1.24721220
H       -0.71272287       0.31879348       1.43101751
H       -0.72090079       1.65620072       0.29590839
H        0.34610572      -1.13796494      -0.27286689
H        0.34568442       0.19138877      -1.42400327
H        2.92159131       0.55747391       0.18599054
14
Frame=8 idx=002156 GeodesicLength=0.6398294641397744 rxn_smarts="[C:1]([C:2]([C:3]([O:4][C:5](=[O:6])[H:14])([H:12])[H:13])([H:10])[H:11])([H:7])([H:8])[H:9]>>[C-:5]#[O+:6].[C:1]([C:2]([C:3]([O:4][H:14])([H:12])[H:13])([H:10])[H:11])([H:7])([H:8])[H:9]"
C       -2.12515939       0.08941203      -0.20051252
C       -0.79836939       0.58054427       0.36278477
C        0.39167916      -0.06338231      -0.32461288
O        1.59495610       0.45784200       0.19660022
C        3.05289180      -0.71039200       0.17647615
O        3.16356149      -1.82406143       0.43526066
H       -2.22831063      -0.99345717      -0.09453249
H       -2.96748874       0.55108018       0.31607124
H       -2.21620527       0.32580490      -1.26357370
H       -0.73572956       0.36492061       1.43290101
H       -0.71818165       1.66548684       0.25585750
H        0.33095521      -1.15476989      -0.20741942
H        0.35522846       0.13509235      -1.40296140
H        2.90017242       0.57587961       0.31766086
14
Frame=9 idx=002156 GeodesicLength=0.7013637845808961 rxn_smarts="[C:1]([C:2]([C:3]([O:4][C:5](=[O:6])[H:14])([H:12])[H:13])([H:10])[H:11])([H:7])([H:8])[H:9]>>[C-:5]#[O+:6].[C:1]([C:2]([C:3]([O:4][H:14])([H:12])[H:13])([H:10])[H:11])([H:7])([H:8])[H:9]"
C       -2.12894286       0.09481950      -0.20701994
C       -0.80457878       0.59379330       0.35515236
C        0.38687512      -0.08243457      -0.29698542
O        1.58900668       0.44989433       0.21765691
C        3.07128731      -0.69432676       0.13042983
O        3.22327914      -1.82382206       0.28245834
H       -2.24170672      -0.98345805      -0.06897003
H       -2.97331242       0.57864650       0.28534324
H       -2.20649985       0.29863377      -1.27788273
H       -0.75495719       0.41263322       1.43229219
H       -0.71422685       1.67398310       0.21386227
H        0.31813409      -1.16818000      -0.14156978
H        0.36360843       0.07871432      -1.38192203
H        2.87203390       0.57110341       0.45715479
14
Frame=10 idx=002156 GeodesicLength=0.7624205020698362 rxn_smarts="[C:1]([C:2]([C:3]([O:4][C:5](=[O:6])[H:14])([H:12])[H:13])([H:10])[H:11])([H:7])([H:8])[H:9]>>[C-:5]#[O+:6].[C:1]([C:2]([C:3]([O:4][H:14])([H:12])[H:13])([H:10])[H:11])([H:7])([H:8])[H:9]"
C       -2.13167742       0.10015990      -0.21326262
C       -0.80938064       0.60701881       0.34674532
C        0.38245130      -0.10060864      -0.26936790
O        1.58397345       0.44476573       0.23562581
C        3.08830399      -0.67354477       0.08675132
O        3.28156176      -1.80724619       0.12799835
H       -2.25395010      -0.97254249      -0.04361862
H       -2.97744140       0.60532068       0.25466670
H       -2.19652374       0.27145747      -1.29066651
H       -0.77198550       0.46116987       1.42969057
H       -0.70880742       1.68123006       0.17099082
H        0.30752224      -1.17900808      -0.07365323
H        0.37090700       0.02085892      -1.35965388
H        2.83504648       0.54096873       0.59775390
14
Frame=11 idx=002156 GeodesicLength=0.8223279069341392 rxn_smarts="[C:1]([C:2]([C:3]([O:4][C:5](=[O:6])[H:14])([H:12])[H:13])([H:10])[H:11])([H:7])([H:8])[H:9]>>[C-:5]#[O+:6].[C:1]([C:2]([C:3]([O:4][H:14])([H:12])[H:13])([H:10])[H:11])([H:7])([H:8])[H:9]"
C       -2.13201687       0.10336579      -0.21949246
C       -0.81293832       0.62095489       0.33824461
C        0.38004564      -0.11513754      -0.23984454
O        1.58068785       0.44366830       0.25619710
C        3.10357339      -0.64989536       0.04713233
O        3.32594058      -1.77760032      -0.02788409
H       -2.26280200      -0.96252995      -0.01681045
H       -2.97985130       0.62853993       0.22176253
H       -2.18392172       0.23980516      -1.30258342
H       -0.78778319       0.51138533       1.42577936
H       -0.70331415       1.68790407       0.12744641
H        0.29898483      -1.18484104      -0.00493307
H        0.38037652      -0.03324446      -1.33390467
H        2.79301874       0.48762519       0.72889036
14
Frame=12 idx=002156 GeodesicLength=0.8832038051755278 rxn_smarts="[C:1]([C:2]([C:3]([O:4][C:5](=[O:6])[H:14])([H:12])[H:13])([H:10])[H:11])([H:7])([H:8])[H:9]>>[C-:5]#[O+:6].[C:1]([C:2]([C:3]([O:4][H:14])([H:12])[H:13])([H:10])[H:11])([H:7])([H:8])[H:9]"
C       -2.13184940       0.10696378      -0.22564563
C       -0.81568841       0.63374308       0.33032765
C        0.37759991      -0.12879815      -0.21025926
O        1.57753719       0.44239341       0.27781930
C        3.11713965      -0.62427347       0.00983320
O        3.37051425      -1.73432724      -0.17123457
H       -2.27183790      -0.95127507       0.00838727
H       -2.98108703       0.65126617       0.18886593
H       -2.17079902       0.20989287      -1.31299296
H       -0.80268271       0.55897484       1.42098014
H       -0.69649768       1.69261995       0.08667401
H        0.29121603      -1.18884887       0.06179782
H        0.38961740      -0.08501357      -1.30644596
H        2.74681771       0.41668227       0.84189306
14
Frame=13 idx=002156 GeodesicLength=0.944407390497081 rxn_smarts="[C:1]([C:2]([C:3]([O:4][C:5](=[O:6])[H:14])([H:12])[H:13])([H:10])[H:11])([H:7])([H:8])[H:9]>>[C-:5]#[O+:6].[C:1]([C:2]([C:3]([O:4][H:14])([H:12])[H:13])([H:10])[H:11])([H:7])([H:8])[H:9]"
C       -2.13025348       0.10971578      -0.23259581
C       -0.81786549       0.64565690       0.32357634
C        0.37603680      -0.14093441      -0.17827212
O        1.57480698       0.44068789       0.30562359
C        3.12890378      -0.59754124      -0.02513244
O        3.40388058      -1.68239837      -0.30658499
H       -2.27998895      -0.93992655       0.03199025
H       -2.98116597       0.67200708       0.15339732
H       -2.15491737       0.17905716      -1.32303637
H       -0.81823793       0.60459482       1.41605240
H       -0.68877158       1.69566128       0.04865362
H        0.28336073      -1.19072272       0.12795115
H        0.40099687      -0.13292831      -1.27509889
H        2.70321505       0.33707068       0.93347594
14
Frame=14 idx=002156 GeodesicLength=1.0062653258210448 rxn_smarts="[C:1]([C:2]([C:3]([O:4][C:5](=[O:6])[H:14])([H:12])[H:13])([H:10])[H:11])([H:7])([H:8])[H:9]>>[C-:5]#[O+:6].[C:1]([C:2]([C:3]([O:4][H:14])([H:12])[H:13])([H:10])[H:11])([H:7])([H:8])[H:9]"
C       -2.12865835       0.11318072      -0.23951922
C       -0.81951984       0.65577402       0.31785351
C        0.37369602      -0.15339793      -0.14661466
O        1.57152618       0.43642304       0.33526357
C        3.13841021      -0.56991182      -0.05916429
O        3.43809809      -1.62342734      -0.42591770
H       -2.28967446      -0.92713957       0.05358458
H       -2.98015417       0.69308039       0.11801797
H       -2.13888703       0.15061459      -1.33176282
H       -0.83325460       0.64606219       1.41092309
H       -0.67937069       1.69650581       0.01457945
H        0.27434511      -1.19267931       0.19049986
H        0.41163336      -0.17835535      -1.24281136
H        2.66181017       0.25327057       1.00506801
14
Frame=15 idx=002156 GeodesicLength=1.0683471420731037 rxn_smarts="[C:1]([C:2]([C:3]([O:4][C:5](=[O:6])[H:14])([H:12])[H:13])([H:10])[H:11])([H:7])([H:8])[H:9]>>[C-:5]#[O+:6].[C:1]([C:2]([C:3]([O:4][H:14])([H:12])[H:13])([H:10])[H:11])([H:7])([H:8])[H:9]"
C       -2.12599771       0.11648703      -0.24747532
C       -0.82054578       0.66460441       0.31317846
C        0.37146964      -0.16618861      -0.11271015
O        1.56817966       0.43013890       0.36978994
C        3.14589488      -0.54073391      -0.09246175
O        3.46285210      -1.55909863      -0.53882312
H       -2.29964409      -0.91373609       0.07271755
H       -2.97770524       0.71342250       0.08018315
H       -2.12052759       0.12254204      -1.34039184
H       -0.84889283       0.68523991       1.40576171
H       -0.66810362       1.69541117      -0.01685967
H        0.26407688      -1.19437508       0.25355978
H        0.42318000      -0.22281511      -1.20716591
H        2.62576369       0.16910145       1.06069716
14
Frame=16 idx=002156 GeodesicLength=1.1307118736953543 rxn_smarts="[C:1]([C:2]([C:3]([O:4][C:5](=[O:6])[H:14])([H:12])[H:13])([H:10])[H:11])([H:7])([H:8])[H:9]>>[C-:5]#[O+:6].[C:1]([C:2]([C:3]([O:4][H:14])([H:12])[H:13])([H:10])[H:11])([H:7])([H:8])[H:9]"
C       -2.12315074       0.12020442      -0.25523597
C       -0.82081281       0.67215073       0.30894002
C        0.36854095      -0.17956604      -0.07929717
O        1.56449239       0.42147820       0.40520771
C        3.15104578      -0.51026014      -0.12494185
O        3.48710016      -1.49028835      -0.64054295
H       -2.31074323      -0.89909813       0.09089448
H       -2.97382937       0.73401718       0.04245824
H       -2.10227699       0.09554617      -1.34771851
H       -0.86336722       0.72185344       1.40007319
H       -0.65504205       1.69254466      -0.04608626
H        0.25225076      -1.19642052       0.31385042
H        0.43380927      -0.26599107      -1.17107407
H        2.59198310       0.08382944       1.10347273
