8
Frame=0 idx=001959 GeodesicLength=0.0 rxn_smarts="[N:1](=[C:2](/[O:3][C:4](=[O:5])[H:8])[H:7])\[H:6]>>[N:1](=[C:2](/[O+:3]=[C-:4][O:5][H:8])[H:7])\[H:6]"
N       -1.79285635      -0.84709659       0.51055120
C       -0.79378386      -0.17620779       0.18325640
O        0.35277528      -0.88072091      -0.15598250
C        1.47539695      -0.23201094      -0.41594636
O        1.52375976       1.04506261      -0.31232118
H       -2.57315279      -0.23335249       0.72356923
H       -0.69591315       0.90382933       0.11450138
H        2.50377416       0.42049679      -0.64762820
8
Frame=1 idx=001959 GeodesicLength=0.026856471266094133 rxn_smarts="[N:1](=[C:2](/[O:3][C:4](=[O:5])[H:8])[H:7])\[H:6]>>[N:1](=[C:2](/[O+:3]=[C-:4][O:5][H:8])[H:7])\[H:6]"
N       -1.79194724      -0.84751076       0.51455123
C       -0.79308120      -0.17571428       0.18819955
O        0.35516718      -0.87911523      -0.14637165
C        1.46345637      -0.22748590      -0.45795165
O        1.52314598       1.04312410      -0.31104001
H       -2.57258995      -0.23449363       0.72836607
H       -0.70255641       0.90401468       0.10446272
H        2.51840528       0.41718101      -0.62021627
8
Frame=2 idx=001959 GeodesicLength=0.056255909656791184 rxn_smarts="[N:1](=[C:2](/[O:3][C:4](=[O:5])[H:8])[H:7])\[H:6]>>[N:1](=[C:2](/[O+:3]=[C-:4][O:5][H:8])[H:7])\[H:6]"
N       -1.79012445      -0.84838005       0.51875245
C       -0.79023048      -0.17450703       0.19960444
O        0.35718829      -0.87583696      -0.14084954
C        1.45175843      -0.22180705      -0.49592182
O        1.52119323       1.04279720      -0.31897807
H       -2.57356663      -0.23707036       0.72710538
H       -0.70792427       0.90475462       0.10102648
H        2.53170587       0.41004963      -0.59073932
8
Frame=3 idx=001959 GeodesicLength=0.08296725553674292 rxn_smarts="[N:1](=[C:2](/[O:3][C:4](=[O:5])[H:8])[H:7])\[H:6]>>[N:1](=[C:2](/[O+:3]=[C-:4][O:5][H:8])[H:7])\[H:6]"
N       -1.78698952      -0.84901818       0.52574403
C       -0.78791322      -0.17318330       0.20787221
O        0.35870995      -0.87229042      -0.13859819
C        1.44209416      -0.21633426      -0.52576536
O        1.52052143       1.04210675      -0.32284243
H       -2.57442333      -0.23970754       0.72465200
H       -0.71320569       0.90553643       0.09669569
H        2.54120622       0.40289052      -0.56775794
8
Frame=4 idx=001959 GeodesicLength=0.10910775091827637 rxn_smarts="[N:1](=[C:2](/[O:3][C:4](=[O:5])[H:8])[H:7])\[H:6]>>[N:1](=[C:2](/[O+:3]=[C-:4][O:5][H:8])[H:7])\[H:6]"
N       -1.78290750      -0.84948191       0.53467595
C       -0.78620902      -0.17175923       0.21307629
O        0.35952640      -0.86858609      -0.13973095
C        1.43351666      -0.21073572      -0.55171739
O        1.52018090       1.04134245      -0.32524827
H       -2.57446158      -0.24243575       0.72380122
H       -0.71886937       0.90634348       0.09053192
H        2.54922352       0.39531278      -0.54538877
8
Frame=5 idx=001959 GeodesicLength=0.13506911569361746 rxn_smarts="[N:1](=[C:2](/[O:3][C:4](=[O:5])[H:8])[H:7])\[H:6]>>[N:1](=[C:2](/[O+:3]=[C-:4][O:5][H:8])[H:7])\[H:6]"
N       -1.77813030      -0.84977253       0.54487577
C       -0.78497715      -0.17023377       0.21590493
O        0.35975956      -0.86475271      -0.14353124
C        1.42582650      -0.20501887      -0.57492656
O        1.52004078       1.04047486      -0.32653433
H       -2.57376501      -0.24526155       0.72470307
H       -0.72496013       0.90716859       0.08260062
H        2.55620574       0.38739599      -0.52309226
8
Frame=6 idx=001959 GeodesicLength=0.16136919738838312 rxn_smarts="[N:1](=[C:2](/[O:3][C:4](=[O:5])[H:8])[H:7])\[H:6]>>[N:1](=[C:2](/[O+:3]=[C-:4][O:5][H:8])[H:7])\[H:6]"
N       -1.77255060      -0.84985584       0.55645125
C       -0.78441853      -0.16867317       0.21554305
O        0.35928987      -0.86088391      -0.15054000
C        1.41890226      -0.19904251      -0.59635984
O        1.51992152       1.03954217      -0.32673992
H       -2.57190068      -0.24807794       0.72886418
H       -0.73172613       0.90796300       0.07186320
H        2.56248230       0.37902819      -0.49908191
8
Frame=7 idx=001959 GeodesicLength=0.18719312449514913 rxn_smarts="[N:1](=[C:2](/[O:3][C:4](=[O:5])[H:8])[H:7])\[H:6]>>[N:1](=[C:2](/[O+:3]=[C-:4][O:5][H:8])[H:7])\[H:6]"
N       -1.76675153      -0.84980143       0.56770325
C       -0.78452162      -0.16719052       0.21234408
O        0.35837423      -0.85711291      -0.15970241
C        1.41296075      -0.19281158      -0.61601404
O        1.51997859       1.03881897      -0.32592352
H       -2.56880073      -0.25067677       0.73714575
H       -0.73921526       0.90851942       0.05831602
H        2.56797558       0.37025481      -0.47386914
8
Frame=8 idx=001959 GeodesicLength=0.2130837325962403 rxn_smarts="[N:1](=[C:2](/[O:3][C:4](=[O:5])[H:8])[H:7])\[H:6]>>[N:1](=[C:2](/[O+:3]=[C-:4][O:5][H:8])[H:7])\[H:6]"
N       -1.75959761      -0.84942621       0.57982924
C       -0.78700537      -0.16622435       0.20044304
O        0.35598430      -0.85341854      -0.17511082
C        1.40848291      -0.18587247      -0.63439009
O        1.51985661       1.03836109      -0.32269637
H       -2.56132450      -0.25221449       0.75683205
H       -0.74912862       0.90831799       0.03675925
H        2.57273229       0.36047698      -0.44166630
8
Frame=9 idx=001959 GeodesicLength=0.23967299321808438 rxn_smarts="[N:1](=[C:2](/[O:3][C:4](=[O:5])[H:8])[H:7])\[H:6]>>[N:1](=[C:2](/[O+:3]=[C-:4][O:5][H:8])[H:7])\[H:6]"
N       -1.75233721      -0.84880497       0.59278797
C       -0.78678301      -0.16466646       0.19739813
O        0.35482735      -0.84955816      -0.18522202
C        1.40302768      -0.17921739      -0.65201240
O        1.51956201       1.03772837      -0.32131179
H       -2.55818854      -0.25499497       0.76262790
H       -0.75636299       0.90871270       0.02388719
H        2.57625469       0.35080090      -0.41815498
8
Frame=10 idx=001959 GeodesicLength=0.2663254560814751 rxn_smarts="[N:1](=[C:2](/[O:3][C:4](=[O:5])[H:8])[H:7])\[H:6]>>[N:1](=[C:2](/[O+:3]=[C-:4][O:5][H:8])[H:7])\[H:6]"
N       -1.74511170      -0.84802885       0.60507041
C       -0.78661990      -0.16301448       0.19424447
O        0.35382966      -0.84554180      -0.19500026
C        1.39796762      -0.17253183      -0.66867386
O        1.51939096       1.03693062      -0.32002145
H       -2.55496578      -0.25793970       0.76850890
H       -0.76367841       0.90910432       0.01135630
H        2.57918754       0.34102173      -0.39548452
8
Frame=11 idx=001959 GeodesicLength=0.2928705367417868 rxn_smarts="[N:1](=[C:2](/[O:3][C:4](=[O:5])[H:8])[H:7])\[H:6]>>[N:1](=[C:2](/[O+:3]=[C-:4][O:5][H:8])[H:7])\[H:6]"
N       -1.73773577      -0.84705615       0.61757025
C       -0.78618763      -0.16121109       0.19215404
O        0.35292141      -0.84139367      -0.20404680
C        1.39307273      -0.16572721      -0.68464027
O        1.51946595       1.03623448      -0.31889909
H       -2.55240225      -0.26132305       0.77233527
H       -0.77075610       0.90954233       0.00006054
H        2.58162166       0.33093437      -0.37453394
8
Frame=12 idx=001959 GeodesicLength=0.3194925358838349 rxn_smarts="[N:1](=[C:2](/[O:3][C:4](=[O:5])[H:8])[H:7])\[H:6]>>[N:1](=[C:2](/[O+:3]=[C-:4][O:5][H:8])[H:7])\[H:6]"
N       -1.72994719      -0.84580250       0.63049500
C       -0.78582090      -0.15933605       0.18973671
O        0.35190486      -0.83716729      -0.21337711
C        1.38840880      -0.15873295      -0.69997837
O        1.51962629       1.03558172      -0.31749618
H       -2.54980977      -0.26497975       0.77594105
H       -0.77792207       0.90996610      -0.01132510
H        2.58355998       0.32047072      -0.35399600
8
Frame=13 idx=001959 GeodesicLength=0.34629417928435535 rxn_smarts="[N:1](=[C:2](/[O:3][C:4](=[O:5])[H:8])[H:7])\[H:6]>>[N:1](=[C:2](/[O+:3]=[C-:4][O:5][H:8])[H:7])\[H:6]"
N       -1.72165614      -0.84424145       0.64372333
C       -0.78573819      -0.15747065       0.18619252
O        0.35069926      -0.83290530      -0.22351823
C        1.38405833      -0.15152718      -0.71471424
O        1.51975978       1.03492396      -0.31558403
H       -2.54671492      -0.26872495       0.78056776
H       -0.78538194       0.91030108      -0.02356655
H        2.58497382       0.30964448      -0.33310057
8
Frame=14 idx=001959 GeodesicLength=0.37330654387297113 rxn_smarts="[N:1](=[C:2](/[O:3][C:4](=[O:5])[H:8])[H:7])\[H:6]>>[N:1](=[C:2](/[O+:3]=[C-:4][O:5][H:8])[H:7])\[H:6]"
N       -1.71249320      -0.84220257       0.65795264
C       -0.78616079      -0.15566173       0.18088724
O        0.34914550      -0.82861926      -0.23509354
C        1.38010388      -0.14402565      -0.72900176
O        1.51986841       1.03424198      -0.31288772
H       -2.54299374      -0.27262809       0.78652349
H       -0.79327968       0.91056431      -0.03709146
H        2.58580962       0.29833101      -0.31128890
8
Frame=15 idx=001959 GeodesicLength=0.4003115463036661 rxn_smarts="[N:1](=[C:2](/[O:3][C:4](=[O:5])[H:8])[H:7])\[H:6]>>[N:1](=[C:2](/[O+:3]=[C-:4][O:5][H:8])[H:7])\[H:6]"
N       -1.70184177      -0.83928559       0.67418641
C       -0.78699151      -0.15380118       0.17405815
O        0.34714204      -0.82418019      -0.24813416
C        1.37633957      -0.13610745      -0.74296201
O        1.51991912       1.03342836      -0.30921983
H       -2.53889595      -0.27715437       0.79249996
H       -0.80152112       0.91085741      -0.05155869
H        2.58584963       0.28624301      -0.28886984
8
Frame=16 idx=001959 GeodesicLength=0.4275058334800522 rxn_smarts="[N:1](=[C:2](/[O:3][C:4](=[O:5])[H:8])[H:7])\[H:6]>>[N:1](=[C:2](/[O+:3]=[C-:4][O:5][H:8])[H:7])\[H:6]"
N       -1.69088022      -0.83621339       0.68931776
C       -0.78851415      -0.15231706       0.16493140
O        0.34502656      -0.81984652      -0.26232436
C        1.37317042      -0.12799404      -0.75620452
O        1.51964223       1.03259206      -0.30482148
H       -2.53327511      -0.28097888       0.80210242
H       -0.81033284       0.91075561      -0.06791552
H        2.58516310       0.27400222      -0.26508571
