17
Frame=0 idx=010895 GeodesicLength=0.0 rxn_smarts="[C:1]1([H:8])([H:9])[C@@:2]2([H:10])[C:3]([H:11])([H:12])[C@:4]3([H:13])[C:5]([H:14])([H:15])[C@@:6]2([H:16])[C@:7]13[H:17]>>[C:1]1([H:8])([H:9])[C:2]([C:6](=[C:5]([H:14])[H:15])[H:16])([H:10])[C:3]([H:11])([H:12])[C:4]([H:13])=[C:7]1[H:17]"
C        1.40819164      -0.84368498      -0.13798926
C        0.98281047       0.57051545       0.23152907
C        0.05724299       0.91894938      -0.95517597
C       -0.87104063      -0.27575880      -0.71193639
C       -1.40701976       0.13045931       0.90406065
C       -0.08653842       0.54692357       1.32161989
C        0.02967442      -1.35141371      -0.46014769
H        2.10152265      -0.91047651      -0.99438239
H        1.87695463      -1.35585875       0.69900980
H        1.79219768       1.27459951       0.42224976
H        0.58187913       0.86858691      -1.91528017
H       -0.45148440       1.87867951      -0.85783444
H       -1.74711006      -0.44657073      -1.33229126
H       -2.20277063       0.87924044       1.07672074
H       -1.80970183      -0.83694309       1.17442283
H       -0.01148025       1.35087607       2.05068784
H       -0.24332769      -2.39812356      -0.51526301
17
Frame=1 idx=010895 GeodesicLength=0.07099868471259717 rxn_smarts="[C:1]1([H:8])([H:9])[C@@:2]2([H:10])[C:3]([H:11])([H:12])[C@:4]3([H:13])[C:5]([H:14])([H:15])[C@@:6]2([H:16])[C@:7]13[H:17]>>[C:1]1([H:8])([H:9])[C:2]([C:6](=[C:5]([H:14])[H:15])[H:16])([H:10])[C:3]([H:11])([H:12])[C:4]([H:13])=[C:7]1[H:17]"
C        1.40888341      -0.84101394      -0.13455822
C        0.98040191       0.57577176       0.22427652
C        0.05625555       0.92027559      -0.96413222
C       -0.87106115      -0.27550301      -0.72729447
C       -1.41319536       0.13330533       0.91159072
C       -0.08554417       0.53185391       1.31732058
C        0.02838044      -1.34733139      -0.44994187
H        2.10266635      -0.91308381      -0.98920263
H        1.87257499      -1.34973210       0.70777990
H        1.78739047       1.28212336       0.41583685
H        0.58368462       0.87478991      -1.92272748
H       -0.45417400       1.87913869      -0.86606149
H       -1.73894555      -0.45002463      -1.35786637
H       -2.20191480       0.88633151       1.09077371
H       -1.81446197      -0.83319678       1.18886854
H        0.00198828       1.32094639       2.06146084
H       -0.24292902      -2.39465079      -0.50612290
17
Frame=2 idx=010895 GeodesicLength=0.1420043106560464 rxn_smarts="[C:1]1([H:8])([H:9])[C@@:2]2([H:10])[C:3]([H:11])([H:12])[C@:4]3([H:13])[C:5]([H:14])([H:15])[C@@:6]2([H:16])[C@:7]13[H:17]>>[C:1]1([H:8])([H:9])[C:2]([C:6](=[C:5]([H:14])[H:15])[H:16])([H:10])[C:3]([H:11])([H:12])[C:4]([H:13])=[C:7]1[H:17]"
C        1.40940003      -0.83837081      -0.13109428
C        0.97782014       0.58091910       0.21717111
C        0.05529283       0.92160687      -0.97309145
C       -0.87093363      -0.27536593      -0.74285558
C       -1.41926503       0.13613962       0.91954050
C       -0.08473163       0.51712571       1.31285500
C        0.02690779      -1.34308663      -0.44002024
H        2.10375306      -0.91561616      -0.98387064
H        1.86792783      -1.34373690       0.71649600
H        1.78243779       1.28949289       0.40959908
H        0.58563277       0.88120962      -1.93008715
H       -0.45700557       1.87952381      -0.87441483
H       -1.73018857      -0.45368568      -1.38394489
H       -2.20092526       0.89332142       1.10517825
H       -1.81885636      -0.82944843       1.20398771
H        0.01545852       1.29099595       2.07163766
H       -0.24272472      -2.39102447      -0.49708625
17
Frame=3 idx=010895 GeodesicLength=0.21292280197795121 rxn_smarts="[C:1]1([H:8])([H:9])[C@@:2]2([H:10])[C:3]([H:11])([H:12])[C@:4]3([H:13])[C:5]([H:14])([H:15])[C@@:6]2([H:16])[C@:7]13[H:17]>>[C:1]1([H:8])([H:9])[C:2]([C:6](=[C:5]([H:14])[H:15])[H:16])([H:10])[C:3]([H:11])([H:12])[C:4]([H:13])=[C:7]1[H:17]"
C        1.40978482      -0.83569362      -0.12765253
C        0.97509034       0.58601515       0.21014558
C        0.05435832       0.92295332      -0.98209064
C       -0.87063204      -0.27532708      -0.75863327
C       -1.42526279       0.13900331       0.92783588
C       -0.08408613       0.50276432       1.30822336
C        0.02526460      -1.33870766      -0.43026678
H        2.10478360      -0.91808178      -0.97841267
H        1.86304887      -1.33781452       0.72521751
H        1.77739247       1.29675708       0.40345585
H        0.58772579       0.88776784      -1.93742667
H       -0.45996782       1.87985297      -0.88291557
H       -1.72098122      -0.45748831      -1.41043775
H       -2.19991104       0.90020573       1.11976638
H       -1.82292805      -0.82568592       1.21970876
H        0.02901423       1.26075549       2.08154425
H       -0.24269395      -2.38727634      -0.48806170
17
Frame=4 idx=010895 GeodesicLength=0.28401651003020895 rxn_smarts="[C:1]1([H:8])([H:9])[C@@:2]2([H:10])[C:3]([H:11])([H:12])[C@:4]3([H:13])[C:5]([H:14])([H:15])[C@@:6]2([H:16])[C@:7]13[H:17]>>[C:1]1([H:8])([H:9])[C:2]([C:6](=[C:5]([H:14])[H:15])[H:16])([H:10])[C:3]([H:11])([H:12])[C:4]([H:13])=[C:7]1[H:17]"
C        1.40988084      -0.83315069      -0.12408020
C        0.97213689       0.59092770       0.20334952
C        0.05342364       0.92428995      -0.99103862
C       -0.87020797      -0.27543081      -0.77462858
C       -1.43111799       0.14178200       0.93671205
C       -0.08366446       0.48874922       1.30344768
C        0.02339863      -1.33411201      -0.42099975
H        2.10570992      -0.92046757      -0.97277653
H        1.85778732      -1.33209718       0.73377088
H        1.77209152       1.30381436       0.39756955
H        0.58993175       0.89470868      -1.94454480
H       -0.46313021       1.88004971      -0.89149626
H       -1.71064818      -0.46167741      -1.43776984
H       -2.19857064       0.90704539       1.13501359
H       -1.82654350      -0.82192823       1.23633369
H        0.04248381       1.23081641       2.09033992
H       -0.24296138      -2.38331954      -0.47920231
17
Frame=5 idx=010895 GeodesicLength=0.3550574835808537 rxn_smarts="[C:1]1([H:8])([H:9])[C@@:2]2([H:10])[C:3]([H:11])([H:12])[C@:4]3([H:13])[C:5]([H:14])([H:15])[C@@:6]2([H:16])[C@:7]13[H:17]>>[C:1]1([H:8])([H:9])[C:2]([C:6](=[C:5]([H:14])[H:15])[H:16])([H:10])[C:3]([H:11])([H:12])[C:4]([H:13])=[C:7]1[H:17]"
C        1.40983270      -0.83060090      -0.12052580
C        0.96904022       0.59576405       0.19664131
C        0.05251689       0.92565409      -1.00000463
C       -0.86960146      -0.27563932      -0.79087489
C       -1.43687207       0.14455795       0.94600581
C       -0.08341465       0.47507829       1.29855050
C        0.02134116      -1.32939811      -0.41191413
H        2.10657168      -0.92280716      -0.96700997
H        1.85227720      -1.32650475       0.74232728
H        1.76671893       1.31072408       0.39178632
H        0.59228081       0.90183087      -1.95161521
H       -0.46642486       1.88020022      -0.90016806
H       -1.69980717      -0.46600711      -1.46554799
H       -2.19719946       0.91372522       1.15048276
H       -1.82976372      -0.81817045       1.25360802
H        0.05593393       1.20083116       2.09869360
H       -0.24343014      -2.37923814      -0.47043493
17
Frame=6 idx=010895 GeodesicLength=0.42610847283318853 rxn_smarts="[C:1]1([H:8])([H:9])[C@@:2]2([H:10])[C:3]([H:11])([H:12])[C@:4]3([H:13])[C:5]([H:14])([H:15])[C@@:6]2([H:16])[C@:7]13[H:17]>>[C:1]1([H:8])([H:9])[C:2]([C:6](=[C:5]([H:14])[H:15])[H:16])([H:10])[C:3]([H:11])([H:12])[C:4]([H:13])=[C:7]1[H:17]"
C        1.40958033      -0.82808964      -0.11694447
C        0.96577779       0.60049991       0.19005323
C        0.05162382       0.92703881      -1.00897133
C       -0.86881738      -0.27596123      -0.80737695
C       -1.44252261       0.14729844       0.95578311
C       -0.08335177       0.46177426       1.29353470
C        0.01906864      -1.32453577      -0.40310681
H        2.10733752      -0.92509792      -0.96110449
H        1.84645775      -1.32105817       0.75082670
H        1.76122315       1.31747646       0.38613666
H        0.59475615       0.90921053      -1.95857808
H       -0.46988480       1.88027427      -0.90892240
H       -1.68816541      -0.47057584      -1.49393730
H       -2.19571536       0.92028957       1.16630756
H       -1.83256132      -0.81442040       1.27165478
H        0.06935350       1.17088962       2.10641164
H       -0.24416002      -2.37501290      -0.46176656
17
Frame=7 idx=010895 GeodesicLength=0.4971676935520679 rxn_smarts="[C:1]1([H:8])([H:9])[C@@:2]2([H:10])[C:3]([H:11])([H:12])[C@:4]3([H:13])[C:5]([H:14])([H:15])[C@@:6]2([H:16])[C@:7]13[H:17]>>[C:1]1([H:8])([H:9])[C:2]([C:6](=[C:5]([H:14])[H:15])[H:16])([H:10])[C:3]([H:11])([H:12])[C:4]([H:13])=[C:7]1[H:17]"
C        1.40911585      -0.82562055      -0.11333643
C        0.96234717       0.60513632       0.18357826
C        0.05073956       0.92844758      -1.01793941
C       -0.86785143      -0.27639758      -0.82415070
C       -1.44806489       0.15000153       0.96606054
C       -0.08348440       0.44883788       1.28840794
C        0.01657061      -1.31952725      -0.39457581
H        2.10799911      -0.92734672      -0.95506149
H        1.84031962      -1.31576288       0.75927057
H        1.75560399       1.32406991       0.38061087
H        0.59735121       0.91685811      -1.96542915
H       -0.47351715       1.88027129      -0.91775041
H       -1.67566929      -0.47539649      -1.52296357
H       -2.19411730       0.92673733       1.18249346
H       -1.83491539      -0.81067244       1.29049133
H        0.08273751       1.14100520       2.11349081
H       -0.24516477      -2.37064123      -0.45319681
17
Frame=8 idx=010895 GeodesicLength=0.5682429389667373 rxn_smarts="[C:1]1([H:8])([H:9])[C@@:2]2([H:10])[C:3]([H:11])([H:12])[C@:4]3([H:13])[C:5]([H:14])([H:15])[C@@:6]2([H:16])[C@:7]13[H:17]>>[C:1]1([H:8])([H:9])[C:2]([C:6](=[C:5]([H:14])[H:15])[H:16])([H:10])[C:3]([H:11])([H:12])[C:4]([H:13])=[C:7]1[H:17]"
C        1.40842908      -0.82319843      -0.10970486
C        0.95874848       0.60967290       0.17720938
C        0.04985916       0.92988506      -1.02690805
C       -0.86669313      -0.27694992      -0.84121571
C       -1.45349843       0.15266040       0.97685763
C       -0.08381478       0.43626818       1.28318045
C        0.01383291      -1.31437332      -0.38632060
H        2.10854340      -0.92956256      -0.94888586
H        1.83384999      -1.31062592       0.76765553
H        1.74986589       1.33050126       0.37519931
H        0.60006043       0.92479070      -1.97216145
H       -0.47733270       1.88018967      -0.92663908
H       -1.66224697      -0.48048481      -1.55265817
H       -2.19240871       0.93306605       1.19904553
H       -1.83680406      -0.80692443       1.31014834
H        0.09607507       1.11120775       2.11992289
H       -0.24646561      -2.36612260      -0.44472528
17
Frame=9 idx=010895 GeodesicLength=0.639396420729171 rxn_smarts="[C:1]1([H:8])([H:9])[C@@:2]2([H:10])[C:3]([H:11])([H:12])[C@:4]3([H:13])[C:5]([H:14])([H:15])[C@@:6]2([H:16])[C@:7]13[H:17]>>[C:1]1([H:8])([H:9])[C:2]([C:6](=[C:5]([H:14])[H:15])[H:16])([H:10])[C:3]([H:11])([H:12])[C:4]([H:13])=[C:7]1[H:17]"
C        1.40750102      -0.82083665      -0.10605351
C        0.95497500       0.61410591       0.17093714
C        0.04897619       0.93135639      -1.03587967
C       -0.86533383      -0.27761747      -0.85861277
C       -1.45880952       0.15526083       0.98821740
C       -0.08434984       0.42405951       1.27784886
C        0.01083566      -1.30907753      -0.37833991
H        2.10894953      -0.93176693      -0.94258083
H        1.82702544      -1.30566434       0.77597999
H        1.74401039       1.33675944       0.36989499
H        0.60288185       0.93302849      -1.97876393
H       -0.48134750       1.88002490      -0.93558066
H       -1.64778924      -0.48582990      -1.58306816
H       -2.19059903       0.93924707       1.21598693
H       -1.83815752      -0.80318291       1.33067030
H        0.10933242       1.08158638       2.12570194
H       -0.24810104      -2.36145318      -0.43635811
17
Frame=10 idx=010895 GeodesicLength=0.7105631204242421 rxn_smarts="[C:1]1([H:8])([H:9])[C@@:2]2([H:10])[C:3]([H:11])([H:12])[C@:4]3([H:13])[C:5]([H:14])([H:15])[C@@:6]2([H:16])[C@:7]13[H:17]>>[C:1]1([H:8])([H:9])[C:2]([C:6](=[C:5]([H:14])[H:15])[H:16])([H:10])[C:3]([H:11])([H:12])[C:4]([H:13])=[C:7]1[H:17]"
C        1.40632881      -0.81853021      -0.10238282
C        0.95103096       0.61844193       0.16475463
C        0.04808640       0.93286504      -1.04485495
C       -0.86376166      -0.27840427      -0.87633941
C       -1.46400745       0.15780647       1.00013565
C       -0.08509206       0.41222024       1.27243157
C        0.00757027      -1.30363595      -0.37063192
H        2.10921239      -0.93395703      -0.93614907
H        1.81984108      -1.30087285       0.78424292
H        1.73804280       1.34285123       0.36468291
H        0.60580347       0.94158042      -1.98523690
H       -0.48556860       1.87977630      -0.94456738
H       -1.63225374      -0.49146758      -1.61418620
H       -2.18868708       0.94530528       1.23330518
H       -1.83899728      -0.79943507       1.35206547
H        0.12252610       1.05208799       2.13082349
H       -0.25007441      -2.35663193      -0.42809317
17
Frame=11 idx=010895 GeodesicLength=0.7817411174693829 rxn_smarts="[C:1]1([H:8])([H:9])[C@@:2]2([H:10])[C:3]([H:11])([H:12])[C@:4]3([H:13])[C:5]([H:14])([H:15])[C@@:6]2([H:16])[C@:7]13[H:17]>>[C:1]1([H:8])([H:9])[C:2]([C:6](=[C:5]([H:14])[H:15])[H:16])([H:10])[C:3]([H:11])([H:12])[C:4]([H:13])=[C:7]1[H:17]"
C        1.40490104      -0.81628453      -0.09869565
C        0.94691474       0.62268037       0.15865425
C        0.04718390       0.93441529      -1.05383464
C       -0.86196522      -0.27931320      -0.89441630
C       -1.46908987       0.16029245       1.01263167
C       -0.08604568       0.40074862       1.26693535
C        0.00402145      -1.29804865      -0.36319555
H        2.10931798      -0.93614267      -0.92959466
H        1.81228343      -1.29625943       0.79244097
H        1.73196648       1.34877228       0.35955328
H        0.60881813       0.95046418      -1.99157427
H       -0.49000835       1.87944043      -0.95358999
H       -1.61556144      -0.49740874      -1.64602971
H       -2.18667635       0.95123703       1.25100717
H       -1.83929603      -0.79567728       1.37436026
H        0.13564353       1.02274118       2.13528014
H       -0.25240773      -2.35165731      -0.41993232
17
Frame=12 idx=010895 GeodesicLength=0.8529317581472438 rxn_smarts="[C:1]1([H:8])([H:9])[C@@:2]2([H:10])[C:3]([H:11])([H:12])[C@:4]3([H:13])[C:5]([H:14])([H:15])[C@@:6]2([H:16])[C@:7]13[H:17]>>[C:1]1([H:8])([H:9])[C:2]([C:6](=[C:5]([H:14])[H:15])[H:16])([H:10])[C:3]([H:11])([H:12])[C:4]([H:13])=[C:7]1[H:17]"
C        1.40320479      -0.81410512      -0.09499507
C        0.94262409       0.62682204       0.15262725
C        0.04626252       0.93601163      -1.06282081
C       -0.85993060      -0.28034669      -0.91286668
C       -1.47405442       0.16271419       1.02572591
C       -0.08721590       0.38964517       1.26136687
C        0.00017227      -1.29231360      -0.35602862
H        2.10925048      -0.93833496      -0.92292129
H        1.80433609      -1.29183129       0.80057109
H        1.72578446       1.35451979       0.35449474
H        0.61191760       0.95969685      -1.99776932
H       -0.49468135       1.87901271      -0.96264180
H       -1.59762374      -0.50366468      -1.67861340
H       -2.18457232       0.95703944       1.26909904
H       -1.83902331      -0.79190659       1.39758458
H        0.14867494       0.99356563       2.13906512
H       -0.25512559      -2.34652450      -0.41187761
17
Frame=13 idx=010895 GeodesicLength=0.9241315802235817 rxn_smarts="[C:1]1([H:8])([H:9])[C@@:2]2([H:10])[C:3]([H:11])([H:12])[C@:4]3([H:13])[C:5]([H:14])([H:15])[C@@:6]2([H:16])[C@:7]13[H:17]>>[C:1]1([H:8])([H:9])[C:2]([C:6](=[C:5]([H:14])[H:15])[H:16])([H:10])[C:3]([H:11])([H:12])[C:4]([H:13])=[C:7]1[H:17]"
C        1.40122651      -0.81199847      -0.09128437
C        0.93815660       0.63086593       0.14666527
C        0.04531647       0.93765857      -1.07181536
C       -0.85764321      -0.28150804      -0.93171484
C       -1.47889593       0.16506355       1.03943928
C       -0.08860836       0.37890696       1.25573089
C       -0.00399424      -1.28642896      -0.34913328
H        2.10899544      -0.94054592      -0.91613187
H        1.79598080      -1.28759895       0.80862995
H        1.71949989       1.36008839       0.34949702
H        0.61509416       0.96929778      -2.00381510
H       -0.49960143       1.87848858      -0.97171536
H       -1.57835555      -0.51024376      -1.71194452
H       -2.18237742       0.96270688       1.28758988
H       -1.83814459      -0.78812099       1.42176426
H        0.16160387       0.96459905       2.14217109
H       -0.25825300      -2.34123063      -0.40393297
17
Frame=14 idx=010895 GeodesicLength=0.9953421653573375 rxn_smarts="[C:1]1([H:8])([H:9])[C@@:2]2([H:10])[C:3]([H:11])([H:12])[C@:4]3([H:13])[C:5]([H:14])([H:15])[C@@:6]2([H:16])[C@:7]13[H:17]>>[C:1]1([H:8])([H:9])[C:2]([C:6](=[C:5]([H:14])[H:15])[H:16])([H:10])[C:3]([H:11])([H:12])[C:4]([H:13])=[C:7]1[H:17]"
C        1.39895101      -0.80997170      -0.08756835
C        0.93350940       0.63481165       0.14075903
C        0.04433841       0.93936071      -1.08082055
C       -0.85508423      -0.28280168      -0.95098751
C       -1.48361147       0.16733454       1.05379424
C       -0.09022828       0.36853207       1.25003333
C       -0.00849816      -1.28039072      -0.34251032
H        2.10853483      -0.94278877      -0.90923134
H        1.78719888      -1.28357300       0.81661199
H        1.71311637       1.36547299       0.34454820
H        0.61833839       0.97928861      -2.00970349
H       -0.50478700       1.87786116      -0.98080343
H       -1.55765391      -0.51715796      -1.74602801
H       -2.18009774       0.96823536       1.30648696
H       -1.83662487      -0.78431671       1.44693004
H        0.17441732       0.93587267       2.14459167
H       -0.26181893      -2.33576921      -0.39610246
17
Frame=15 idx=010895 GeodesicLength=1.0665616535409401 rxn_smarts="[C:1]1([H:8])([H:9])[C@@:2]2([H:10])[C:3]([H:11])([H:12])[C@:4]3([H:13])[C:5]([H:14])([H:15])[C@@:6]2([H:16])[C@:7]13[H:17]>>[C:1]1([H:8])([H:9])[C:2]([C:6](=[C:5]([H:14])[H:15])[H:16])([H:10])[C:3]([H:11])([H:12])[C:4]([H:13])=[C:7]1[H:17]"
C        1.39636197      -0.80803169      -0.08385065
C        0.92867850       0.63865933       0.13489883
C        0.04332122       0.94112211      -1.08984039
C       -0.85223261      -0.28423274      -0.97071330
C       -1.48819529       0.16951930       1.06881311
C       -0.09208318       0.35851999       1.24427752
C       -0.01335979      -1.27419400      -0.33616315
H        2.10785214      -0.94507711      -0.90222152
H        1.77796756      -1.27976456       0.82451369
H        1.70663641       1.37066887       0.33963601
H        0.62164138       0.98969073      -2.01542709
H       -0.51025679       1.87712263      -0.98990232
H       -1.53542006      -0.52441590      -1.78085905
H       -2.17773798       0.97362109       1.32579864
H       -1.83442276      -0.78049092       1.47310952
H        0.18710201       0.90741571       2.14632201
H       -0.26585273      -2.33013285      -0.38839187
17
Frame=16 idx=010895 GeodesicLength=1.1377880731109484 rxn_smarts="[C:1]1([H:8])([H:9])[C@@:2]2([H:10])[C:3]([H:11])([H:12])[C@:4]3([H:13])[C:5]([H:14])([H:15])[C@@:6]2([H:16])[C@:7]13[H:17]>>[C:1]1([H:8])([H:9])[C:2]([C:6](=[C:5]([H:14])[H:15])[H:16])([H:10])[C:3]([H:11])([H:12])[C:4]([H:13])=[C:7]1[H:17]"
C        1.39344205      -0.80618705      -0.08013600
C        0.92365988       0.64240789       0.12907497
C        0.04225777       0.94294716      -1.09887911
C       -0.84906446      -0.28580703      -0.99092282
C       -1.49264041       0.17160986       1.08451867
C       -0.09418071       0.34886713       1.23846608
C       -0.01860083      -1.26783332      -0.33009806
H        2.10692999      -0.94742589      -0.89510474
H        1.76826224      -1.27618779       0.83232984
H        1.70006296       1.37566957       0.33474875
H        0.62499310       1.00052753      -2.02097761
H       -0.51603060       1.87626425      -0.99900829
H       -1.51154931      -0.53202444      -1.81642371
H       -2.17530313       0.97885594       1.34553389
H       -1.83149324      -0.77664109       1.50032992
H        0.19964118       0.87927102       2.14735749
H       -0.27038649      -2.32431375      -0.38080927
