11
Frame=0 idx=001367 GeodesicLength=0.0 rxn_smarts="[N:1](=[C:2](/[O:3][C:4]([C:5](=[O:6])[H:11])([H:9])[H:10])[H:8])\[H:7]>>[N:1]1([H:7])[C@@:2]2([H:8])[O:3][C:4]([H:9])([H:10])[C@:5]1([H:11])[O:6]2"
N        1.11235386       0.86785593       0.71733461
C        0.91680335       0.40220966      -0.53934916
O        0.47091579      -0.96265807      -0.66765766
C       -0.69167738      -0.98373307       0.11339678
C       -1.03025903       0.47338540       0.14177192
O       -0.43691716       1.12203385      -0.78123019
H        2.00163373       0.52885278       1.08147518
H        1.60834117       0.57839235      -1.36743213
H       -0.57976224      -1.41461581       1.10894077
H       -1.47387456      -1.52474727      -0.43368597
H       -1.89755750       0.91302430       0.62643587
11
Frame=1 idx=001367 GeodesicLength=0.10121009317797765 rxn_smarts="[N:1](=[C:2](/[O:3][C:4]([C:5](=[O:6])[H:11])([H:9])[H:10])[H:8])\[H:7]>>[N:1]1([H:7])[C@@:2]2([H:8])[O:3][C:4]([H:9])([H:10])[C@:5]1([H:11])[O:6]2"
N        1.09296978       0.86723315       0.71222329
C        0.91863895       0.39890596      -0.54689432
O        0.48037334      -0.96557606      -0.66671018
C       -0.68934713      -0.98553139       0.10751784
C       -1.03105011       0.47217856       0.14174289
O       -0.47365674       1.11254656      -0.81205477
H        1.97412164       0.53151759       1.09717394
H        1.62541311       0.57176544      -1.36227618
H       -0.57712468      -1.41634868       1.10306432
H       -1.46511266      -1.52926105      -0.44511336
H       -1.85522551       0.94256991       0.67132653
11
Frame=2 idx=001367 GeodesicLength=0.2023524536053041 rxn_smarts="[N:1](=[C:2](/[O:3][C:4]([C:5](=[O:6])[H:11])([H:9])[H:10])[H:8])\[H:7]>>[N:1]1([H:7])[C@@:2]2([H:8])[O:3][C:4]([H:9])([H:10])[C@:5]1([H:11])[O:6]2"
N        1.07457746       0.86591576       0.70749659
C        0.92049205       0.39589113      -0.55392705
O        0.48924534      -0.96789103      -0.66610833
C       -0.68702574      -0.98710517       0.10211235
C       -1.03182692       0.47127235       0.14286683
O       -0.51203463       1.10260633      -0.84088065
H        1.94741925       0.53321074       1.11217113
H        1.64168054       0.56620111      -1.35669093
H       -0.57402211      -1.41805882       1.09757505
H       -1.45654465      -1.53361936      -0.45573494
H       -1.81196058       0.97157696       0.71111995
11
Frame=3 idx=001367 GeodesicLength=0.30343551448889966 rxn_smarts="[N:1](=[C:2](/[O:3][C:4]([C:5](=[O:6])[H:11])([H:9])[H:10])[H:8])\[H:7]>>[N:1]1([H:7])[C@@:2]2([H:8])[O:3][C:4]([H:9])([H:10])[C@:5]1([H:11])[O:6]2"
N        1.05720708       0.86393030       0.70315170
C        0.92246554       0.39313083      -0.56048354
O        0.49754525      -0.96959320      -0.66588013
C       -0.68468528      -0.98842076       0.09713829
C       -1.03246125       0.47068253       0.14501267
O       -0.55207043       1.09225780      -0.86771806
H        1.92157149       0.53392382       1.12654310
H        1.65733939       0.56154833      -1.35071259
H       -0.57048597      -1.41970032       1.09234915
H       -1.44812057      -1.53777963      -0.46549863
H       -1.76830526       1.00002029       0.74609804
11
Frame=4 idx=001367 GeodesicLength=0.4044686251682052 rxn_smarts="[N:1](=[C:2](/[O:3][C:4]([C:5](=[O:6])[H:11])([H:9])[H:10])[H:8])\[H:7]>>[N:1]1([H:7])[C@@:2]2([H:8])[O:3][C:4]([H:9])([H:10])[C@:5]1([H:11])[O:6]2"
N        1.04088183       0.86129789       0.69920003
C        0.92464021       0.39060654      -0.56659306
O        0.50531189      -0.97071981      -0.66608988
C       -0.68229581      -0.98945966       0.09255377
C       -1.03286616       0.47044075       0.14809951
O       -0.59380917       1.08151885      -0.89260180
H        1.89663428       0.53365763       1.14036128
H        1.67255458       0.55767265      -1.34435631
H       -0.56649710      -1.42126678       1.08736164
H       -1.43982463      -1.54169254      -0.47443933
H       -1.72472992       1.02794449       0.77650414
11
Frame=5 idx=001367 GeodesicLength=0.5055026077880396 rxn_smarts="[N:1](=[C:2](/[O:3][C:4]([C:5](=[O:6])[H:11])([H:9])[H:10])[H:8])\[H:7]>>[N:1]1([H:7])[C@@:2]2([H:8])[O:3][C:4]([H:9])([H:10])[C@:5]1([H:11])[O:6]2"
N        1.02559432       0.85806841       0.69562196
C        0.92711014       0.38828701      -0.57229135
O        0.51256462      -0.97127335      -0.66678939
C       -0.67984349      -0.99019868       0.08829734
C       -1.03298179       0.47056625       0.15196716
O       -0.63735092       1.07038428      -0.91552466
H        1.87259393       0.53244595       1.15371095
H        1.68753747       0.55440808      -1.33761086
H       -0.56206435      -1.42270112       1.08251710
H       -1.43164647      -1.54536334      -0.48256519
H       -1.68151346       1.05537652       0.80266694
11
Frame=6 idx=001367 GeodesicLength=0.6065613806466077 rxn_smarts="[N:1](=[C:2](/[O:3][C:4]([C:5](=[O:6])[H:11])([H:9])[H:10])[H:8])\[H:7]>>[N:1]1([H:7])[C@@:2]2([H:8])[O:3][C:4]([H:9])([H:10])[C@:5]1([H:11])[O:6]2"
N        1.01133051       0.85426879       0.69241316
C        0.92995098       0.38614702      -0.57759745
O        0.51933933      -0.97127020      -0.66802728
C       -0.67731371      -0.99062949       0.08432218
C       -1.03276035       0.47106924       0.15651545
O       -0.68279971       1.05882991      -0.93647869
H        1.84944170       0.53030439       1.16665946
H        1.70243992       0.55165542      -1.33046683
H       -0.55718586      -1.42398279       1.07777474
H       -1.42358538      -1.54879890      -0.48992217
H       -1.63885743       1.08240662       0.82480743
11
Frame=7 idx=001367 GeodesicLength=0.7076777882313119 rxn_smarts="[N:1](=[C:2](/[O:3][C:4]([C:5](=[O:6])[H:11])([H:9])[H:10])[H:8])\[H:7]>>[N:1]1([H:7])[C@@:2]2([H:8])[O:3][C:4]([H:9])([H:10])[C@:5]1([H:11])[O:6]2"
N        0.99807537       0.84992866       0.68957261
C        0.93322990       0.38416815      -0.58252306
O        0.52566648      -0.97072955      -0.66986809
C       -0.67469304      -0.99074608       0.08057642
C       -1.03216344       0.47196234       0.16164783
O       -0.73029928       1.04680497      -0.95543596
H        1.82715871       0.52724717       1.17927671
H        1.71740418       0.54932385      -1.32289501
H       -0.55185237      -1.42510111       1.07311010
H       -1.41564124      -1.55200577      -0.49656772
H       -1.59688527       1.10914736       0.84310618
11
Frame=8 idx=001367 GeodesicLength=0.808930153397277 rxn_smarts="[N:1](=[C:2](/[O:3][C:4]([C:5](=[O:6])[H:11])([H:9])[H:10])[H:8])\[H:7]>>[N:1]1([H:7])[C@@:2]2([H:8])[O:3][C:4]([H:9])([H:10])[C@:5]1([H:11])[O:6]2"
N        0.98577594       0.84503834       0.68709296
C        0.93702988       0.38234184      -0.58711132
O        0.53157994      -0.96957556      -0.67233825
C       -0.67194722      -0.99056512       0.07701007
C       -1.03117141       0.47322823       0.16722658
O       -0.78004543       1.03425885      -0.97224616
H        1.80566719       0.52324333       1.19160874
H        1.73262175       0.54728438      -1.31489773
H       -0.54607843      -1.42605690       1.06842125
H       -1.40772304      -1.55509770      -0.50252295
H       -1.55570916       1.13590031       0.85775681
11
Frame=9 idx=001367 GeodesicLength=0.9103201995693015 rxn_smarts="[N:1](=[C:2](/[O:3][C:4]([C:5](=[O:6])[H:11])([H:9])[H:10])[H:8])\[H:7]>>[N:1]1([H:7])[C@@:2]2([H:8])[O:3][C:4]([H:9])([H:10])[C@:5]1([H:11])[O:6]2"
N        0.97436060       0.83983884       0.68487943
C        0.94139726       0.38064317      -0.59133765
O        0.53705717      -0.96804095      -0.67556512
C       -0.66915892      -0.98990573       0.07347756
C       -1.02974551       0.47507894       0.17292077
O       -0.83221556       1.02091006      -0.98734208
H        1.78483719       0.51863639       1.20381399
H        1.74827879       0.54531678      -1.30619840
H       -0.53986492      -1.42666000       1.06391092
H       -1.40008642      -1.55771076      -0.50807513
H       -1.51485968       1.16189325       0.86951572
11
Frame=10 idx=001367 GeodesicLength=1.0117746925774302 rxn_smarts="[N:1](=[C:2](/[O:3][C:4]([C:5](=[O:6])[H:11])([H:9])[H:10])[H:8])\[H:7]>>[N:1]1([H:7])[C@@:2]2([H:8])[O:3][C:4]([H:9])([H:10])[C@:5]1([H:11])[O:6]2"
N        0.96382321       0.83417784       0.68297416
C        0.94643803       0.37906459      -0.59525720
O        0.54213048      -0.96586101      -0.67951867
C       -0.66625732      -0.98890472       0.07000088
C       -1.02789208       0.47736073       0.17875478
O       -0.88694696       1.00686678      -1.00011450
H        1.76466738       0.51315153       1.21585266
H        1.76453752       0.54342429      -1.29696023
H       -0.53326276      -1.42698775       1.05924062
H       -1.39246523      -1.56028459      -0.51300907
H       -1.47477226       1.18799233       0.87803656
11
Frame=11 idx=001367 GeodesicLength=1.1132895038280446 rxn_smarts="[N:1](=[C:2](/[O:3][C:4]([C:5](=[O:6])[H:11])([H:9])[H:10])[H:8])\[H:7]>>[N:1]1([H:7])[C@@:2]2([H:8])[O:3][C:4]([H:9])([H:10])[C@:5]1([H:11])[O:6]2"
N        0.95413710       0.82810912       0.68137870
C        0.95219772       0.37761580      -0.59884573
O        0.54681203      -0.96311827      -0.68429554
C       -0.66323873      -0.98752739       0.06650076
C       -1.02557472       0.48010480       0.18455562
O       -0.94447602       0.99198812      -1.01051575
H        1.74511242       0.50688041       1.22779619
H        1.78147800       0.54149815      -1.28703997
H       -0.52625862      -1.42701937       1.05444940
H       -1.38489187      -1.56271804      -0.51744719
H       -1.43529731       1.21418666       0.88346351
11
Frame=12 idx=001367 GeodesicLength=1.2148764846367401 rxn_smarts="[N:1](=[C:2](/[O:3][C:4]([C:5](=[O:6])[H:11])([H:9])[H:10])[H:8])\[H:7]>>[N:1]1([H:7])[C@@:2]2([H:8])[O:3][C:4]([H:9])([H:10])[C@:5]1([H:11])[O:6]2"
N        0.94525716       0.82165567       0.68006263
C        0.95876315       0.37626521      -0.60210810
O        0.55111144      -0.95974474      -0.68995388
C       -0.66009126      -0.98574451       0.06291610
C       -1.02277807       0.48334345       0.19019742
O       -1.00503753       0.97617631      -1.01828532
H        1.72607913       0.49983936       1.23967925
H        1.79927094       0.53939639      -1.27636102
H       -0.51885906      -1.42671187       1.04946388
H       -1.37732747      -1.56504723      -0.52143859
H       -1.39638843       1.24057196       0.88582762
11
Frame=13 idx=001367 GeodesicLength=1.3164939816066696 rxn_smarts="[N:1](=[C:2](/[O:3][C:4]([C:5](=[O:6])[H:11])([H:9])[H:10])[H:8])\[H:7]>>[N:1]1([H:7])[C@@:2]2([H:8])[O:3][C:4]([H:9])([H:10])[C@:5]1([H:11])[O:6]2"
N        0.93713858       0.81495448       0.67894903
C        0.96623961       0.37500167      -0.60505475
O        0.55499109      -0.95574276      -0.69660372
C       -0.65685417      -0.98347887       0.05913817
C       -1.01947585       0.48720175       0.19544095
O       -1.06889989       0.95922761      -1.02321750
H        1.70744750       0.49218801       1.25157420
H        1.81815253       0.53691149      -1.26474512
H       -0.51109413      -1.42596205       1.04425392
H       -1.36982697      -1.56724537      -0.52508409
H       -1.35781830       1.26694404       0.88534891
11
Frame=14 idx=001367 GeodesicLength=1.4180687251685817 rxn_smarts="[N:1](=[C:2](/[O:3][C:4]([C:5](=[O:6])[H:11])([H:9])[H:10])[H:8])\[H:7]>>[N:1]1([H:7])[C@@:2]2([H:8])[O:3][C:4]([H:9])([H:10])[C@:5]1([H:11])[O:6]2"
N        0.92976522       0.80791177       0.67809453
C        0.97468967       0.37382769      -0.60765130
O        0.55849784      -0.95104991      -0.70427400
C       -0.65347459      -0.98077116       0.05513196
C       -1.01565265       0.49161225       0.20024286
O       -1.13630594       0.94106224      -1.02480281
H        1.68919750       0.48380267       1.26349228
H        1.83815768       0.53403886      -1.25216284
H       -0.50296286      -1.42482636       1.03872371
H       -1.36227387      -1.56937640      -0.52842812
H       -1.31963799       1.29376836       0.88163372
11
Frame=15 idx=001367 GeodesicLength=1.5195265962321556 rxn_smarts="[N:1](=[C:2](/[O:3][C:4]([C:5](=[O:6])[H:11])([H:9])[H:10])[H:8])\[H:7]>>[N:1]1([H:7])[C@@:2]2([H:8])[O:3][C:4]([H:9])([H:10])[C@:5]1([H:11])[O:6]2"
N        0.92309406       0.80057458       0.67746778
C        0.98421233       0.37272359      -0.60988174
O        0.56162620      -0.94562631      -0.71304379
C       -0.64995206      -0.97758054       0.05080607
C       -1.01128783       0.49663280       0.20443374
O       -1.20751692       0.92149133      -1.02258388
H        1.67122079       0.47473473       1.27547829
H        1.85945025       0.53063502      -1.23848341
H       -0.49449013      -1.42325512       1.03279606
H       -1.35463867      -1.57143392      -0.53156649
H       -1.28171802       1.32110384       0.87457737
11
Frame=16 idx=001367 GeodesicLength=1.6207723602771515 rxn_smarts="[N:1](=[C:2](/[O:3][C:4]([C:5](=[O:6])[H:11])([H:9])[H:10])[H:8])\[H:7]>>[N:1]1([H:7])[C@@:2]2([H:8])[O:3][C:4]([H:9])([H:10])[C@:5]1([H:11])[O:6]2"
N        0.91708704       0.79299677       0.67703035
C        0.99494100       0.37168010      -0.61174084
O        0.56435716      -0.93941545      -0.72299775
C       -0.64629724      -0.97387104       0.04605071
C       -1.00638013       0.50232343       0.20779780
O       -1.28283939       0.90028634      -1.01588414
H        1.65341392       0.46504392       1.28759036
H        1.88225162       0.52653837      -1.22356221
H       -0.48572457      -1.42120705       1.02636998
H       -1.34687840      -1.57342609      -0.53461415
H       -1.24393100       1.34905070       0.86395988
