15
Frame=0 idx=003519 GeodesicLength=0.0 rxn_smarts="[C:1]([O:2]/[C:3](=[N:4]/[C:5]([H:10])([H:11])[H:12])[C:6]([H:13])([H:14])[H:15])([H:7])([H:8])[H:9]>>[C:1]([O:2][C:5]([H:10])([H:11])[H:12])([H:7])([H:8])[H:9].[C:3](#[N:4])[C:6]([H:13])([H:14])[H:15]"
C        0.91131646      -1.04907966      -0.74449357
O        0.01765739       0.04632754      -0.60863487
C       -0.71379640       0.28732867       0.70254740
N       -0.63842520       1.44354246       1.05090174
C        0.66577644       1.85273845      -0.70283731
C       -1.38842901      -0.95919115       1.18145522
H        1.46917406      -0.91268344      -1.67128363
H        0.35245093      -1.98473823      -0.81644955
H        1.60782774      -1.09814152       0.09830205
H        1.12895798       1.49190195      -1.61742110
H       -0.09191639       2.60039937      -0.87462497
H        1.36451061       2.09868018       0.08129420
H       -2.03761221      -1.37243988       0.40712784
H       -0.66266231      -1.72734521       1.45697655
H       -1.98483007      -0.71729955       2.05713996
15
Frame=1 idx=003519 GeodesicLength=0.09318091399652599 rxn_smarts="[C:1]([O:2]/[C:3](=[N:4]/[C:5]([H:10])([H:11])[H:12])[C:6]([H:13])([H:14])[H:15])([H:7])([H:8])[H:9]>>[C:1]([O:2][C:5]([H:10])([H:11])[H:12])([H:7])([H:8])[H:9].[C:3](#[N:4])[C:6]([H:13])([H:14])[H:15]"
C        0.95133550      -1.05231251      -0.73270727
O        0.02836348       0.01825295      -0.60459332
C       -0.68064509       0.26936459       0.74009788
N       -0.54955832       1.41559135       1.10244930
C        0.63831036       1.84983931      -0.71802372
C       -1.42437421      -0.95101154       1.17732948
H        1.52039691      -0.89968059      -1.65036069
H        0.41167834      -1.99796504      -0.81740391
H        1.63941207      -1.09193512       0.11735614
H        1.06591236       1.51222957      -1.65925045
H       -0.13475284       2.58973271      -0.85902764
H        1.37806949       2.11262800       0.02293026
H       -2.10768211      -1.29784070       0.39996390
H       -0.73845733      -1.76731495       1.41273570
H       -1.99800861      -0.70957802       2.06850435
15
Frame=2 idx=003519 GeodesicLength=0.1856178084061061 rxn_smarts="[C:1]([O:2]/[C:3](=[N:4]/[C:5]([H:10])([H:11])[H:12])[C:6]([H:13])([H:14])[H:15])([H:7])([H:8])[H:9]>>[C:1]([O:2][C:5]([H:10])([H:11])[H:12])([H:7])([H:8])[H:9].[C:3](#[N:4])[C:6]([H:13])([H:14])[H:15]"
C        0.99203012      -1.05618395      -0.72219200
O        0.03924856      -0.01225030      -0.60220870
C       -0.64859749       0.24937439       0.77507708
N       -0.46399089       1.38467921       1.14636094
C        0.61019420       1.84427154      -0.72993150
C       -1.45918408      -0.93946028       1.17315746
H        1.57070824      -0.88608430      -1.63096384
H        0.47358218      -2.01239932      -0.81783532
H        1.67229932      -1.08486037       0.13446226
H        1.00299415       1.53003641      -1.69492600
H       -0.17670530       2.57618018      -0.84144550
H        1.38543464       2.12497007      -0.03186677
H       -2.17545390      -1.21593758       0.39744130
H       -0.81593783      -1.80085720       1.36303991
H       -2.00662191      -0.70147850       2.08183067
15
Frame=3 idx=003519 GeodesicLength=0.2774721697475075 rxn_smarts="[C:1]([O:2]/[C:3](=[N:4]/[C:5]([H:10])([H:11])[H:12])[C:6]([H:13])([H:14])[H:15])([H:7])([H:8])[H:9]>>[C:1]([O:2][C:5]([H:10])([H:11])[H:12])([H:7])([H:8])[H:9].[C:3](#[N:4])[C:6]([H:13])([H:14])[H:15]"
C        1.03326377      -1.06064524      -0.71282491
O        0.05040153      -0.04512052      -0.60115623
C       -0.61752591       0.22745650       0.80802046
N       -0.38228529       1.35143039       1.18334360
C        0.58159478       1.83614372      -0.73894799
C       -1.49285268      -0.92477716       1.16900104
H        1.61978112      -0.87210839      -1.61316034
H        0.53798297      -2.02790299      -0.81760881
H        1.70638644      -1.07685548       0.14968135
H        0.94056864       1.54540072      -1.72505455
H       -0.21783461       2.55981355      -0.82253916
H        1.38710719       2.13591505      -0.08307732
H       -2.23980651      -1.12706801       0.39953790
H       -0.89532098      -1.82755515       1.30824532
H       -2.01146047      -0.69412700       2.09653965
15
Frame=4 idx=003519 GeodesicLength=0.36874600776798533 rxn_smarts="[C:1]([O:2]/[C:3](=[N:4]/[C:5]([H:10])([H:11])[H:12])[C:6]([H:13])([H:14])[H:15])([H:7])([H:8])[H:9]>>[C:1]([O:2][C:5]([H:10])([H:11])[H:12])([H:7])([H:8])[H:9].[C:3](#[N:4])[C:6]([H:13])([H:14])[H:15]"
C        1.07484437      -1.06560594      -0.70449903
O        0.06185359      -0.08028761      -0.60117151
C       -0.58742970       0.20370426       0.83928797
N       -0.30470068       1.31631391       1.21415400
C        0.55262945       1.82550195      -0.74538697
C       -1.52529535      -0.90716128       1.16485555
H        1.66729864      -0.85792052      -1.59696372
H        0.60460405      -2.04424218      -0.81663597
H        1.74147987      -1.06780050       0.16306892
H        0.87876866       1.55835566      -1.75019150
H       -0.25818942       2.54071839      -0.80270449
H        1.38362639       2.14543587      -0.13073559
H       -2.29952075      -1.03194579       0.40617829
H       -0.97649807      -1.84672109       1.24895620
H       -2.01347106      -0.68834511       2.11178785
15
Frame=5 idx=003519 GeodesicLength=0.4597851351558603 rxn_smarts="[C:1]([O:2]/[C:3](=[N:4]/[C:5]([H:10])([H:11])[H:12])[C:6]([H:13])([H:14])[H:15])([H:7])([H:8])[H:9]>>[C:1]([O:2][C:5]([H:10])([H:11])[H:12])([H:7])([H:8])[H:9].[C:3](#[N:4])[C:6]([H:13])([H:14])[H:15]"
C        1.11678017      -1.07111181      -0.69708957
O        0.07375015      -0.11769092      -0.60192729
C       -0.55808184       0.17816459       0.86948366
N       -0.23105741       1.27966888       1.23978168
C        0.52320017       1.81238264      -0.74959594
C       -1.55643327      -0.88664756       1.16063717
H        1.71334161      -0.84364272      -1.58228089
H        0.67331122      -2.06126061      -0.81506556
H        1.77749295      -1.05800878       0.17485495
H        0.81725472       1.56892873      -1.77100068
H       -0.29820253       2.51883197      -0.78214892
H        1.37529523       2.15369607      -0.17509224
H       -2.35351626      -0.93084047       0.41692710
H       -1.05954786      -1.85789705       1.18565810
H       -2.01358706      -0.68457298       2.12685842
15
Frame=6 idx=003519 GeodesicLength=0.5505649048908151 rxn_smarts="[C:1]([O:2]/[C:3](=[N:4]/[C:5]([H:10])([H:11])[H:12])[C:6]([H:13])([H:14])[H:15])([H:7])([H:8])[H:9]>>[C:1]([O:2][C:5]([H:10])([H:11])[H:12])([H:7])([H:8])[H:9].[C:3](#[N:4])[C:6]([H:13])([H:14])[H:15]"
C        1.15878166      -1.07701682      -0.69058085
O        0.08601466      -0.15723020      -0.60334823
C       -0.52975636       0.15097705       0.89863392
N       -0.16140014       1.24173252       1.26080432
C        0.49341747       1.79684503      -0.75176554
C       -1.58608925      -0.86344900       1.15634363
H        1.75761774      -0.82930525      -1.56910491
H        0.74373870      -2.07864562      -0.81300487
H        1.81400290      -1.04733303       0.18505437
H        0.75606348       1.57716967      -1.78784126
H       -0.33770238       2.49444807      -0.76096945
H        1.36266097       2.16033689      -0.21617577
H       -2.40066842      -0.82529098       0.43164612
H       -1.14370819      -1.86026408       1.11953271
H       -2.01297285      -0.68297425       2.14077581
15
Frame=7 idx=003519 GeodesicLength=0.641127257984471 rxn_smarts="[C:1]([O:2]/[C:3](=[N:4]/[C:5]([H:10])([H:11])[H:12])[C:6]([H:13])([H:14])[H:15])([H:7])([H:8])[H:9]>>[C:1]([O:2][C:5]([H:10])([H:11])[H:12])([H:7])([H:8])[H:9].[C:3](#[N:4])[C:6]([H:13])([H:14])[H:15]"
C        1.20066190      -1.08320156      -0.68492179
O        0.09864582      -0.19885220      -0.60527512
C       -0.50250895       0.12223835       0.92689535
N       -0.09542834       1.20259710       1.27782782
C        0.46325972       1.77890015      -0.75207495
C       -1.61409714      -0.83768435       1.15189385
H        1.80004310      -0.81479050      -1.55725446
H        0.81560103      -2.09607615      -0.81075488
H        1.85061219      -1.03586047       0.19378002
H        0.69492328       1.58307316      -1.80103822
H       -0.37672304       2.46766488      -0.73912376
H        1.34612303       2.16517802      -0.25419473
H       -2.44014056      -0.71657173       0.44987752
H       -1.22826326      -1.85333078       1.05169815
H       -2.01270877      -0.68328390       2.15266520
15
Frame=8 idx=003519 GeodesicLength=0.7318284797648834 rxn_smarts="[C:1]([O:2]/[C:3](=[N:4]/[C:5]([H:10])([H:11])[H:12])[C:6]([H:13])([H:14])[H:15])([H:7])([H:8])[H:9]>>[C:1]([O:2][C:5]([H:10])([H:11])[H:12])([H:7])([H:8])[H:9].[C:3](#[N:4])[C:6]([H:13])([H:14])[H:15]"
C        1.24232587      -1.08960386      -0.68013012
O        0.11165063      -0.24253765      -0.60759241
C       -0.47641673       0.09204898       0.95447677
N       -0.03280329       1.16229649       1.29147471
C        0.43265878       1.75859222      -0.75067282
C       -1.64034365      -0.80942772       1.14724620
H        1.84069006      -0.79992373      -1.54659231
H        0.88872857      -2.11330590      -0.80885449
H        1.88698542      -1.02386597       0.20118853
H        0.63351073       1.58665299      -1.81090986
H       -0.41533838       2.43865693      -0.71651792
H        1.32601174       2.16809234      -0.28934654
H       -2.47139020      -0.60597029       0.47096215
H       -1.31234427      -1.83688268       0.98341477
H       -2.01392530      -0.68482216       2.16185332
15
Frame=9 idx=003519 GeodesicLength=0.8231809248024007 rxn_smarts="[C:1]([O:2]/[C:3](=[N:4]/[C:5]([H:10])([H:11])[H:12])[C:6]([H:13])([H:14])[H:15])([H:7])([H:8])[H:9]>>[C:1]([O:2][C:5]([H:10])([H:11])[H:12])([H:7])([H:8])[H:9].[C:3](#[N:4])[C:6]([H:13])([H:14])[H:15]"
C        1.28387092      -1.09622956      -0.67618061
O        0.12506691      -0.28823284      -0.61014796
C       -0.45147769       0.06048932       0.98173953
N        0.02668538       1.12083397       1.30230640
C        0.40137956       1.73590088      -0.74772367
C       -1.66470544      -0.77854876       1.14232840
H        1.87987859      -0.78448454      -1.53689176
H        0.96326971      -2.13010723      -0.80785493
H        1.92299010      -1.01194862       0.20752825
H        0.57125605       1.58785589      -1.81775020
H       -0.45387191       2.40755328      -0.69296781
H        1.30246163       2.16880697      -0.32192742
H       -2.49412942      -0.49405996       0.49405669
H       -1.39537375      -1.81100850       0.91533989
H       -2.01730065      -0.68682031       2.16814519
15
Frame=10 idx=003519 GeodesicLength=0.9153577981239358 rxn_smarts="[C:1]([O:2]/[C:3](=[N:4]/[C:5]([H:10])([H:11])[H:12])[C:6]([H:13])([H:14])[H:15])([H:7])([H:8])[H:9]>>[C:1]([O:2][C:5]([H:10])([H:11])[H:12])([H:7])([H:8])[H:9].[C:3](#[N:4])[C:6]([H:13])([H:14])[H:15]"
C        1.32506564      -1.10288200      -0.67304633
O        0.13882580      -0.33597667      -0.61288087
C       -0.42794994       0.02774269       1.00864069
N        0.08321120       1.07824058       1.31059982
C        0.36947368       1.71083640      -0.74331321
C       -1.68704577      -0.74524375       1.13710652
H        1.91746670      -0.76815038      -1.52788530
H        1.03900615      -2.14615040      -0.80824528
H        1.95813640      -1.00012380       0.21299439
H        0.50811039       1.58657139      -1.82166831
H       -0.49205464       2.37458598      -0.66850125
H        1.27585630       2.16710695      -0.35205220
H       -2.50846553      -0.38221720       0.51878816
H       -1.47616269      -1.77581433       0.84837788
H       -2.02347367      -0.68852545       2.17108528
15
Frame=11 idx=003519 GeodesicLength=1.0086915443058413 rxn_smarts="[C:1]([O:2]/[C:3](=[N:4]/[C:5]([H:10])([H:11])[H:12])[C:6]([H:13])([H:14])[H:15])([H:7])([H:8])[H:9]>>[C:1]([O:2][C:5]([H:10])([H:11])[H:12])([H:7])([H:8])[H:9].[C:3](#[N:4])[C:6]([H:13])([H:14])[H:15]"
C        1.36579987      -1.10942731      -0.67062723
O        0.15288317      -0.38576083      -0.61568810
C       -0.40602609      -0.00598691       1.03525689
N        0.13682079       1.03457679       1.31660607
C        0.33688176       1.68337602      -0.73757545
C       -1.70722362      -0.70958073       1.13151415
H        1.95343414      -0.75061746      -1.51923038
H        1.11592943      -2.16111302      -0.81037325
H        1.99211234      -0.98861589       0.21786548
H        0.44384778       1.58264756      -1.82280558
H       -0.52980085       2.33999914      -0.64312629
H        1.24648915       2.16265868      -0.37994365
H       -2.51468743      -0.27115083       0.54477986
H       -1.55386927      -1.73161118       0.78275985
H       -2.03259118      -0.68939402       2.17058764
15
Frame=12 idx=003519 GeodesicLength=1.103644158173028 rxn_smarts="[C:1]([O:2]/[C:3](=[N:4]/[C:5]([H:10])([H:11])[H:12])[C:6]([H:13])([H:14])[H:15])([H:7])([H:8])[H:9]>>[C:1]([O:2][C:5]([H:10])([H:11])[H:12])([H:7])([H:8])[H:9].[C:3](#[N:4])[C:6]([H:13])([H:14])[H:15]"
C        1.40590790      -1.11577788      -0.66883145
O        0.16717672      -0.43752377      -0.61849404
C       -0.38599398      -0.04038804       1.06167690
N        0.18744067       0.99002143       1.32058111
C        0.30363590       1.65362639      -0.73068694
C       -1.72512787      -0.67175213       1.12556375
H        1.98770978      -0.73166863      -1.51064234
H        1.19391436      -2.17472616      -0.81454051
H        2.02458728      -0.97770128       0.22243862
H        0.37844936       1.57603799      -1.82136924
H       -0.56691422       2.30424445      -0.61697880
H        1.21475040       2.15525626      -0.40584731
H       -2.51328584      -0.16167944       0.57175876
H       -1.62754715      -1.67890455       0.71866570
H       -2.04470331      -0.68906464       2.16670579
15
Frame=13 idx=003519 GeodesicLength=1.200473383461798 rxn_smarts="[C:1]([O:2]/[C:3](=[N:4]/[C:5]([H:10])([H:11])[H:12])[C:6]([H:13])([H:14])[H:15])([H:7])([H:8])[H:9]>>[C:1]([O:2][C:5]([H:10])([H:11])[H:12])([H:7])([H:8])[H:9].[C:3](#[N:4])[C:6]([H:13])([H:14])[H:15]"
C        1.44515603      -1.12179499      -0.66749370
O        0.18161270      -0.49113758      -0.62117365
C       -0.36806477      -0.07509789       1.08791280
N        0.23494220       0.94475448       1.32265348
C        0.26974397       1.62163028      -0.72278383
C       -1.74057941      -0.63194664       1.11919992
H        2.01999230      -0.71118785      -1.50179669
H        1.27280810      -2.18659785      -0.82068150
H        2.05530321      -0.96746674       0.22690655
H        0.31181953       1.56660240      -1.81743678
H       -0.60316289       2.26777413      -0.59014273
H        1.18108154       2.14446402      -0.43004961
H       -2.50479686      -0.05435223       0.59951775
H       -1.69631692      -1.61816731       0.65591066
H       -2.05953874      -0.68747623       2.15945732
15
Frame=14 idx=003519 GeodesicLength=1.299474848241714 rxn_smarts="[C:1]([O:2]/[C:3](=[N:4]/[C:5]([H:10])([H:11])[H:12])[C:6]([H:13])([H:14])[H:15])([H:7])([H:8])[H:9]>>[C:1]([O:2][C:5]([H:10])([H:11])[H:12])([H:7])([H:8])[H:9].[C:3](#[N:4])[C:6]([H:13])([H:14])[H:15]"
C        1.48319330      -1.12740736      -0.66647143
O        0.19609946      -0.54637660      -0.62367062
C       -0.35257582      -0.10954706       1.11398610
N        0.27912428       0.89923695       1.32301703
C        0.23548351       1.58768865      -0.71413885
C       -1.75353795      -0.59067101       1.11252842
H        2.04998193      -0.68923370      -1.49247875
H        1.35207358      -2.19646956      -0.82879595
H        2.08385364      -0.95801473       0.23155023
H        0.24449241       1.55444548      -1.81132258
H       -0.63811405       2.23118929      -0.56311837
H        1.14607101       2.13037197      -0.45281271
H       -2.49022531       0.04985179       0.62842528
H       -1.75913058      -1.55007015       0.59436548
H       -2.07678940      -0.68499396       2.14893673
15
Frame=15 idx=003519 GeodesicLength=1.4008155939369826 rxn_smarts="[C:1]([O:2]/[C:3](=[N:4]/[C:5]([H:10])([H:11])[H:12])[C:6]([H:13])([H:14])[H:15])([H:7])([H:8])[H:9]>>[C:1]([O:2][C:5]([H:10])([H:11])[H:12])([H:7])([H:8])[H:9].[C:3](#[N:4])[C:6]([H:13])([H:14])[H:15]"
C        1.51969853      -1.13257731      -0.66558312
O        0.21055646      -0.60297881      -0.62587029
C       -0.33967790      -0.14319988       1.13994033
N        0.31988904       0.85386699       1.32182793
C        0.20103290       1.55208620      -0.70499457
C       -1.76394847      -0.54835620       1.10561040
H        2.07733529      -0.66593362      -1.48244197
H        1.43119937      -2.20407352      -0.83869519
H        2.10997504      -0.94947525       0.23656973
H        0.17679961       1.53968661      -1.80328872
H       -0.67146536       2.19506116      -0.53629149
H        1.11026021       2.11297456      -0.47449239
H       -2.47050578       0.15025557       0.65878715
H       -1.81509202      -1.47520701       0.53378008
H       -2.09605694      -0.68212948       2.13514211
15
Frame=16 idx=003519 GeodesicLength=1.50465458500709 rxn_smarts="[C:1]([O:2]/[C:3](=[N:4]/[C:5]([H:10])([H:11])[H:12])[C:6]([H:13])([H:14])[H:15])([H:7])([H:8])[H:9]>>[C:1]([O:2][C:5]([H:10])([H:11])[H:12])([H:7])([H:8])[H:9].[C:3](#[N:4])[C:6]([H:13])([H:14])[H:15]"
C        1.55439888      -1.13732310      -0.66467975
O        0.22494275      -0.66067752      -0.62763461
C       -0.32938917      -0.17554328       1.16587880
N        0.35727059       0.80901717       1.31926563
C        0.16652962       1.51513522      -0.69555029
C       -1.77179971      -0.50542047       1.09851111
H        2.10175393      -0.64147689      -1.47148734
H        1.50964507      -2.20921480      -0.85020636
H        2.13350208      -0.94203239       0.24209666
H        0.10898854       1.52250849      -1.79357498
H       -0.70299554       2.15990067      -0.50995070
H        1.07411270       2.09237430      -0.49548396
H       -2.44655697       0.24625650       0.69080432
H       -1.86334477      -1.39421084       0.47403319
H       -2.11705799      -0.67929305       2.11797827
