13
Frame=0 idx=002368 GeodesicLength=0.0 rxn_smarts="[C:1]1([H:6])([H:7])[C@:2]2([H:8])[C:3]([H:9])([H:10])[C:4]([H:11])([H:12])[C@:5]12[H:13]>>[C:1]1([H:7])=[C:2]([H:8])[C:3]([H:9])([H:10])[C:4]([H:11])([H:12])[C:5]1([H:6])[H:13]"
C        1.62016622      -0.13626654      -0.40818268
C        0.65869158       0.53635998       0.46773643
C       -0.57046650       1.13136666      -0.23180800
C       -1.13432565      -0.29916063      -0.40677636
C        0.10006949      -0.89517855       0.29169773
H        0.78815603      -1.33132781      -0.55941365
H        2.36978941      -0.59943469       0.25473826
H        0.94868910       0.85684602       1.46318694
H       -0.33700690       1.66452761      -1.15213389
H       -1.18829963       1.75927768       0.40968623
H       -2.04334086      -0.47638785       0.16601377
H       -1.28894410      -0.63772869      -1.43063919
H        0.07682182      -1.57289314       1.13589447
13
Frame=1 idx=002368 GeodesicLength=0.09093458044861734 rxn_smarts="[C:1]1([H:6])([H:7])[C@:2]2([H:8])[C:3]([H:9])([H:10])[C:4]([H:11])([H:12])[C@:5]12[H:13]>>[C:1]1([H:7])=[C:2]([H:8])[C:3]([H:9])([H:10])[C:4]([H:11])([H:12])[C:5]1([H:6])[H:13]"
C        1.60655914      -0.15022432      -0.39247536
C        0.66101594       0.54887493       0.47183794
C       -0.57061624       1.13188532      -0.23017638
C       -1.13112758      -0.29972681      -0.40571137
C        0.10333988      -0.89990792       0.28780048
H        0.78893205      -1.34626997      -0.58043352
H        2.36820803      -0.60448013       0.26071724
H        0.95871145       0.88434866       1.45991541
H       -0.34290804       1.66848852      -1.15011468
H       -1.19165537       1.75589853       0.41236186
H       -2.04119260      -0.47901400       0.16478576
H       -1.28521506      -0.63321150      -1.43146702
H        0.07594840      -1.57666130       1.13295962
13
Frame=2 idx=002368 GeodesicLength=0.1818794072682548 rxn_smarts="[C:1]1([H:6])([H:7])[C@:2]2([H:8])[C:3]([H:9])([H:10])[C:4]([H:11])([H:12])[C@:5]12[H:13]>>[C:1]1([H:7])=[C:2]([H:8])[C:3]([H:9])([H:10])[C:4]([H:11])([H:12])[C:5]1([H:6])[H:13]"
C        1.59279265      -0.16415858      -0.37628638
C        0.66343114       0.56127966       0.47582707
C       -0.57075284       1.13227824      -0.22835233
C       -1.12796214      -0.30036467      -0.40473720
C        0.10620284      -0.90502035       0.28408129
H        0.79017819      -1.36060838      -0.60149596
H        2.36645987      -0.60961557       0.26664495
H        0.96944841       0.91250582       1.45572376
H       -0.34894348       1.67243284      -1.14783450
H       -1.19491021       1.75228883       0.41538347
H       -2.03925827      -0.48163096       0.16318860
H       -1.28130045      -0.62870817      -1.43241490
H        0.07461428      -1.58067870       1.13027211
13
Frame=3 idx=002368 GeodesicLength=0.27278239587180064 rxn_smarts="[C:1]1([H:6])([H:7])[C@:2]2([H:8])[C:3]([H:9])([H:10])[C:4]([H:11])([H:12])[C@:5]12[H:13]>>[C:1]1([H:7])=[C:2]([H:8])[C:3]([H:9])([H:10])[C:4]([H:11])([H:12])[C:5]1([H:6])[H:13]"
C        1.57886323      -0.17805794      -0.35959309
C        0.66593430       0.57355500       0.47970234
C       -0.57086694       1.13252127      -0.22632992
C       -1.12483338      -0.30107206      -0.40384042
C        0.10862862      -0.91052677       0.28054299
H        0.79195841      -1.37425381      -0.62261514
H        2.36452020      -0.61483090       0.27252446
H        0.98089117       0.94130433       1.45053058
H       -0.35509907       1.67632848      -1.14527797
H       -1.19804370       1.74841959       0.41875241
H       -2.03754463      -0.48421393       0.16123374
H       -1.27718953      -0.62421654      -1.43345930
H        0.07278130      -1.58495671       1.12782931
13
Frame=4 idx=002368 GeodesicLength=0.3636851905462302 rxn_smarts="[C:1]1([H:6])([H:7])[C@:2]2([H:8])[C:3]([H:9])([H:10])[C:4]([H:11])([H:12])[C@:5]12[H:13]>>[C:1]1([H:7])=[C:2]([H:8])[C:3]([H:9])([H:10])[C:4]([H:11])([H:12])[C:5]1([H:6])[H:13]"
C        1.56476903      -0.19192887      -0.34234521
C        0.66852575       0.58569609       0.48347202
C       -0.57097275       1.13261958      -0.22409346
C       -1.12175167      -0.30185941      -0.40302548
C        0.11059934      -0.91645045       0.27721897
H        0.79433408      -1.38712205      -0.64383424
H        2.36236631      -0.62018100       0.27839468
H        0.99312837       0.97079016       1.44421488
H       -0.36140316       1.68018736      -1.14242977
H       -1.20106967       1.74429759       0.42250031
H       -2.03607456      -0.48678491       0.15888985
H       -1.27286896      -0.61974187      -1.43461388
H        0.07041790      -1.58952223       1.12565134
13
Frame=5 idx=002368 GeodesicLength=0.4545800835099105 rxn_smarts="[C:1]1([H:6])([H:7])[C@:2]2([H:8])[C:3]([H:9])([H:10])[C:4]([H:11])([H:12])[C@:5]12[H:13]>>[C:1]1([H:7])=[C:2]([H:8])[C:3]([H:9])([H:10])[C:4]([H:11])([H:12])[C:5]1([H:6])[H:13]"
C        1.55050060      -0.20576530      -0.32452634
C        0.67121116       0.59770183       0.48714085
C       -0.57106119       1.13257069      -0.22163923
C       -1.11872332      -0.30273183      -0.40228272
C        0.11209355      -0.92281277       0.27411228
H        0.79737143      -1.39915251      -0.66517377
H        2.35998430      -0.62565330       0.28426015
H        1.00613433       1.00093696       1.43670516
H       -0.36784665       1.68401144      -1.13928974
H       -1.20396344       1.73992460       0.42663813
H       -2.03485465      -0.48933361       0.15617505
H       -1.26833778      -0.61529758      -1.43587507
H        0.06749166      -1.59439861       1.12375525
13
Frame=6 idx=002368 GeodesicLength=0.5454366854874723 rxn_smarts="[C:1]1([H:6])([H:7])[C@:2]2([H:8])[C:3]([H:9])([H:10])[C:4]([H:11])([H:12])[C@:5]12[H:13]>>[C:1]1([H:7])=[C:2]([H:8])[C:3]([H:9])([H:10])[C:4]([H:11])([H:12])[C:5]1([H:6])[H:13]"
C        1.53603909      -0.21958847      -0.30606359
C        0.67398509       0.60954354       0.49071737
C       -0.57115134       1.13234655      -0.21894299
C       -1.11575354      -0.30368406      -0.40161717
C        0.11309359      -0.92962485       0.27123632
H        0.80113610      -1.41022588      -0.68664127
H        2.35734113      -0.63129200       0.29017598
H        1.02002899       1.03180574       1.42781276
H       -0.37446712       1.68777494      -1.13580300
H       -1.20674035       1.73524832       0.43119276
H       -2.03389686      -0.49185293       0.15303517
H       -1.26357578      -0.61085544      -1.43723323
H        0.06396101      -1.59959547       1.12213088
13
Frame=7 idx=002368 GeodesicLength=0.636293699209444 rxn_smarts="[C:1]1([H:6])([H:7])[C@:2]2([H:8])[C:3]([H:9])([H:10])[C:4]([H:11])([H:12])[C@:5]12[H:13]>>[C:1]1([H:7])=[C:2]([H:8])[C:3]([H:9])([H:10])[C:4]([H:11])([H:12])[C:5]1([H:6])[H:13]"
C        1.52137133      -0.23340641      -0.28692516
C        0.67684958       0.62122943       0.49421427
C       -0.57124147       1.13195726      -0.21598933
C       -1.11284751      -0.30473255      -0.40102435
C        0.11357712      -0.93691579       0.26860547
H        0.80570505      -1.42026721      -0.70826700
H        2.35441482      -0.63711015       0.29615624
H        1.03483887       1.06340164       1.41741586
H       -0.38126252       1.69150221      -1.13196548
H       -1.20939417       1.73028208       0.43620349
H       -2.03321729      -0.49436472       0.14947391
H       -1.25856300      -0.60643433      -1.43870319
H        0.05976920      -1.60514148       1.12080527
13
Frame=8 idx=002368 GeodesicLength=0.7271406576505451 rxn_smarts="[C:1]1([H:6])([H:7])[C@:2]2([H:8])[C:3]([H:9])([H:10])[C:4]([H:11])([H:12])[C@:5]12[H:13]>>[C:1]1([H:7])=[C:2]([H:8])[C:3]([H:9])([H:10])[C:4]([H:11])([H:12])[C:5]1([H:6])[H:13]"
C        1.50647397      -0.24723302      -0.26705302
C        0.67980466       0.63274620       0.49764122
C       -0.57133458       1.13138923      -0.21276016
C       -1.11001093      -0.30587985      -0.40049914
C        0.11352598      -0.94470267       0.26622538
H        0.81115990      -1.42916336      -0.73006031
H        2.35118082      -0.64312033       0.30223276
H        1.05060534       1.09571676       1.40534558
H       -0.38824405       1.69518224      -1.12774694
H       -1.21191849       1.72500370       0.44169430
H       -2.03282579      -0.49686573       0.14547762
H       -1.25328627      -0.60202641      -1.44027798
H        0.05486944      -1.61104674       1.11978069
13
Frame=9 idx=002368 GeodesicLength=0.8179742631156861 rxn_smarts="[C:1]1([H:6])([H:7])[C@:2]2([H:8])[C:3]([H:9])([H:10])[C:4]([H:11])([H:12])[C@:5]12[H:13]>>[C:1]1([H:7])=[C:2]([H:8])[C:3]([H:9])([H:10])[C:4]([H:11])([H:12])[C:5]1([H:6])[H:13]"
C        1.49132015      -0.26108698      -0.24638509
C        0.68284983       0.64408435       0.50101333
C       -0.57143797       1.13063382      -0.20923262
C       -1.10724775      -0.30713121      -0.40004073
C        0.11292114      -0.95300788       0.26410299
H        0.81758798      -1.43679565      -0.75201807
H        2.34761174      -0.64933868       0.30843804
H        1.06739156       1.12874772       1.39140632
H       -0.39543011       1.69881600      -1.12311496
H       -1.21431287       1.71939295       0.44770331
H       -2.03273249      -0.49936023       0.14102315
H       -1.24772402      -0.59762614      -1.44195931
H        0.04920282      -1.61732809       1.11906365
13
Frame=10 idx=002368 GeodesicLength=0.9087903721199597 rxn_smarts="[C:1]1([H:6])([H:7])[C@:2]2([H:8])[C:3]([H:9])([H:10])[C:4]([H:11])([H:12])[C@:5]12[H:13]>>[C:1]1([H:7])=[C:2]([H:8])[C:3]([H:9])([H:10])[C:4]([H:11])([H:12])[C:5]1([H:6])[H:13]"
C        1.47587986      -0.27498651      -0.22485446
C        0.68598686       0.65523571       0.50434735
C       -0.57155650       1.12968147      -0.20538016
C       -1.10456318      -0.30849430      -0.39964834
C        0.11173967      -0.96185355       0.26224418
H        0.82508524      -1.44303160      -0.77412662
H        2.34368075      -0.65577299       0.31480061
H        1.08526198       1.16247620       1.37537844
H       -0.40283368       1.70240490      -1.11803273
H       -1.21657480       1.71342668       0.45427568
H       -2.03295270      -0.50185626       0.13608599
H       -1.24185137      -0.59323061      -1.44375019
H        0.04269789      -1.62399914       1.11866027
13
Frame=11 idx=002368 GeodesicLength=0.9996161161237846 rxn_smarts="[C:1]1([H:6])([H:7])[C@:2]2([H:8])[C:3]([H:9])([H:10])[C:4]([H:11])([H:12])[C@:5]12[H:13]>>[C:1]1([H:7])=[C:2]([H:8])[C:3]([H:9])([H:10])[C:4]([H:11])([H:12])[C:5]1([H:6])[H:13]"
C        1.46011260      -0.28895231      -0.20238933
C        0.68921939       0.66619740       0.50766423
C       -0.57169346       1.12853205      -0.20117429
C       -1.10196157      -0.30998111      -0.39932461
C        0.10995768      -0.97127390       0.26065600
H        0.83375560      -1.44773788      -0.79636611
H        2.33935601      -0.66242972       0.32134971
H        1.10427682       1.19688748       1.35702034
H       -0.41047051       1.70597296      -1.11246638
H       -1.21869433       1.70709060       0.46146741
H       -2.03349749      -0.50436929       0.13064429
H       -1.23564296      -0.58884041      -1.44566812
H        0.03528221      -1.63109586       1.11858684
13
Frame=12 idx=002368 GeodesicLength=1.090382235872434 rxn_smarts="[C:1]1([H:6])([H:7])[C@:2]2([H:8])[C:3]([H:9])([H:10])[C:4]([H:11])([H:12])[C@:5]12[H:13]>>[C:1]1([H:7])=[C:2]([H:8])[C:3]([H:9])([H:10])[C:4]([H:11])([H:12])[C:5]1([H:6])[H:13]"
C        1.44397559      -0.30301823      -0.17889415
C        0.69254725       0.67694038       0.51094403
C       -0.57186075       1.12715775      -0.19659987
C       -1.09943192      -0.31156814      -0.39904774
C        0.10757956      -0.98125293       0.25934149
H        0.84373142      -1.45069128      -0.81866775
H        2.33460369      -0.66933095       0.32810392
H        1.12440064       1.23176492       1.33606202
H       -0.41838947       1.70947481      -1.10636539
H       -1.22066771       1.70034638       0.46927796
H       -2.03434607      -0.50685039       0.12467927
H       -1.22906625      -0.58442418      -1.44764927
H        0.02692403      -1.63854814       1.11881549
13
Frame=13 idx=002368 GeodesicLength=1.1811072629816426 rxn_smarts="[C:1]1([H:6])([H:7])[C@:2]2([H:8])[C:3]([H:9])([H:10])[C:4]([H:11])([H:12])[C@:5]12[H:13]>>[C:1]1([H:7])=[C:2]([H:8])[C:3]([H:9])([H:10])[C:4]([H:11])([H:12])[C:5]1([H:6])[H:13]"
C        1.42741304      -0.31720633      -0.15427131
C        0.69597294       0.68744709       0.51424475
C       -0.57207565       1.12553955      -0.19157329
C       -1.09698287      -0.31327269      -0.39885220
C        0.10454372      -0.99183432       0.25830808
H        0.85513546      -1.45177253      -0.84091869
H        2.32938261      -0.67645786       0.33510317
H        1.14585676       1.26722135       1.31203782
H       -0.42660768       1.71295161      -1.09960774
H       -1.22251435       1.69310585       0.47785346
H       -2.03554898      -0.50934204       0.11807943
H       -1.22203987      -0.57994778      -1.44975649
H        0.01746486      -1.64643191       1.11935301
13
Frame=14 idx=002368 GeodesicLength=1.2718361435623553 rxn_smarts="[C:1]1([H:6])([H:7])[C@:2]2([H:8])[C:3]([H:9])([H:10])[C:4]([H:11])([H:12])[C@:5]12[H:13]>>[C:1]1([H:7])=[C:2]([H:8])[C:3]([H:9])([H:10])[C:4]([H:11])([H:12])[C:5]1([H:6])[H:13]"
C        1.41036620      -0.33154244      -0.12842944
C        0.69951306       0.69773287       0.51757442
C       -0.57233896       1.12369593      -0.18606796
C       -1.09460931      -0.31510756      -0.39873595
C        0.10083594      -1.00305336       0.25756853
H        0.86810784      -1.45077337      -0.86304181
H        2.32364863      -0.68381088       0.34235320
H        1.16864822       1.30308180       1.28464646
H       -0.43516613       1.71644888      -1.09217601
H       -1.22420915       1.68537710       0.48726154
H       -2.03710079      -0.51186345       0.11082643
H       -1.21452574      -0.57542081      -1.45200611
H        0.00683018      -1.65476470       1.12022670
13
Frame=15 idx=002368 GeodesicLength=1.362544948553835 rxn_smarts="[C:1]1([H:6])([H:7])[C@:2]2([H:8])[C:3]([H:9])([H:10])[C:4]([H:11])([H:12])[C@:5]12[H:13]>>[C:1]1([H:7])=[C:2]([H:8])[C:3]([H:9])([H:10])[C:4]([H:11])([H:12])[C:5]1([H:6])[H:13]"
C        1.39277336      -0.34604847      -0.10125916
C        0.70318851       0.70779055       0.52093162
C       -0.57265763       1.12161195      -0.18003784
C       -1.09230658      -0.31706628      -0.39869972
C        0.09643228      -1.01491599       0.25712798
H        0.88281327      -1.44746307      -0.88487686
H        2.31736494      -0.69136040       0.34984594
H        1.19279284       1.33912442       1.25347971
H       -0.44410601       1.71996917      -1.08399116
H       -1.22574174       1.67710817       0.49757833
H       -2.03901014      -0.51439960       0.10286546
H       -1.20646053      -0.57081813      -1.45438881
H       -0.00508257      -1.66353233       1.12142450
13
Frame=16 idx=002368 GeodesicLength=1.4532264342231322 rxn_smarts="[C:1]1([H:6])([H:7])[C@:2]2([H:8])[C:3]([H:9])([H:10])[C:4]([H:11])([H:12])[C@:5]12[H:13]>>[C:1]1([H:7])=[C:2]([H:8])[C:3]([H:9])([H:10])[C:4]([H:11])([H:12])[C:5]1([H:6])[H:13]"
C        1.37456182      -0.36074310      -0.07264996
C        0.70703106       0.71762451       0.52429939
C       -0.57303825       1.11928351      -0.17343693
C       -1.09006305      -0.31914170      -0.39874715
C        0.09131249      -1.02742845       0.25699596
H        0.89942646      -1.44159866      -0.90621839
H        2.31048284      -0.69906515       0.35755548
H        1.21828248       1.37505928       1.21811110
H       -0.45348546       1.72353532      -1.07497788
H       -1.22709143       1.66825290       0.50889261
H       -2.04127349      -0.51693797       0.09413760
H       -1.19776940      -0.56611428      -1.45690225
H       -0.01837606      -1.67272620       1.12294043
