13
Frame=0 idx=009765 GeodesicLength=0.0 rxn_smarts="[O:1]([C:2]([C:3]#[C:4][C:5]([C:6](=[O:7])[H:13])([H:11])[H:12])([H:9])[H:10])[H:8]>>[O:1]([C:2]([c:3]1[c:4]([H:11])[c:5]([H:12])[c:6]([H:13])[o:7]1)([H:9])[H:10])[H:8]"
O        2.33706372       1.20317836       0.31346139
C        1.76158779       0.24575721      -0.53190825
C        0.35323407      -0.01461823      -0.10596053
C       -0.31618867       0.46285531       0.98206560
C       -1.66909032      -0.18987486       0.75284235
C       -1.55407665      -1.04074783      -0.36017019
O       -0.36715402      -0.91690372      -0.87572769
H        1.67292744       1.41673480       0.98518004
H        2.34109340      -0.68619903      -0.50114981
H        1.77915000       0.60278749      -1.56966414
H       -1.62359784       0.87597244       0.28911642
H       -2.48118081      -0.23188824       1.46480060
H       -2.23376806      -1.72705372      -0.84288580
13
Frame=1 idx=009765 GeodesicLength=0.14175115784924266 rxn_smarts="[O:1]([C:2]([C:3]#[C:4][C:5]([C:6](=[O:7])[H:13])([H:11])[H:12])([H:9])[H:10])[H:8]>>[O:1]([C:2]([c:3]1[c:4]([H:11])[c:5]([H:12])[c:6]([H:13])[o:7]1)([H:9])[H:10])[H:8]"
O        2.33463217       1.24574849       0.27583094
C        1.77526976       0.23176751      -0.51344798
C        0.35183040       0.00345044      -0.12279476
C       -0.31115631       0.41219455       0.99060789
C       -1.67052668      -0.21213898       0.75662853
C       -1.58516921      -1.00707491      -0.40111357
O       -0.42116097      -0.85299097      -0.95459076
H        1.66787383       1.49011297       0.93336454
H        2.34937842      -0.69726090      -0.40095462
H        1.84151113       0.51704216      -1.57088497
H       -1.61935021       0.89895412       0.36668520
H       -2.46081408      -0.29989319       1.48874564
H       -2.25231825      -1.72991128      -0.84807608
13
Frame=2 idx=009765 GeodesicLength=0.28339589758202666 rxn_smarts="[O:1]([C:2]([C:3]#[C:4][C:5]([C:6](=[O:7])[H:13])([H:11])[H:12])([H:9])[H:10])[H:8]>>[O:1]([C:2]([c:3]1[c:4]([H:11])[c:5]([H:12])[c:6]([H:13])[o:7]1)([H:9])[H:10])[H:8]"
O        2.33171091       1.28633380       0.23240221
C        1.78709903       0.21852130      -0.49491031
C        0.35203569       0.01836011      -0.13469745
C       -0.30724882       0.36387352       0.99610232
C       -1.67239967      -0.23318148       0.75867225
C       -1.61544050      -0.97348286      -0.43810170
O       -0.47607201      -0.78467400      -1.02693121
H        1.66637480       1.55616466       0.88046518
H        2.35544711      -0.70085045      -0.30238802
H        1.89656986       0.42915474      -1.56574863
H       -1.61253355       0.91752246       0.44397688
H       -2.44123554      -0.36680815       1.50658727
H       -2.26430730      -1.73093364      -0.85542879
13
Frame=3 idx=009765 GeodesicLength=0.42500716752421164 rxn_smarts="[O:1]([C:2]([C:3]#[C:4][C:5]([C:6](=[O:7])[H:13])([H:11])[H:12])([H:9])[H:10])[H:8]>>[O:1]([C:2]([c:3]1[c:4]([H:11])[c:5]([H:12])[c:6]([H:13])[o:7]1)([H:9])[H:10])[H:8]"
O        2.32810127       1.32492995       0.18268140
C        1.79767932       0.20597962      -0.47644461
C        0.35424179       0.02821108      -0.14106927
C       -0.30469356       0.31703677       0.99990114
C       -1.67541857      -0.25279467       0.75924723
C       -1.64494218      -0.94040232      -0.47137034
O       -0.53146570      -0.71295445      -1.09194158
H        1.66854437       1.61566112       0.82681550
H        2.36191989      -0.69628245      -0.20654707
H        1.94386729       0.34015857      -1.55472829
H       -1.60300895       0.93200322       0.52085222
H       -2.42401814      -0.43148783       1.51834860
H       -2.27080683      -1.73005861      -0.86574491
13
Frame=4 idx=009765 GeodesicLength=0.5658604633630453 rxn_smarts="[O:1]([C:2]([C:3]#[C:4][C:5]([C:6](=[O:7])[H:13])([H:11])[H:12])([H:9])[H:10])[H:8]>>[O:1]([C:2]([c:3]1[c:4]([H:11])[c:5]([H:12])[c:6]([H:13])[o:7]1)([H:9])[H:10])[H:8]"
O        2.32323905       1.36100069       0.12673260
C        1.80732948       0.19382325      -0.45768742
C        0.35813627       0.03282743      -0.14248689
C       -0.30339116       0.27049014       1.00266586
C       -1.67928537      -0.27141027       0.75869672
C       -1.67347660      -0.90750671      -0.50137856
O       -0.58695115      -0.63855972      -1.14896117
H        1.67292200       1.67085812       0.77050419
H        2.36983225      -0.68363178      -0.11271271
H        1.98409466       0.25000381      -1.53768365
H       -1.59024399       0.94215755       0.59794494
H       -2.40885312      -0.49450273       1.52454249
H       -2.27335231      -1.72554978      -0.88017640
13
Frame=5 idx=009765 GeodesicLength=0.7065939894615086 rxn_smarts="[O:1]([C:2]([C:3]#[C:4][C:5]([C:6](=[O:7])[H:13])([H:11])[H:12])([H:9])[H:10])[H:8]>>[O:1]([C:2]([c:3]1[c:4]([H:11])[c:5]([H:12])[c:6]([H:13])[o:7]1)([H:9])[H:10])[H:8]"
O        2.31744848       1.39395638       0.06491164
C        1.81691531       0.18187977      -0.43833027
C        0.36356372       0.03245871      -0.13969532
C       -0.30320277       0.22342550       1.00513160
C       -1.68425837      -0.28948726       0.75759916
C       -1.70133098      -0.87457239      -0.52874683
O       -0.64215791      -0.56185035      -1.19827191
H        1.67844740       1.72396192       0.70931468
H        2.38001363      -0.66306944      -0.02053683
H        2.01932237       0.15883412      -1.51448270
H       -1.57462768       0.94760685       0.67658264
H       -2.39635750      -0.55634723       1.52599040
H       -2.27377568      -1.71679657      -0.89946625
13
Frame=6 idx=009765 GeodesicLength=0.8467601654034669 rxn_smarts="[O:1]([C:2]([C:3]#[C:4][C:5]([C:6](=[O:7])[H:13])([H:11])[H:12])([H:9])[H:10])[H:8]>>[O:1]([C:2]([c:3]1[c:4]([H:11])[c:5]([H:12])[c:6]([H:13])[o:7]1)([H:9])[H:10])[H:8]"
O        2.31012310       1.42287952      -0.00238889
C        1.82684290       0.17022296      -0.41789874
C        0.37073847       0.02690904      -0.13336841
C       -0.30351535       0.17442166       1.00747764
C       -1.69001738      -0.30734598       0.75614814
C       -1.72855207      -0.84097473      -0.55382172
O       -0.69638830      -0.48363683      -1.23995964
H        1.68290769       1.77582027       0.64078483
H        2.39281519      -0.63387333       0.07051011
H        2.05124655       0.06727804      -1.48440684
H       -1.55542114       0.94765609       0.75767754
H       -2.38657484      -0.61702382       1.52290798
H       -2.27420484      -1.70233289      -0.92366201
13
Frame=7 idx=009765 GeodesicLength=0.9863702927135605 rxn_smarts="[O:1]([C:2]([C:3]#[C:4][C:5]([C:6](=[O:7])[H:13])([H:11])[H:12])([H:9])[H:10])[H:8]>>[O:1]([C:2]([c:3]1[c:4]([H:11])[c:5]([H:12])[c:6]([H:13])[o:7]1)([H:9])[H:10])[H:8]"
O        2.30244913       1.44626113      -0.07431367
C        1.83686832       0.15907283      -0.39627378
C        0.37876418       0.01910017      -0.12489058
C       -0.30480162       0.12479972       1.00899833
C       -1.69642276      -0.32516272       0.75437637
C       -1.75487510      -0.80671572      -0.57678608
O       -0.74994373      -0.40306726      -1.27465430
H        1.68733826       1.82588596       0.56463606
H        2.40591003      -0.59686114       0.16040296
H        2.08100084      -0.02408154      -1.44706489
H       -1.53399648       0.94181402       0.84133374
H       -2.37875450      -0.67741741       1.51579512
H       -2.27353657      -1.68362807      -0.95155926
13
Frame=8 idx=009765 GeodesicLength=1.1254719315928456 rxn_smarts="[O:1]([C:2]([C:3]#[C:4][C:5]([C:6](=[O:7])[H:13])([H:11])[H:12])([H:9])[H:10])[H:8]>>[O:1]([C:2]([c:3]1[c:4]([H:11])[c:5]([H:12])[c:6]([H:13])[o:7]1)([H:9])[H:10])[H:8]"
O        2.29623651       1.46295930      -0.14979416
C        1.84667421       0.14884254      -0.37351341
C        0.38681643       0.01184697      -0.11511454
C       -0.30765357       0.07602341       1.00914856
C       -1.70352508      -0.34309867       0.75226555
C       -1.78006244      -0.77231105      -0.59765172
O       -0.80326481      -0.31997263      -1.30282116
H        1.69369586       1.87347887       0.48121335
H        2.41724908      -0.55298849       0.24846265
H        2.10881547      -0.11413337      -1.40234765
H       -1.51195161       0.92962971       0.92716853
H       -2.37239643      -0.73802104       1.50497412
H       -2.27063363      -1.66225554      -0.98199013
13
Frame=9 idx=009765 GeodesicLength=1.2643074768601719 rxn_smarts="[O:1]([C:2]([C:3]#[C:4][C:5]([C:6](=[O:7])[H:13])([H:11])[H:12])([H:9])[H:10])[H:8]>>[O:1]([C:2]([c:3]1[c:4]([H:11])[c:5]([H:12])[c:6]([H:13])[o:7]1)([H:9])[H:10])[H:8]"
O        2.29322601       1.47232046      -0.22831209
C        1.85578919       0.13997224      -0.34980495
C        0.39408652       0.00795586      -0.10435304
C       -0.31265632       0.02978246       1.00772755
C       -1.71143696      -0.36135157       0.74976818
C       -1.80398354      -0.73848420      -0.61654420
O       -0.85726599      -0.23412016      -1.32485781
H        1.70496214       1.91784486       0.39149080
H        2.42506080      -0.50296715       0.33397985
H        2.13417396      -0.20236305      -1.35033000
H       -1.49108533       0.91082708       1.01482588
H       -2.36687394      -0.79950455       1.49061934
H       -2.26399653      -1.63991226      -1.01420953
13
Frame=10 idx=009765 GeodesicLength=1.4031417267024664 rxn_smarts="[O:1]([C:2]([C:3]#[C:4][C:5]([C:6](=[O:7])[H:13])([H:11])[H:12])([H:9])[H:10])[H:8]>>[O:1]([C:2]([c:3]1[c:4]([H:11])[c:5]([H:12])[c:6]([H:13])[o:7]1)([H:9])[H:10])[H:8]"
O        2.29387845       1.47388388      -0.30988080
C        1.86413158       0.13279488      -0.32504666
C        0.40054219       0.00822637      -0.09226091
C       -0.31970261      -0.01393322       1.00492016
C       -1.72015822      -0.38021725       0.74687652
C       -1.82685815      -0.70525955      -0.63371958
O       -0.91284647      -0.14545709      -1.34081114
H        1.72209376       1.95852208       0.29483361
H        2.42925366      -0.44623239       0.41681069
H        2.15684731      -0.28845699      -1.29044547
H       -1.47170300       0.88480818       1.10434971
H       -2.36197300      -0.86218685       1.47270349
H       -2.25350549      -1.61649205      -1.04832963
13
Frame=11 idx=009765 GeodesicLength=1.5420501087076823 rxn_smarts="[O:1]([C:2]([C:3]#[C:4][C:5]([C:6](=[O:7])[H:13])([H:11])[H:12])([H:9])[H:10])[H:8]>>[O:1]([C:2]([c:3]1[c:4]([H:11])[c:5]([H:12])[c:6]([H:13])[o:7]1)([H:9])[H:10])[H:8]"
O        2.29809364       1.46713402      -0.39503015
C        1.87168077       0.12754459      -0.29898767
C        0.40630061       0.01285858      -0.07816798
C       -0.32850993      -0.05555917       1.00113505
C       -1.72960749      -0.40002459       0.74357428
C       -1.84888619      -0.67222671      -0.64946739
O       -0.97076426      -0.05353936      -1.35039169
H        1.74518950       1.99509562       0.18966381
H        2.43008323      -0.38174861       0.49709068
H        2.17685447      -0.37252134      -1.22162150
H       -1.45368550       0.85062104       1.19624742
H       -2.35744700      -0.92656527       1.45085157
H       -2.23930186      -1.59106881      -1.08489643
13
Frame=12 idx=009765 GeodesicLength=1.6809261510324986 rxn_smarts="[O:1]([C:2]([C:3]#[C:4][C:5]([C:6](=[O:7])[H:13])([H:11])[H:12])([H:9])[H:10])[H:8]>>[O:1]([C:2]([c:3]1[c:4]([H:11])[c:5]([H:12])[c:6]([H:13])[o:7]1)([H:9])[H:10])[H:8]"
O        2.30551113       1.45120455      -0.48417567
C        1.87843278       0.12456249      -0.27143834
C        0.41138849       0.02216603      -0.06152476
C       -0.33889724      -0.09522362       0.99652007
C       -1.73966748      -0.42106493       0.73979106
C       -1.87023070      -0.63905181      -0.66396206
O       -1.03189319       0.04206396      -1.35309058
H        1.77459806       2.02631109       0.07490488
H        2.42777356      -0.30810250       0.57461047
H        2.19418144      -0.45425220      -1.14263830
H       -1.43683985       0.80715309       1.29060226
H       -2.35295258      -0.99297505       1.42468529
H       -2.22140443      -1.56279111      -1.12428431
13
Frame=13 idx=009765 GeodesicLength=1.8193305094643955 rxn_smarts="[O:1]([C:2]([C:3]#[C:4][C:5]([C:6](=[O:7])[H:13])([H:11])[H:12])([H:9])[H:10])[H:8]>>[O:1]([C:2]([c:3]1[c:4]([H:11])[c:5]([H:12])[c:6]([H:13])[o:7]1)([H:9])[H:10])[H:8]"
O        2.31498703       1.42524588      -0.57709984
C        1.88443166       0.12427279      -0.24235858
C        0.41603175       0.03541623      -0.04185227
C       -0.35047303      -0.13384120       0.99096092
C       -1.75025255      -0.44322074       0.73523787
C       -1.89116511      -0.60512224      -0.67720708
O       -1.09698032       0.14079204      -1.34836475
H        1.81016413       2.05046760      -0.04966935
H        2.42301173      -0.22350664       0.64855894
H        2.20896285      -0.53263065      -1.05242613
H       -1.42051571       0.75322898       1.38669517
H       -2.34837458      -1.06084930       1.39373597
H       -2.19982785      -1.53025274      -1.16621088
13
Frame=14 idx=009765 GeodesicLength=1.956944313205653 rxn_smarts="[O:1]([C:2]([C:3]#[C:4][C:5]([C:6](=[O:7])[H:13])([H:11])[H:12])([H:9])[H:10])[H:8]>>[O:1]([C:2]([c:3]1[c:4]([H:11])[c:5]([H:12])[c:6]([H:13])[o:7]1)([H:9])[H:10])[H:8]"
O        2.32552861       1.38777091      -0.67299519
C        1.88983519       0.12702454      -0.21167608
C        0.42036658       0.05248677      -0.01884792
C       -0.36292580      -0.17083939       0.98434311
C       -1.76104842      -0.46650244       0.72981951
C       -1.91169789      -0.57029969      -0.68922477
O       -1.16676816       0.24258552      -1.33551258
H        1.85102890       2.06504165      -0.18415412
H        2.41589311      -0.12697012       0.71750357
H        2.22204785      -0.60582028      -0.94987598
H       -1.40399712       0.68809475       1.48376307
H       -2.34322819      -1.12990273       1.35763735
H       -2.17503465      -1.49266949      -1.21077998
13
Frame=15 idx=009765 GeodesicLength=2.092842842325399 rxn_smarts="[O:1]([C:2]([C:3]#[C:4][C:5]([C:6](=[O:7])[H:13])([H:11])[H:12])([H:9])[H:10])[H:8]>>[O:1]([C:2]([c:3]1[c:4]([H:11])[c:5]([H:12])[c:6]([H:13])[o:7]1)([H:9])[H:10])[H:8]"
O        2.33542167       1.33779477      -0.76996756
C        1.89515171       0.13308573      -0.17909742
C        0.42515339       0.07078695       0.00744082
C       -0.37554999      -0.20721418       0.97621346
C       -1.77173057      -0.49050477       0.72323654
C       -1.93195058      -0.53337500      -0.69984126
O       -1.24094945       0.34676914      -1.31384456
H        1.89344596       2.06740936      -0.32955055
H        2.40689304      -0.01734160       0.78007093
H        2.23569236      -0.67138418      -0.83367270
H       -1.38546704       0.61062512       1.58050363
H       -2.33778414      -1.19896151       1.31592573
H       -2.14832636      -1.44768983      -1.25741706
13
Frame=16 idx=009765 GeodesicLength=2.227151901587181 rxn_smarts="[O:1]([C:2]([C:3]#[C:4][C:5]([C:6](=[O:7])[H:13])([H:11])[H:12])([H:9])[H:10])[H:8]>>[O:1]([C:2]([c:3]1[c:4]([H:11])[c:5]([H:12])[c:6]([H:13])[o:7]1)([H:9])[H:10])[H:8]"
O        2.34367479       1.27486118      -0.86510565
C        1.90073702       0.14273227      -0.14499274
C        0.43063566       0.08849849       0.03613051
C       -0.38802628      -0.24243280       0.96597555
C       -1.78205879      -0.51452312       0.71535456
C       -1.95230427      -0.49422860      -0.70894936
O       -1.32015744       0.45182018      -1.28361480
H        1.93588180       2.05467885      -0.48301126
H        2.39564885       0.10505435       0.83379221
H        2.25195238      -0.72602220      -0.70422930
H       -1.36384987       0.52107174       1.67468316
H       -2.33168880      -1.26650835       1.26906510
H       -2.12044506      -1.39500200      -1.30509801
