15
Frame=0 idx=009927 GeodesicLength=0.0 rxn_smarts="[N:1]([C@@:2]([C:3]([C:4]([O:5][H:15])([H:13])[H:14])([H:11])[H:12])([C:6]#[N:7])[H:10])([H:8])[H:9]>>[N:1]([C@@:2]1([H:10])[C:3]([H:11])([H:12])[C:4]([H:13])([H:14])/[C:6]1=[N:7]\[O:5][H:15])([H:8])[H:9]"
N       -2.24735521      -0.39794136       0.16843828
C       -0.82646638      -0.55098072       0.37061449
C        0.01636534      -0.79477494      -0.88272269
C        1.29000475      -0.11833251      -0.40562109
O        1.77931046       1.91443087       0.25362029
C       -0.11179464       0.70513754       0.73077503
N       -0.00965755       1.79223412       1.18589353
H       -2.66254385      -1.27993783      -0.10116533
H       -2.70597726      -0.07772517       1.01052446
H       -0.54969281      -1.28711079       1.14015964
H       -0.42700380      -0.23822631      -1.70950382
H        0.15510272      -1.83542274      -1.19306316
H        1.96303959       0.24749777      -1.16561527
H        1.81074820      -0.61855889       0.40301355
H        2.52592038       2.53971090       0.19465210
15
Frame=1 idx=009927 GeodesicLength=0.058772241946845445 rxn_smarts="[N:1]([C@@:2]([C:3]([C:4]([O:5][H:15])([H:13])[H:14])([H:11])[H:12])([C:6]#[N:7])[H:10])([H:8])[H:9]>>[N:1]([C@@:2]1([H:10])[C:3]([H:11])([H:12])[C:4]([H:13])([H:14])/[C:6]1=[N:7]\[O:5][H:15])([H:8])[H:9]"
N       -2.25200725      -0.40835588       0.16274960
C       -0.82969589      -0.54484082       0.36878186
C        0.01675078      -0.80509371      -0.87960760
C        1.28269159      -0.09777800      -0.42107363
O        1.82220723       1.87824722       0.32282475
C       -0.13222546       0.72773655       0.69951819
N       -0.02133881       1.80938125       1.16784519
H       -2.66051901      -1.30218389      -0.07626878
H       -2.71072525      -0.06206835       0.99447215
H       -0.54648826      -1.26190909       1.15352291
H       -0.43490758      -0.27808984      -1.72102446
H        0.16477223      -1.85290067      -1.15904466
H        1.92166218       0.29415433      -1.19823871
H        1.83661180      -0.62415302       0.34872049
H        2.54321171       2.52785392       0.23682268
15
Frame=2 idx=009927 GeodesicLength=0.11631987928238247 rxn_smarts="[N:1]([C@@:2]([C:3]([C:4]([O:5][H:15])([H:13])[H:14])([H:11])[H:12])([C:6]#[N:7])[H:10])([H:8])[H:9]>>[N:1]([C@@:2]1([H:10])[C:3]([H:11])([H:12])[C:4]([H:13])([H:14])/[C:6]1=[N:7]\[O:5][H:15])([H:8])[H:9]"
N       -2.25560286      -0.41750816       0.15700376
C       -0.83214651      -0.53775982       0.36715358
C        0.01841454      -0.81453652      -0.87569335
C        1.27663709      -0.07873707      -0.43504905
O        1.85864402       1.83891592       0.38706552
C       -0.15205658       0.75043107       0.66813478
N       -0.03019603       1.82500185       1.15224501
H       -2.65744779      -1.32179189      -0.05197147
H       -2.71501696      -0.04609582       0.97749025
H       -0.54321861      -1.23557690       1.16671856
H       -0.44011759      -0.31671354      -1.73094248
H        0.17492619      -1.86848798      -1.12458911
H        1.87965097       0.34162519      -1.22694497
H        1.86415469      -0.63004560       0.29198018
H        2.55337543       2.51127928       0.27739879
15
Frame=3 idx=009927 GeodesicLength=0.17310979764437373 rxn_smarts="[N:1]([C@@:2]([C:3]([C:4]([O:5][H:15])([H:13])[H:14])([H:11])[H:12])([C:6]#[N:7])[H:10])([H:8])[H:9]>>[N:1]([C@@:2]1([H:10])[C:3]([H:11])([H:12])[C:4]([H:13])([H:14])/[C:6]1=[N:7]\[O:5][H:15])([H:8])[H:9]"
N       -2.25833579      -0.42622589       0.15139607
C       -0.83392704      -0.52977098       0.36568923
C        0.02098593      -0.82335595      -0.87106982
C        1.27132157      -0.06061869      -0.44836987
O        1.88791780       1.79861959       0.44392921
C       -0.17181057       0.77353198       0.63587016
N       -0.03757326       1.83945460       1.13794726
H       -2.65317986      -1.34004085      -0.02684553
H       -2.71898488      -0.02973173       0.95936122
H       -0.53949967      -1.20771382       1.17991276
H       -0.44347605      -0.35488226      -1.73948912
H        0.18560492      -1.88253063      -1.08928935
H        1.83663986       0.38922471      -1.25272272
H        1.89315762      -0.63462861       0.23191623
H        2.56115942       2.48866852       0.32176427
15
Frame=4 idx=009927 GeodesicLength=0.22937474933309 rxn_smarts="[N:1]([C@@:2]([C:3]([C:4]([O:5][H:15])([H:13])[H:14])([H:11])[H:12])([C:6]#[N:7])[H:10])([H:8])[H:9]>>[N:1]([C@@:2]1([H:10])[C:3]([H:11])([H:12])[C:4]([H:13])([H:14])/[C:6]1=[N:7]\[O:5][H:15])([H:8])[H:9]"
N       -2.26047073      -0.43441908       0.14607054
C       -0.83523897      -0.52105005       0.36449282
C        0.02439170      -0.83154103      -0.86574237
C        1.26693152      -0.04356639      -0.46077042
O        1.91161837       1.75739167       0.49514234
C       -0.19132479       0.79663316       0.60347231
N       -0.04399077       1.85290942       1.12457647
H       -2.64820542      -1.35658867      -0.00197796
H       -2.72286323      -0.01391346       0.94087308
H       -0.53574277      -1.17885036       1.19298906
H       -0.44496511      -0.39223840      -1.74660883
H        0.19653666      -1.89503883      -1.05348813
H        1.79335251       0.43613582      -1.27528833
H        1.92318395      -0.63790942       0.16878829
H        2.56678708       2.46204562       0.36747114
15
Frame=5 idx=009927 GeodesicLength=0.28527383006213874 rxn_smarts="[N:1]([C@@:2]([C:3]([C:4]([O:5][H:15])([H:13])[H:14])([H:11])[H:12])([C:6]#[N:7])[H:10])([H:8])[H:9]>>[N:1]([C@@:2]1([H:10])[C:3]([H:11])([H:12])[C:4]([H:13])([H:14])/[C:6]1=[N:7]\[O:5][H:15])([H:8])[H:9]"
N       -2.26185951      -0.44227555       0.14107506
C       -0.83604926      -0.51172674       0.36353475
C        0.02848276      -0.83906435      -0.85968205
C        1.26320306      -0.02743390      -0.47240843
O        1.93017343       1.71522707       0.54169266
C       -0.21057739       0.81946405       0.57108134
N       -0.05029203       1.86575930       1.11087943
H       -2.64226909      -1.37175483       0.02329947
H       -2.72643852       0.00165212       0.92175174
H       -0.53184735      -1.14922647       1.20578574
H       -0.44485009      -0.42863742      -1.75215553
H        0.20772801      -1.90599016      -1.01715054
H        1.74972685       0.48203436      -1.29467922
H        1.95382806      -0.63951301       0.10209541
H        2.57104107       2.43148550       0.41488016
15
Frame=6 idx=009927 GeodesicLength=0.34105831601984704 rxn_smarts="[N:1]([C@@:2]([C:3]([C:4]([O:5][H:15])([H:13])[H:14])([H:11])[H:12])([C:6]#[N:7])[H:10])([H:8])[H:9]>>[N:1]([C@@:2]1([H:10])[C:3]([H:11])([H:12])[C:4]([H:13])([H:14])/[C:6]1=[N:7]\[O:5][H:15])([H:8])[H:9]"
N       -2.26282279      -0.44976265       0.13644749
C       -0.83651878      -0.50197095       0.36289918
C        0.03325822      -0.84600485      -0.85296451
C        1.26035824      -0.01219441      -0.48331804
O        1.94470283       1.67201787       0.58476015
C       -0.22941575       0.84172347       0.53921694
N       -0.05651052       1.87818205       1.09665801
H       -2.63592154      -1.38543775       0.04855026
H       -2.73003275       0.01669023       0.90238531
H       -0.52806926      -1.11920238       1.21839651
H       -0.44321968      -0.46409118      -1.75632639
H        0.21924154      -1.91548541      -0.98042016
H        1.70638251       0.52658664      -1.31107367
H        1.98479259      -0.63905899       0.03197625
H        2.57377514       2.39800832       0.46281267
15
Frame=7 idx=009927 GeodesicLength=0.3965650790911284 rxn_smarts="[N:1]([C@@:2]([C:3]([C:4]([O:5][H:15])([H:13])[H:14])([H:11])[H:12])([C:6]#[N:7])[H:10])([H:8])[H:9]>>[N:1]([C@@:2]1([H:10])[C:3]([H:11])([H:12])[C:4]([H:13])([H:14])/[C:6]1=[N:7]\[O:5][H:15])([H:8])[H:9]"
N       -2.26303613      -0.45680910       0.13211074
C       -0.83658351      -0.49188912       0.36250959
C        0.03861689      -0.85241769      -0.84547089
C        1.25811966       0.00223681      -0.49353286
O        1.95561156       1.62763737       0.62490175
C       -0.24770796       0.86322548       0.50810153
N       -0.06239067       1.89019274       1.08173835
H       -2.62892726      -1.39756439       0.07351800
H       -2.73315420       0.03125671       0.88265610
H       -0.52445670      -1.08903414       1.23054483
H       -0.44020036      -0.49865627      -1.75887341
H        0.23109307      -1.92359179      -0.94313023
H        1.66325291       0.56952255      -1.32439220
H        2.01503762      -0.63602555      -0.04148063
H        2.57472507       2.36191639       0.51079933
15
Frame=8 idx=009927 GeodesicLength=0.45223045733966477 rxn_smarts="[N:1]([C@@:2]([C:3]([C:4]([O:5][H:15])([H:13])[H:14])([H:11])[H:12])([C:6]#[N:7])[H:10])([H:8])[H:9]>>[N:1]([C@@:2]1([H:10])[C:3]([H:11])([H:12])[C:4]([H:13])([H:14])/[C:6]1=[N:7]\[O:5][H:15])([H:8])[H:9]"
N       -2.26288062      -0.46347277       0.12808298
C       -0.83635684      -0.48154574       0.36239692
C        0.04461553      -0.85843168      -0.83733666
C        1.25664120       0.01601519      -0.50342866
O        1.96346033       1.58205027       0.66269019
C       -0.26551124       0.88393646       0.47776203
N       -0.06807259       1.90197592       1.06616057
H       -2.62169082      -1.40826618       0.09836980
H       -2.73627920       0.04540123       0.86270249
H       -0.52100729      -1.05875445       1.24244704
H       -0.43597073      -0.53266805      -1.76013125
H        0.24368409      -1.93043781      -0.90523602
H        1.62065502       0.61079364      -1.33534584
H        2.04442301      -0.62994310      -0.11812458
H        2.57429015       2.32334705       0.55899098
15
Frame=9 idx=009927 GeodesicLength=0.5082445033698377 rxn_smarts="[N:1]([C@@:2]([C:3]([C:4]([O:5][H:15])([H:13])[H:14])([H:11])[H:12])([C:6]#[N:7])[H:10])([H:8])[H:9]>>[N:1]([C@@:2]1([H:10])[C:3]([H:11])([H:12])[C:4]([H:13])([H:14])/[C:6]1=[N:7]\[O:5][H:15])([H:8])[H:9]"
N       -2.26211644      -0.46988477       0.12430899
C       -0.83583419      -0.47097771       0.36250288
C        0.05121811      -0.86403333      -0.82849229
C        1.25568464       0.02939764      -0.51327900
O        1.96839434       1.53485858       0.69850122
C       -0.28278579       0.90385745       0.44802577
N       -0.07330426       1.91345598       1.04974464
H       -2.61401439      -1.41771187       0.12351310
H       -2.73915198       0.05926860       0.84212934
H       -0.51788585      -1.02837731       1.25407285
H       -0.43047985      -0.56626213      -1.76001456
H        0.25714002      -1.93595189      -0.86641345
H        1.57850921       0.65056995      -1.34424147
H        2.07215785      -0.62016643      -0.19785876
H        2.57246860       2.28195723       0.60750074
15
Frame=10 idx=009927 GeodesicLength=0.5644812923359596 rxn_smarts="[N:1]([C@@:2]([C:3]([C:4]([O:5][H:15])([H:13])[H:14])([H:11])[H:12])([C:6]#[N:7])[H:10])([H:8])[H:9]>>[N:1]([C@@:2]1([H:10])[C:3]([H:11])([H:12])[C:4]([H:13])([H:14])/[C:6]1=[N:7]\[O:5][H:15])([H:8])[H:9]"
N       -2.26079162      -0.47579290       0.12065510
C       -0.83492935      -0.46027605       0.36279433
C        0.05841062      -0.86920938      -0.81897070
C        1.25526280       0.04234371      -0.52305847
O        1.97084564       1.48642876       0.73200197
C       -0.29936869       0.92276879       0.41933635
N       -0.07773684       1.92425491       1.03318156
H       -2.60605685      -1.42556571       0.14797208
H       -2.74164700       0.07261236       0.82130118
H       -0.51485992      -0.99818975       1.26529474
H       -0.42404344      -0.59944151      -1.75855058
H        0.27164789      -1.94000501      -0.82682022
H        1.53701639       0.68834973      -1.35135836
H        2.09730706      -0.60676453      -0.27915136
H        2.56894331       2.23848658       0.65537239
15
Frame=11 idx=009927 GeodesicLength=0.6212318623272851 rxn_smarts="[N:1]([C@@:2]([C:3]([C:4]([O:5][H:15])([H:13])[H:14])([H:11])[H:12])([C:6]#[N:7])[H:10])([H:8])[H:9]>>[N:1]([C@@:2]1([H:10])[C:3]([H:11])([H:12])[C:4]([H:13])([H:14])/[C:6]1=[N:7]\[O:5][H:15])([H:8])[H:9]"
N       -2.25900771      -0.48135368       0.11714982
C       -0.83379711      -0.44952973       0.36327110
C        0.06622122      -0.87398645      -0.80886284
C        1.25534290       0.05506732      -0.53301759
O        1.97113562       1.43666529       0.76337734
C       -0.31533553       0.94081401       0.39169475
N       -0.08129519       1.93452156       1.01660458
H       -2.59796342      -1.43215575       0.17208382
H       -2.74397257       0.08552400       0.80010901
H       -0.51227326      -0.96837518       1.27616935
H       -0.41650340      -0.63220530      -1.75583148
H        0.28737154      -1.94269370      -0.78654107
H        1.49644723       0.72430127      -1.35710473
H        2.11958724      -0.58947922      -0.36147182
H        2.56404244       2.19288557       0.70236976
15
Frame=12 idx=009927 GeodesicLength=0.6783824751636498 rxn_smarts="[N:1]([C@@:2]([C:3]([C:4]([O:5][H:15])([H:13])[H:14])([H:11])[H:12])([C:6]#[N:7])[H:10])([H:8])[H:9]>>[N:1]([C@@:2]1([H:10])[C:3]([H:11])([H:12])[C:4]([H:13])([H:14])/[C:6]1=[N:7]\[O:5][H:15])([H:8])[H:9]"
N       -2.25675331      -0.48649563       0.11367346
C       -0.83237769      -0.43880984       0.36388151
C        0.07457938      -0.87830101      -0.79822797
C        1.25585604       0.06759424      -0.54314388
O        1.96962904       1.38597396       0.79230335
C       -0.33054265       0.95785721       0.36534473
N       -0.08371687       1.94394313       1.00050458
H       -2.58981752      -1.43739550       0.19530522
H       -2.74597153       0.09784553       0.77870363
H       -0.50998874      -0.93911129       1.28656764
H       -0.40808552      -0.66450033      -1.75187825
H        0.30426131      -1.94383326      -0.74579074
H        1.45686448       0.75817601      -1.36176502
H        2.13840514      -0.56872540      -0.44334687
H        2.55765845       2.14578217       0.74786861
15
Frame=13 idx=009927 GeodesicLength=0.7362532469000491 rxn_smarts="[N:1]([C@@:2]([C:3]([C:4]([O:5][H:15])([H:13])[H:14])([H:11])[H:12])([C:6]#[N:7])[H:10])([H:8])[H:9]>>[N:1]([C@@:2]1([H:10])[C:3]([H:11])([H:12])[C:4]([H:13])([H:14])/[C:6]1=[N:7]\[O:5][H:15])([H:8])[H:9]"
N       -2.25407333      -0.49132513       0.11024466
C       -0.83070832      -0.42812861       0.36461376
C        0.08349506      -0.88212078      -0.78715788
C        1.25672893       0.08008851      -0.55362364
O        1.96652361       1.33428759       0.81881932
C       -0.34511357       0.97406661       0.34020785
N       -0.08505263       1.95264876       0.98486330
H       -2.58161734      -1.44150939       0.21786440
H       -2.74773507       0.10962636       0.75702871
H       -0.50800927      -0.91042924       1.29654445
H       -0.39880888      -0.69631093      -1.74679195
H        0.32241943      -1.94341254      -0.70466237
H        1.41831469       0.79018274      -1.36569993
H        2.15365914      -0.54477262      -0.52413888
H        2.54997754       2.09710867       0.79188822
15
Frame=14 idx=009927 GeodesicLength=0.795161152630725 rxn_smarts="[N:1]([C@@:2]([C:3]([C:4]([O:5][H:15])([H:13])[H:14])([H:11])[H:12])([C:6]#[N:7])[H:10])([H:8])[H:9]>>[N:1]([C@@:2]1([H:10])[C:3]([H:11])([H:12])[C:4]([H:13])([H:14])/[C:6]1=[N:7]\[O:5][H:15])([H:8])[H:9]"
N       -2.25097585      -0.49597712       0.10686650
C       -0.82878709      -0.41744883       0.36544839
C        0.09295543      -0.88540212      -0.77571022
C        1.25786219       0.09271342      -0.56461521
O        1.96192441       1.28150232       0.84301824
C       -0.35914854       0.98957994       0.31614909
N       -0.08531422       1.96073128       0.96960215
H       -2.57331891      -1.44467146       0.24001026
H       -2.74929816       0.12087512       0.73496101
H       -0.50625607      -0.88218653       1.30614975
H       -0.38873739      -0.72771901      -1.74064067
H        0.34187630      -1.94132827      -0.66319827
H        1.38073122       0.82051232      -1.36922606
H        2.16537297      -0.51788659      -0.60341724
H        2.54111371       2.04670552       0.83460229
15
Frame=15 idx=009927 GeodesicLength=0.8554454770892408 rxn_smarts="[N:1]([C@@:2]([C:3]([C:4]([O:5][H:15])([H:13])[H:14])([H:11])[H:12])([C:6]#[N:7])[H:10])([H:8])[H:9]>>[N:1]([C@@:2]1([H:10])[C:3]([H:11])([H:12])[C:4]([H:13])([H:14])/[C:6]1=[N:7]\[O:5][H:15])([H:8])[H:9]"
N       -2.24732629      -0.50045469       0.10354730
C       -0.82652734      -0.40671298       0.36635939
C        0.10295334      -0.88802529      -0.76388678
C        1.25909698       0.10560361      -0.57623403
O        1.95580384       1.22752063       0.86479727
C       -0.37272004       1.00448777       0.29302732
N       -0.08453133       1.96819780       0.95453022
H       -2.56470757      -1.44691300       0.26170572
H       -2.75048143       0.13152498       0.71252047
H       -0.50452293      -0.85428451       1.31538377
H       -0.37797018      -0.75869478      -1.73338942
H        0.36264899      -1.93738921      -0.62133645
H        1.34390307       0.84932586      -1.37262531
H        2.17342454      -0.48858495      -0.68064809
H        2.53095634       1.99439877       0.87624861
15
Frame=16 idx=009927 GeodesicLength=0.9169855695636969 rxn_smarts="[N:1]([C@@:2]([C:3]([C:4]([O:5][H:15])([H:13])[H:14])([H:11])[H:12])([C:6]#[N:7])[H:10])([H:8])[H:9]>>[N:1]([C@@:2]1([H:10])[C:3]([H:11])([H:12])[C:4]([H:13])([H:14])/[C:6]1=[N:7]\[O:5][H:15])([H:8])[H:9]"
N       -2.24320122      -0.50471516       0.10026645
C       -0.82400163      -0.39602045       0.36732937
C        0.11342239      -0.88997227      -0.75179754
C        1.26045001       0.11865881      -0.58818174
O        1.94838617       1.17282976       0.88401387
C       -0.38577519       1.01880040       0.27108906
N       -0.08271312       1.97503942       0.94003325
H       -2.55593120      -1.44830148       0.28266200
H       -2.75129146       0.14147716       0.68997486
H       -0.50296522      -0.82701614       1.32413818
H       -0.36644627      -0.78888034      -1.72510522
H        0.38438595      -1.93169962      -0.57960164
H        1.30809712       0.87649148      -1.37575481
H        2.17813698      -0.45755683      -0.75490238
H        2.51944669       1.94086526       0.91583631
