16
Frame=0 idx=006770 GeodesicLength=0.0 rxn_smarts="[C:1](/[N:2]=[C:3](/[O:4][C:5]([C:6]([O:7][H:16])([H:14])[H:15])([H:12])[H:13])[H:11])([H:8])([H:9])[H:10]>>[C:1](/[N:2]=[C:3](/[C:6]([O:7][H:16])([H:14])[H:15])[H:11])([H:8])([H:9])[H:10].[O:4]=[C:5]([H:12])[H:13]"
C        1.74597555      -0.55787259      -1.23908850
N        0.59258415       0.31063942      -1.09152725
C        0.36810985       0.72208300       0.11259458
O       -0.50736753       1.89914559       0.19556721
C       -1.64207529       1.34295769       0.40883683
C       -0.61056167      -0.61209808       1.07800067
O       -1.14111213      -1.42166195       0.08818371
H        2.66706770      -0.08825437      -0.87149800
H        1.63689018      -1.51568893      -0.70775274
H        1.89039730      -0.78605283      -2.29489593
H        1.11999672       0.93664550       0.87449033
H       -2.37562427       1.94324869       0.94931299
H       -1.97642628       0.49711258      -0.18659970
H        0.27610120      -1.04670896       1.55139585
H       -1.35487720      -0.47926664       1.87022493
H       -0.68907825      -1.14422816      -0.73724499
16
Frame=1 idx=006770 GeodesicLength=0.1233513084802401 rxn_smarts="[C:1](/[N:2]=[C:3](/[O:4][C:5]([C:6]([O:7][H:16])([H:14])[H:15])([H:12])[H:13])[H:11])([H:8])([H:9])[H:10]>>[C:1](/[N:2]=[C:3](/[C:6]([O:7][H:16])([H:14])[H:15])[H:11])([H:8])([H:9])[H:10].[O:4]=[C:5]([H:12])[H:13]"
C        1.76403451      -0.55476846      -1.25883789
N        0.58619645       0.27107988      -1.08416033
C        0.37817783       0.71013191       0.10980385
O       -0.51959090       1.89845213       0.18377096
C       -1.65312020       1.34092218       0.41200881
C       -0.62458708      -0.59984020       1.10198419
O       -1.15399929      -1.43069562       0.12756767
H        2.67932730      -0.13866199      -0.82061224
H        1.64130394      -1.55789975      -0.82379204
H        1.95478954      -0.67968897      -2.32526782
H        1.14287457       0.94531483       0.85290891
H       -2.38970584       1.95518365       0.93289534
H       -1.99418403       0.50092771      -0.18905418
H        0.25753782      -1.03117665       1.58792660
H       -1.36655613      -0.46061240       1.89534030
H       -0.70249850      -1.16866823      -0.70248214
16
Frame=2 idx=006770 GeodesicLength=0.24474530925611496 rxn_smarts="[C:1](/[N:2]=[C:3](/[O:4][C:5]([C:6]([O:7][H:16])([H:14])[H:15])([H:12])[H:13])[H:11])([H:8])([H:9])[H:10]>>[C:1](/[N:2]=[C:3](/[C:6]([O:7][H:16])([H:14])[H:15])[H:11])([H:8])([H:9])[H:10].[O:4]=[C:5]([H:12])[H:13]"
C        1.78121443      -0.55205668      -1.27825280
N        0.58149096       0.23074075      -1.07411561
C        0.38948851       0.69783542       0.10846790
O       -0.53189462       1.89705022       0.17183084
C       -1.66429376       1.33776463       0.41302624
C       -0.63765633      -0.58640189       1.12759581
O       -1.16372065      -1.44051794       0.16993663
H        2.68852693      -0.20517246      -0.77035455
H        1.64275353      -1.59478204      -0.95687845
H        2.01575404      -0.56115175      -2.34382017
H        1.16682467       0.95476481       0.83115299
H       -2.40587161       1.96583482       0.91044440
H       -2.01035572       0.50261567      -0.19308654
H        0.23964284      -1.01217170       1.62806764
H       -1.37851959      -0.44026362       1.92075007
H       -0.71338364      -1.19408824      -0.66476440
16
Frame=3 idx=006770 GeodesicLength=0.3634519844053594 rxn_smarts="[C:1](/[N:2]=[C:3](/[O:4][C:5]([C:6]([O:7][H:16])([H:14])[H:15])([H:12])[H:13])[H:11])([H:8])([H:9])[H:10]>>[C:1](/[N:2]=[C:3](/[C:6]([O:7][H:16])([H:14])[H:15])[H:11])([H:8])([H:9])[H:10].[O:4]=[C:5]([H:12])[H:13]"
C        1.79629538      -0.55151718      -1.29663459
N        0.57730351       0.18947176      -1.06475083
C        0.40060352       0.68670973       0.10469052
O       -0.54679338       1.89553218       0.15532593
C       -1.67670732       1.33334892       0.41245380
C       -0.64786775      -0.57085918       1.15346693
O       -1.16990935      -1.45059812       0.21533911
H        2.68814106      -0.29561847      -0.71384183
H        1.63682741      -1.62352913      -1.11155625
H        2.08563053      -0.43000010      -2.34233709
H        1.19038693       0.96820775       0.80462860
H       -2.42216287       1.97297546       0.88955297
H       -2.02714485       0.50145709      -0.19676555
H        0.22575761      -0.98801857       1.66847051
H       -1.38692125      -0.41787778       1.94704525
H       -0.72343919      -1.21968434      -0.62508745
16
Frame=4 idx=006770 GeodesicLength=0.4794985332903155 rxn_smarts="[C:1](/[N:2]=[C:3](/[O:4][C:5]([C:6]([O:7][H:16])([H:14])[H:15])([H:12])[H:13])[H:11])([H:8])([H:9])[H:10]>>[C:1](/[N:2]=[C:3](/[C:6]([O:7][H:16])([H:14])[H:15])[H:11])([H:8])([H:9])[H:10].[O:4]=[C:5]([H:12])[H:13]"
C        1.80997695      -0.55218753      -1.31420529
N        0.57484839       0.14845768      -1.05306133
C        0.41325654       0.67558329       0.10233152
O       -0.56153425       1.89352214       0.13962712
C       -1.68914321       1.32786314       0.40983357
C       -0.65703378      -0.55434164       1.17993166
O       -1.17245743      -1.46109289       0.26241674
H        2.68069315      -0.40275534      -0.66720879
H        1.63032489      -1.63603359      -1.27936719
H        2.15106770      -0.29626553      -2.31968786
H        1.21557615       0.98163911       0.77749714
H       -2.44029412       1.97812956       0.86376678
H       -2.04207837       0.49834891      -0.20238063
H        0.21249120      -0.96044571       1.71146428
H       -1.39575476      -0.39447202       1.97251343
H       -0.72993904      -1.24594957      -0.58347115
16
Frame=5 idx=006770 GeodesicLength=0.5917561729808265 rxn_smarts="[C:1](/[N:2]=[C:3](/[O:4][C:5]([C:6]([O:7][H:16])([H:14])[H:15])([H:12])[H:13])[H:11])([H:8])([H:9])[H:10]>>[C:1](/[N:2]=[C:3](/[C:6]([O:7][H:16])([H:14])[H:15])[H:11])([H:8])([H:9])[H:10].[O:4]=[C:5]([H:12])[H:13]"
C        1.82146111      -0.55520799      -1.33036033
N        0.57338138       0.10875915      -1.04215949
C        0.42620792       0.66593426       0.09811925
O       -0.57812322       1.89163654       0.12199257
C       -1.70237467       1.32122245       0.40638734
C       -0.66375198      -0.53668683       1.20492242
O       -1.17143293      -1.47120345       0.30955615
H        2.66096081      -0.52635407      -0.62850029
H        1.62252926      -1.62868016      -1.45521716
H        2.22009975      -0.16819147      -2.27118463
H        1.24084677       0.99739465       0.74631355
H       -2.45859378       1.97944476       0.84073120
H       -2.05712188       0.49341937      -0.20826438
H        0.20236698      -0.92927214       1.75287232
H       -1.40186733      -0.37100102       1.99692762
H       -0.73458819      -1.27121405      -0.54213614
16
Frame=6 idx=006770 GeodesicLength=0.7024434578354647 rxn_smarts="[C:1](/[N:2]=[C:3](/[O:4][C:5]([C:6]([O:7][H:16])([H:14])[H:15])([H:12])[H:13])[H:11])([H:8])([H:9])[H:10]>>[C:1](/[N:2]=[C:3](/[C:6]([O:7][H:16])([H:14])[H:15])[H:11])([H:8])([H:9])[H:10].[O:4]=[C:5]([H:12])[H:13]"
C        1.83230341      -0.55859770      -1.34704598
N        0.57327328       0.06807476      -1.02890387
C        0.44077093       0.65446963       0.09578276
O       -0.59284362       1.88878335       0.10609117
C       -1.71474302       1.31428256       0.40149214
C       -0.67143070      -0.51911958       1.22980900
O       -1.16985612      -1.48117255       0.35695426
H        2.63651143      -0.65153703      -0.61106120
H        1.62143933      -1.59936965      -1.62812330
H        2.28091982      -0.05211980      -2.20534041
H        1.26770646       1.00967611       0.71557785
H       -2.47653899       1.98015413       0.81474526
H       -2.07048540       0.48825298      -0.21619258
H        0.19011174      -0.89709786       1.79587373
H       -1.41028516      -0.34714611       2.01988426
H       -0.73685340      -1.29753324      -0.49954307
16
Frame=7 idx=006770 GeodesicLength=0.8116978310161541 rxn_smarts="[C:1](/[N:2]=[C:3](/[O:4][C:5]([C:6]([O:7][H:16])([H:14])[H:15])([H:12])[H:13])[H:11])([H:8])([H:9])[H:10]>>[C:1](/[N:2]=[C:3](/[C:6]([O:7][H:16])([H:14])[H:15])[H:11])([H:8])([H:9])[H:10].[O:4]=[C:5]([H:12])[H:13]"
C        1.84259783      -0.56210442      -1.36436231
N        0.57457202       0.02672054      -1.01411910
C        0.45646067       0.64166463       0.09437300
O       -0.60661967       1.88514709       0.09063039
C       -1.72668374       1.30691865       0.39550542
C       -0.67962794      -0.50158696       1.25405900
O       -1.16799330      -1.49072327       0.40431649
H        2.60791298      -0.77627580      -0.61293765
H        1.62541516      -1.54891376      -1.79423469
H        2.33655230       0.04840135      -2.12490540
H        1.29525072       1.01961320       0.68453669
H       -2.49376009       1.97956710       0.78842978
H       -2.08296797       0.48276711      -0.22559843
H        0.17658898      -0.86396016       1.83902320
H       -1.41988964      -0.32319010       2.04153556
H       -0.73780832      -1.32404520      -0.45625194
16
Frame=8 idx=006770 GeodesicLength=0.921324858718874 rxn_smarts="[C:1](/[N:2]=[C:3](/[O:4][C:5]([C:6]([O:7][H:16])([H:14])[H:15])([H:12])[H:13])[H:11])([H:8])([H:9])[H:10]>>[C:1](/[N:2]=[C:3](/[C:6]([O:7][H:16])([H:14])[H:15])[H:11])([H:8])([H:9])[H:10].[O:4]=[C:5]([H:12])[H:13]"
C        1.85335516      -0.56393189      -1.38391170
N        0.57772409      -0.01829868      -0.99538142
C        0.47395609       0.62494611       0.09606747
O       -0.61718559       1.87971583       0.07617743
C       -1.73716043       1.29953976       0.38747651
C       -0.69054295      -0.48443091       1.27908472
O       -1.16834817      -1.50011645       0.45312051
H        2.58247457      -0.89303427      -0.63849221
H        1.63566572      -1.47895559      -1.94972043
H        2.38185981       0.13495692      -2.03832872
H        1.32403133       1.02389759       0.65604039
H       -2.50918308       1.97962133       0.75835144
H       -2.09362642       0.47741642      -0.23746598
H        0.15849177      -0.83080327       1.88477461
H       -1.43361178      -0.29797556       2.06222630
H       -0.73790012      -1.35254733      -0.41001891
16
Frame=9 idx=006770 GeodesicLength=1.0286944945944099 rxn_smarts="[C:1](/[N:2]=[C:3](/[O:4][C:5]([C:6]([O:7][H:16])([H:14])[H:15])([H:12])[H:13])[H:11])([H:8])([H:9])[H:10]>>[C:1](/[N:2]=[C:3](/[C:6]([O:7][H:16])([H:14])[H:15])[H:11])([H:8])([H:9])[H:10].[O:4]=[C:5]([H:12])[H:13]"
C        1.86296847      -0.56546368      -1.40325158
N        0.58312533      -0.06144394      -0.97586000
C        0.49237545       0.60890614       0.09815693
O       -0.62873656       1.87403999       0.06154648
C       -1.74811313       1.29073875       0.37859331
C       -0.70021480      -0.46691026       1.30282267
O       -1.16630538      -1.50887997       0.50138111
H        2.55074330      -1.01068614      -0.67985320
H        1.64400537      -1.38919738      -2.09402417
H        2.42791010       0.20140178      -1.94092688
H        1.35257426       1.02886169       0.62705913
H       -2.52547909       1.97627287       0.72868681
H       -2.10351571       0.47051487      -0.25066945
H        0.14152559      -0.79562963       1.92903226
H       -1.44635381      -0.27333113       2.08148350
H       -0.73650938      -1.37919395      -0.36417693
16
Frame=10 idx=006770 GeodesicLength=1.1370930083391713 rxn_smarts="[C:1](/[N:2]=[C:3](/[O:4][C:5]([C:6]([O:7][H:16])([H:14])[H:15])([H:12])[H:13])[H:11])([H:8])([H:9])[H:10]>>[C:1](/[N:2]=[C:3](/[C:6]([O:7][H:16])([H:14])[H:15])[H:11])([H:8])([H:9])[H:10].[O:4]=[C:5]([H:12])[H:13]"
C        1.87311222      -0.56425718      -1.42512654
N        0.59123613      -0.11054805      -0.95103877
C        0.51271193       0.58764951       0.10401105
O       -0.63634329       1.86583033       0.04643403
C       -1.75703429       1.28186297       0.36695713
C       -0.71331804      -0.44971087       1.32776297
O       -1.16791014      -1.51739366       0.55203529
H        2.52694271      -1.11467353      -0.74436249
H        1.65529482      -1.28351623      -2.22357848
H        2.46356966       0.25524426      -1.84547917
H        1.38192782       1.02727804       0.60197447
H       -2.53852250       1.97407815       0.69509238
H       -2.11128067       0.46358373      -0.26666868
H        0.11886951      -0.76062529       1.97628405
H       -1.46381366      -0.24659953       2.09997124
H       -0.73544220      -1.40820265      -0.31426847
16
Frame=11 idx=006770 GeodesicLength=1.245344127199463 rxn_smarts="[C:1](/[N:2]=[C:3](/[O:4][C:5]([C:6]([O:7][H:16])([H:14])[H:15])([H:12])[H:13])[H:11])([H:8])([H:9])[H:10]>>[C:1](/[N:2]=[C:3](/[C:6]([O:7][H:16])([H:14])[H:15])[H:11])([H:8])([H:9])[H:10].[O:4]=[C:5]([H:12])[H:13]"
C        1.88254634      -0.56106330      -1.44821855
N        0.60286784      -0.16237716      -0.92188468
C        0.53492946       0.56385614       0.11289300
O       -0.64206684       1.85595027       0.03058633
C       -1.76491405       1.27185760       0.35274800
C       -0.72765051      -0.43234440       1.35292267
O       -1.17011900      -1.52559495       0.60419863
H        2.50520520      -1.21016964      -0.82833621
H        1.66247334      -1.16164851      -2.33801665
H        2.49580799       0.29376060      -1.74956539
H        1.41188011       1.02275626       0.57979018
H       -2.55034991       1.97052278       0.65820057
H       -2.11686008       0.45520070      -0.28545935
H        0.09348265      -0.72429397       2.02477750
H       -1.48362066      -0.21870610       2.11713960
H       -0.73361187      -1.43770633      -0.26177564
16
Frame=12 idx=006770 GeodesicLength=1.3541614162003008 rxn_smarts="[C:1](/[N:2]=[C:3](/[O:4][C:5]([C:6]([O:7][H:16])([H:14])[H:15])([H:12])[H:13])[H:11])([H:8])([H:9])[H:10]>>[C:1](/[N:2]=[C:3](/[C:6]([O:7][H:16])([H:14])[H:15])[H:11])([H:8])([H:9])[H:10].[O:4]=[C:5]([H:12])[H:13]"
C        1.89068245      -0.55507391      -1.47289175
N        0.61906152      -0.21939222      -0.88639097
C        0.55960764       0.53598897       0.12605156
O       -0.64441408       1.84343484       0.01323476
C       -1.77072352       1.26048148       0.33473777
C       -0.74398136      -0.41468588       1.37893914
O       -1.17388170      -1.53354007       0.65911445
H        2.48742206      -1.29394580      -0.93377372
H        1.66283435      -1.02348390      -2.43622939
H        2.52325934       0.31936980      -1.65614290
H        1.44298430       1.01363060       0.56201801
H       -2.55965016       1.96600283       0.61572186
H       -2.11906814       0.44487217      -0.30796589
H        0.06389432      -0.68636021       2.07574516
H       -1.50688405      -0.18856859       2.13284857
H       -0.73114296      -1.46873010      -0.20501667
16
Frame=13 idx=006770 GeodesicLength=1.4617021159241061 rxn_smarts="[C:1](/[N:2]=[C:3](/[O:4][C:5]([C:6]([O:7][H:16])([H:14])[H:15])([H:12])[H:13])[H:11])([H:8])([H:9])[H:10]>>[C:1](/[N:2]=[C:3](/[C:6]([O:7][H:16])([H:14])[H:15])[H:11])([H:8])([H:9])[H:10].[O:4]=[C:5]([H:12])[H:13]"
C        1.89630893      -0.54759401      -1.49703677
N        0.63983298      -0.27686965      -0.84689148
C        0.58631811       0.50775932       0.14176112
O       -0.64623831       1.82966749      -0.00561795
C       -1.77585839       1.24676357       0.31377094
C       -0.75971172      -0.39641516       1.40408702
O       -1.17568930      -1.54096093       0.71484328
H        2.46331975      -1.37047579      -1.05713055
H        1.65391858      -0.86894964      -2.51472669
H        2.55372182       0.32584727      -1.56138636
H        1.47460960       1.00457186       0.54636584
H       -2.56882104       1.95776228       0.56985247
H       -2.11844285       0.43149151      -0.33363111
H        0.03380340      -0.64575055       2.12612116
H       -1.53050932      -0.15787725       2.14631229
H       -0.72656224      -1.49897033      -0.14669320
16
Frame=14 idx=006770 GeodesicLength=1.5682511002548938 rxn_smarts="[C:1](/[N:2]=[C:3](/[O:4][C:5]([C:6]([O:7][H:16])([H:14])[H:15])([H:12])[H:13])[H:11])([H:8])([H:9])[H:10]>>[C:1](/[N:2]=[C:3](/[C:6]([O:7][H:16])([H:14])[H:15])[H:11])([H:8])([H:9])[H:10].[O:4]=[C:5]([H:12])[H:13]"
C        1.89872577      -0.53825868      -1.52049581
N        0.66584742      -0.33546355      -0.80248020
C        0.61553770       0.47884577       0.16059431
O       -0.64673269       1.81437169      -0.02607740
C       -1.77965499       1.23047742       0.28928748
C       -0.77499633      -0.37761070       1.42826381
O       -1.17584431      -1.54779156       0.77143963
H        2.43117953      -1.43525713      -1.19879811
H        1.63520460      -0.70007419      -2.56943153
H        2.58650900       0.31288993      -1.46843578
H        1.50732374       0.99521290       0.53313811
H       -2.57719884       1.94568885       0.51960872
H       -2.11410116       0.41482164      -0.36304285
H        0.00269814      -0.60268925       2.17584879
H       -1.55477839      -0.12646726       2.15710501
H       -0.71971919      -1.52869588      -0.08652418
16
Frame=15 idx=006770 GeodesicLength=1.6727782884457585 rxn_smarts="[C:1](/[N:2]=[C:3](/[O:4][C:5]([C:6]([O:7][H:16])([H:14])[H:15])([H:12])[H:13])[H:11])([H:8])([H:9])[H:10]>>[C:1](/[N:2]=[C:3](/[C:6]([O:7][H:16])([H:14])[H:15])[H:11])([H:8])([H:9])[H:10].[O:4]=[C:5]([H:12])[H:13]"
C        1.89785795      -0.52852485      -1.54136811
N        0.69533848      -0.39080022      -0.75712958
C        0.64616769       0.45233199       0.17970502
O       -0.64882265       1.79908882      -0.04795920
C       -1.78370732       1.21159133       0.26328789
C       -0.78784718      -0.35848441       1.44963904
O       -1.17230367      -1.55372614       0.82641626
H        2.38232703      -1.48797707      -1.35183877
H        1.61371096      -0.52169073      -2.59646279
H        2.62498707       0.27482963      -1.37632239
H        1.53990957       0.98932810       0.51854250
H       -2.58663759       1.92869838       0.46937833
H       -2.10802834       0.39523432      -0.39441401
H       -0.02601731      -0.55761859       2.22136177
H       -1.57666858      -0.09632248       2.16504916
H       -0.71026612      -1.55595809      -0.02788512
16
Frame=16 idx=006770 GeodesicLength=1.776987779061187 rxn_smarts="[C:1](/[N:2]=[C:3](/[O:4][C:5]([C:6]([O:7][H:16])([H:14])[H:15])([H:12])[H:13])[H:11])([H:8])([H:9])[H:10]>>[C:1](/[N:2]=[C:3](/[C:6]([O:7][H:16])([H:14])[H:15])[H:11])([H:8])([H:9])[H:10].[O:4]=[C:5]([H:12])[H:13]"
C        1.89289430      -0.51703106      -1.56062848
N        0.72924765      -0.44570070      -0.70869106
C        0.67928423       0.42584145       0.20095917
O       -0.64963320       1.78296565      -0.07066112
C       -1.78612198       1.19036669       0.23477847
C       -0.79956708      -0.33944553       1.46883272
O       -1.16688397      -1.55895022       0.88047065
H        2.31995942      -1.52003995      -1.51380401
H        1.58932054      -0.34016509      -2.59431502
H        2.66235019       0.21722711      -1.29308341
H        1.57386923       0.98374295       0.50399672
H       -2.59489485       1.90797042       0.41668802
H       -2.09827451       0.37319767      -0.42892410
H       -0.05470865      -0.51131586       2.26413132
H       -1.59800403      -0.06670487       2.16978937
H       -0.69883730      -1.58195867       0.03046076
