16
Frame=0 idx=000496 GeodesicLength=0.0 rxn_smarts="[C:1]([C@@:2]1([H:10])[C:3]([H:11])([H:12])[C@:4]([C:5]([H:14])([H:15])[H:16])([H:13])[O:6]1)([H:7])([H:8])[H:9]>>[C:1]([C:3]([C:2](=[O+:6][C-:4]([C:5]([H:14])([H:15])[H:16])[H:13])[H:10])([H:11])[H:12])([H:7])([H:8])[H:9]"
C        1.52806144       0.88833442       0.15365598
C        0.88501008      -0.48607581      -0.82623680
C        0.96022706      -0.95991651       0.50184110
C       -1.40433791      -0.78415752      -0.56965724
C       -1.91613351       0.29004690       0.35803978
O       -0.26933984      -0.29774064      -1.38239444
H        2.02484103       1.36956923      -0.68721468
H        0.65854162       1.45347295       0.46768739
H        2.25698313       0.79035851       0.95518079
H        1.69705394      -0.68545914      -1.51892012
H        1.84435926      -1.48524958       0.83909026
H        0.13962186      -0.80736083       1.17728341
H       -2.16452512      -0.99911419      -1.32345592
H       -2.90867701      -0.00994651       0.70131854
H       -1.31144071       0.44272274       1.26690397
H       -2.02024530       1.28051601      -0.11312200
16
Frame=1 idx=000496 GeodesicLength=0.06422821855253649 rxn_smarts="[C:1]([C@@:2]1([H:10])[C:3]([H:11])([H:12])[C@:4]([C:5]([H:14])([H:15])[H:16])([H:13])[O:6]1)([H:7])([H:8])[H:9]>>[C:1]([C:3]([C:2](=[O+:6][C-:4]([C:5]([H:14])([H:15])[H:16])[H:13])[H:10])([H:11])[H:12])([H:7])([H:8])[H:9]"
C        1.53850656       0.88921005       0.15251243
C        0.88735149      -0.47896026      -0.83769784
C        0.94244430      -0.95167676       0.49555284
C       -1.38824734      -0.77512500      -0.56722094
C       -1.92210088       0.28559104       0.36025190
O       -0.27218521      -0.28228578      -1.38829321
H        2.04638989       1.37061800      -0.68194662
H        0.67252870       1.46566276       0.45751831
H        2.26266472       0.79348500       0.95904338
H        1.69368592      -0.69991319      -1.53001187
H        1.81424648      -1.50256732       0.82598405
H        0.14752190      -0.78181515       1.19737934
H       -2.14782735      -1.02289611      -1.31146816
H       -2.91657941      -0.02325745       0.68985066
H       -1.33331147       0.43378802       1.27961141
H       -2.02508830       1.28014218      -0.10106568
16
Frame=2 idx=000496 GeodesicLength=0.1285233865419263 rxn_smarts="[C:1]([C@@:2]1([H:10])[C:3]([H:11])([H:12])[C@:4]([C:5]([H:14])([H:15])[H:16])([H:13])[O:6]1)([H:7])([H:8])[H:9]>>[C:1]([C:3]([C:2](=[O+:6][C-:4]([C:5]([H:14])([H:15])[H:16])[H:13])[H:10])([H:11])[H:12])([H:7])([H:8])[H:9]"
C        1.54900784       0.89020591       0.15098703
C        0.88969766      -0.47209609      -0.84894664
C        0.92452022      -0.94257478       0.48970349
C       -1.37254593      -0.76550687      -0.56521629
C       -1.92801863       0.28073429       0.36269926
O       -0.27494447      -0.26687714      -1.39401826
H        2.06788335       1.37128088      -0.67723139
H        0.68686962       1.47810948       0.44683392
H        2.26848124       0.79736042       0.96246969
H        1.68968136      -0.71534157      -1.54068434
H        1.78305247      -1.51886338       0.81350347
H        0.15604176      -0.75645759       1.21683028
H       -2.13027364      -1.04587872      -1.29969531
H       -2.92473539      -0.03641549       0.67737101
H       -1.35582346       0.42238737       1.29288616
H       -2.02889400       1.27993329      -0.08749209
16
Frame=3 idx=000496 GeodesicLength=0.192888716030034 rxn_smarts="[C:1]([C@@:2]1([H:10])[C:3]([H:11])([H:12])[C@:4]([C:5]([H:14])([H:15])[H:16])([H:13])[O:6]1)([H:7])([H:8])[H:9]>>[C:1]([C:3]([C:2](=[O+:6][C-:4]([C:5]([H:14])([H:15])[H:16])[H:13])[H:10])([H:11])[H:12])([H:7])([H:8])[H:9]"
C        1.55958205       0.89132523       0.14908296
C        0.89203730      -0.46550022      -0.85996547
C        0.90650257      -0.93260542       0.48429907
C       -1.35725620      -0.75532343      -0.56363723
C       -1.93389339       0.27546922       0.36537305
O       -0.27761492      -0.25150156      -1.39956358
H        2.08932990       1.37155930      -0.67308061
H        0.70158428       1.49081050       0.43561927
H        2.27445546       0.80201027       0.96545622
H        1.68498003      -0.73173962      -1.55089957
H        1.75081776      -1.53409314       0.80167956
H        0.16512585      -0.73125809       1.23562426
H       -2.11189101      -1.06807344      -1.28814235
H       -2.93315993      -0.04933082       0.66380052
H       -1.37899710       0.40837365       1.30665758
H       -2.03160265       1.27987755      -0.07230368
16
Frame=4 idx=000496 GeodesicLength=0.25732919910607815 rxn_smarts="[C:1]([C@@:2]1([H:10])[C:3]([H:11])([H:12])[C@:4]([C:5]([H:14])([H:15])[H:16])([H:13])[O:6]1)([H:7])([H:8])[H:9]>>[C:1]([C:3]([C:2](=[O+:6][C-:4]([C:5]([H:14])([H:15])[H:16])[H:13])[H:10])([H:11])[H:12])([H:7])([H:8])[H:9]"
C        1.57025043       0.89257307       0.14680266
C        0.89436321      -0.45918879      -0.87074140
C        0.88843172      -0.92176778       0.47934120
C       -1.34239972      -0.74459873      -0.56247526
C       -1.93973846       0.26978698       0.36826639
O       -0.28019224      -0.23614420      -1.40492587
H        2.11075006       1.37145776      -0.66950540
H        0.71669495       1.50376921       0.42385690
H        2.28061304       0.80745690       0.96799823
H        1.67953109      -0.74909657      -1.56062245
H        1.71757732      -1.54821800       0.79054394
H        0.17471510      -0.70617810       1.25375476
H       -2.09270486      -1.08950130      -1.27680671
H       -2.94187330      -0.06190423       0.64906516
H       -1.40285969       0.39159870       1.32083734
H       -2.03315865       1.27995509      -0.05538948
16
Frame=5 idx=000496 GeodesicLength=0.32184844221713427 rxn_smarts="[C:1]([C@@:2]1([H:10])[C:3]([H:11])([H:12])[C@:4]([C:5]([H:14])([H:15])[H:16])([H:13])[O:6]1)([H:7])([H:8])[H:9]>>[C:1]([C:3]([C:2](=[O+:6][C-:4]([C:5]([H:14])([H:15])[H:16])[H:13])[H:10])([H:11])[H:12])([H:7])([H:8])[H:9]"
C        1.58101178       0.89393880       0.14415741
C        0.89664683      -0.45316560      -0.88125943
C        0.87032895      -0.91004576       0.47483149
C       -1.32798337      -0.73333960      -0.56172539
C       -1.94553295       0.26367739       0.37136112
O       -0.28268358      -0.22078289      -1.41010209
H        2.13213956       1.37095227      -0.66649997
H        0.73221674       1.51696843       0.41152101
H        2.28694570       0.81370777       0.97010709
H        1.67324630      -0.76738766      -1.56980911
H        1.68334156      -1.56117285       0.78013102
H        0.18475074      -0.68117291       1.27121609
H       -2.07271599      -1.11017356      -1.26567974
H       -2.95082626      -0.07404066       0.63311469
H       -1.42737476       0.37193069       1.33528611
H       -2.03351123       1.28010613      -0.03665030
16
Frame=6 idx=000496 GeodesicLength=0.3864073340105943 rxn_smarts="[C:1]([C@@:2]1([H:10])[C:3]([H:11])([H:12])[C@:4]([C:5]([H:14])([H:15])[H:16])([H:13])[O:6]1)([H:7])([H:8])[H:9]>>[C:1]([C:3]([C:2](=[O+:6][C-:4]([C:5]([H:14])([H:15])[H:16])[H:13])[H:10])([H:11])[H:12])([H:7])([H:8])[H:9]"
C        1.59188751       0.89541738       0.14117560
C        0.89889702      -0.44745295      -0.89151095
C        0.85222785      -0.89748026       0.47075115
C       -1.31403935      -0.72157618      -0.56137370
C       -1.95130392       0.25715572       0.37464342
O       -0.28507784      -0.20541397      -1.41509468
H        2.15353254       1.37006361      -0.66403173
H        0.74816100       1.53041144       0.39860872
H        2.29347378       0.82075860       0.97180376
H        1.66612522      -0.78657615      -1.57842397
H        1.64816916      -1.57295530       0.77044323
H        0.19514797      -0.65625279       1.28800256
H       -2.05196457      -1.13009452      -1.25476618
H       -2.95998247      -0.08569743       0.61603797
H       -1.45248736       0.34941329       1.34980113
H       -2.03276656       1.28027950      -0.01606633
16
Frame=7 idx=000496 GeodesicLength=0.45105100859006764 rxn_smarts="[C:1]([C@@:2]1([H:10])[C:3]([H:11])([H:12])[C@:4]([C:5]([H:14])([H:15])[H:16])([H:13])[O:6]1)([H:7])([H:8])[H:9]>>[C:1]([C:3]([C:2](=[O+:6][C-:4]([C:5]([H:14])([H:15])[H:16])[H:13])[H:10])([H:11])[H:12])([H:7])([H:8])[H:9]"
C        1.60285174       0.89699844       0.13783791
C        0.90106598      -0.44204764      -0.90147837
C        0.83413703      -0.88401376       0.46711354
C       -1.30054663      -0.70932786      -0.56141218
C       -1.95700109       0.25017327       0.37809962
O       -0.28739068      -0.19002830      -1.41990080
H        2.17486671       1.36875572      -0.66213842
H        0.76453320       1.54405868       0.38508412
H        2.30017851       0.82862063       0.97305146
H        1.65803667      -0.80660311      -1.58640980
H        1.61203042      -1.58345348       0.76156024
H        0.20588924      -0.63128701       1.30411154
H       -2.03044175      -1.14928527      -1.24401047
H       -2.96932907      -0.09663004       0.59760170
H       -1.47826279       0.32369955       1.36429699
H       -2.03061749       1.28037019       0.00659294
16
Frame=8 idx=000496 GeodesicLength=0.5157894927113512 rxn_smarts="[C:1]([C@@:2]1([H:10])[C:3]([H:11])([H:12])[C@:4]([C:5]([H:14])([H:15])[H:16])([H:13])[O:6]1)([H:7])([H:8])[H:9]>>[C:1]([C:3]([C:2](=[O+:6][C-:4]([C:5]([H:14])([H:15])[H:16])[H:13])[H:10])([H:11])[H:12])([H:7])([H:8])[H:9]"
C        1.61395635       0.89869463       0.13417294
C        0.90316938      -0.43695962      -0.91116687
C        0.81606285      -0.86967202       0.46389534
C       -1.28754469      -0.69661553      -0.56183730
C       -1.96267523       0.24273822       0.38172561
O       -0.28961030      -0.17459431      -1.42453020
H        2.19626770       1.36702908      -0.66078087
H        0.78137564       1.55795561       0.37091485
H        2.30708732       0.83730804       0.97389070
H        1.64898949      -0.82746241      -1.59374890
H        1.57494285      -1.59268257       0.75347217
H        0.21686448      -0.60626774       1.31955038
H       -2.00816741      -1.16778708      -1.23341688
H       -2.97884549      -0.10681779       0.57793958
H       -1.50463843       0.29483469       1.37852523
H       -2.02723450       1.28029881       0.03139422
16
Frame=9 idx=000496 GeodesicLength=0.5806232960157862 rxn_smarts="[C:1]([C@@:2]1([H:10])[C:3]([H:11])([H:12])[C@:4]([C:5]([H:14])([H:15])[H:16])([H:13])[O:6]1)([H:7])([H:8])[H:9]>>[C:1]([C:3]([C:2](=[O+:6][C-:4]([C:5]([H:14])([H:15])[H:16])[H:13])[H:10])([H:11])[H:12])([H:7])([H:8])[H:9]"
C        1.62518479       0.90048253       0.13019871
C        0.90518193      -0.43219158      -0.92056346
C        0.79800612      -0.85444705       0.46108133
C       -1.27503319      -0.68344885      -0.56264149
C       -1.96830289       0.23483950       0.38549958
O       -0.29174148      -0.15910034      -1.42898433
H        2.21772180       1.36484944      -0.65993157
H        0.79868817       1.57206659       0.35607657
H        2.31417545       0.84680192       0.97432792
H        1.63892142      -0.84908259      -1.60038669
H        1.53690973      -1.60057502       0.74621018
H        0.22800680      -0.58114876       1.33430802
H       -1.98513984      -1.18559619      -1.22294625
H       -2.98844440      -0.11614546       0.55707088
H       -1.53154582       0.26277353       1.39225307
H       -2.02258858       1.27992233       0.05842752
16
Frame=10 idx=000496 GeodesicLength=0.6455654154363994 rxn_smarts="[C:1]([C@@:2]1([H:10])[C:3]([H:11])([H:12])[C@:4]([C:5]([H:14])([H:15])[H:16])([H:13])[O:6]1)([H:7])([H:8])[H:9]>>[C:1]([C:3]([C:2](=[O+:6][C-:4]([C:5]([H:14])([H:15])[H:16])[H:13])[H:10])([H:11])[H:12])([H:7])([H:8])[H:9]"
C        1.63652340       0.90234891       0.12594420
C        0.90708801      -0.42775158      -0.92966488
C        0.77996498      -0.83835103       0.45865312
C       -1.26302060      -0.66984580      -0.56381978
C       -1.97386735       0.22647688       0.38940258
O       -0.29378446      -0.14354313      -1.43327678
H        2.23924115       1.36219506      -0.65954906
H        0.81646809       1.58637525       0.34054444
H        2.32140767       0.85709920       0.97439559
H        1.62779154      -0.87140292      -1.60628914
H        1.49794724      -1.60708620       0.73979209
H        0.23923444      -0.55592568       1.34838768
H       -1.96137209      -1.20270999      -1.21257758
H       -2.99803182      -0.12450745       0.53509359
H       -1.55888228       0.22754585       1.40521317
H       -2.01670792       1.27908262       0.08775077
16
Frame=11 idx=000496 GeodesicLength=0.7106250203488911 rxn_smarts="[C:1]([C@@:2]1([H:10])[C:3]([H:11])([H:12])[C@:4]([C:5]([H:14])([H:15])[H:16])([H:13])[O:6]1)([H:7])([H:8])[H:9]>>[C:1]([C:3]([C:2](=[O+:6][C-:4]([C:5]([H:14])([H:15])[H:16])[H:13])[H:10])([H:11])[H:12])([H:7])([H:8])[H:9]"
C        1.64794939       0.90427330       0.12144420
C        0.90887339      -0.42364794      -0.93846616
C        0.76193722      -0.82140261       0.45658405
C       -1.25151318      -0.65582424      -0.56536452
C       -1.97934886       0.21765599       0.39341038
O       -0.29573970      -0.12792689      -1.43741938
H        2.26082474       1.35904114      -0.65957880
H        0.83470097       1.60084880       0.32430243
H        2.32874222       0.86818682       0.97412445
H        1.61557116      -0.89434675      -1.61141861
H        1.45808253      -1.61217259       0.73422431
H        0.25046808      -0.53060659       1.36178670
H       -1.93688104      -1.21911350      -1.20227774
H       -3.00750446      -0.13180907       0.51213723
H       -1.58652472       0.18924271       1.41712491
H       -2.00963775       1.27760141       0.11938653
16
Frame=12 idx=000496 GeodesicLength=0.7758146901815378 rxn_smarts="[C:1]([C@@:2]1([H:10])[C:3]([H:11])([H:12])[C@:4]([C:5]([H:14])([H:15])[H:16])([H:13])[O:6]1)([H:7])([H:8])[H:9]>>[C:1]([C:3]([C:2](=[O+:6][C-:4]([C:5]([H:14])([H:15])[H:16])[H:13])[H:10])([H:11])[H:12])([H:7])([H:8])[H:9]"
C        1.65942986       0.90623097       0.11674535
C        0.91052546      -0.41988810      -0.94696539
C        0.74392044      -0.80363542       0.45483981
C       -1.24051445      -0.64140173      -0.56726515
C       -1.98472293       0.20839608       0.39749344
O       -0.29760752      -0.11226317      -1.44142779
H        2.28246153       1.35536695      -0.65994765
H        0.85336026       1.61544326       0.30734942
H        2.33612546       0.88004355       0.97355628
H        1.60224273      -0.91782371      -1.61574766
H        1.41735471      -1.61580597       0.72949220
H        0.26163141      -0.50523161       1.37450519
H       -1.91168519      -1.23479137      -1.19200485
H       -3.01674400      -0.13797847       0.48838693
H       -1.61431414       0.14805233       1.42769806
H       -2.00146363       1.27528641       0.15329180
16
Frame=13 idx=000496 GeodesicLength=0.8411505991093611 rxn_smarts="[C:1]([C@@:2]1([H:10])[C:3]([H:11])([H:12])[C@:4]([C:5]([H:14])([H:15])[H:16])([H:13])[O:6]1)([H:7])([H:8])[H:9]>>[C:1]([C:3]([C:2](=[O+:6][C-:4]([C:5]([H:14])([H:15])[H:16])[H:13])[H:10])([H:11])[H:12])([H:7])([H:8])[H:9]"
C        1.67092236       0.90819335       0.11190340
C        0.91203355      -0.41647997      -0.95516309
C        0.72591371      -0.78509827       0.45337956
C       -1.23002428      -0.62659768      -0.56950704
C       -1.98996104       0.19872925       0.40161738
O       -0.29938819      -0.09657194      -1.44531999
H        2.30412635       1.35115769      -0.66056884
H        0.87240644       1.63010141       0.28970130
H        2.34349632       0.89264005       0.97273801
H        1.58780202      -0.94173133      -1.61925907
H        1.37581813      -1.61797344       0.72556152
H        0.27265738      -0.47986948       1.38654723
H       -1.88580670      -1.24972258      -1.18171045
H       -3.02562677      -0.14297234       0.46406957
H       -1.64206711       0.10425229       1.43665429
H       -1.99230220       1.27194298       0.18935623
16
Frame=14 idx=000496 GeodesicLength=0.9066560991357027 rxn_smarts="[C:1]([C@@:2]1([H:10])[C:3]([H:11])([H:12])[C@:4]([C:5]([H:14])([H:15])[H:16])([H:13])[O:6]1)([H:7])([H:8])[H:9]>>[C:1]([C:3]([C:2](=[O+:6][C-:4]([C:5]([H:14])([H:15])[H:16])[H:13])[H:10])([H:11])[H:12])([H:7])([H:8])[H:9]"
C        1.68237746       0.91013039       0.10698069
C        0.91338876      -0.41342959      -0.96306142
C        0.70791958      -0.76585277       0.45215752
C       -1.22003956      -0.61143362      -0.57206837
C       -1.99503350       0.18869911       0.40574447
O       -0.30108394      -0.08088082      -1.44911287
H        2.32578181       1.34640649      -0.66134555
H        0.89178912       1.64475544       0.27138997
H        2.35078938       0.90594178       0.97171888
H        1.57225462      -0.96595902      -1.62194718
H        1.33354466      -1.61867732       0.72237458
H        0.28349495      -0.45461787       1.39792382
H       -1.85926765      -1.26388815      -1.17133556
H       -3.03403654      -0.14676652       0.43943519
H       -1.66959084       0.05819091       1.44373948
H       -1.98228829       1.26738156       0.22740635
16
Frame=15 idx=000496 GeodesicLength=0.9723577316685196 rxn_smarts="[C:1]([C@@:2]1([H:10])[C:3]([H:11])([H:12])[C@:4]([C:5]([H:14])([H:15])[H:16])([H:13])[O:6]1)([H:7])([H:8])[H:9]>>[C:1]([C:3]([C:2](=[O+:6][C-:4]([C:5]([H:14])([H:15])[H:16])[H:13])[H:10])([H:11])[H:12])([H:7])([H:8])[H:9]"
C        1.69374074       0.91201157       0.10204322
C        0.91458447      -0.41074463      -0.97066367
C        0.68994392      -0.74597345       0.45112634
C       -1.21055269      -0.59593721      -0.57492226
C       -1.99990919       0.17835910       0.40983484
O       -0.30269728      -0.06522567      -1.45282303
H        2.34737595       1.34111671      -0.66217791
H        0.91144841       1.65932804       0.25246536
H        2.35794139       0.91990853       0.97054486
H        1.55562033      -0.99038963      -1.62381801
H        1.29062163      -1.61793759       0.71985859
H        0.29411195      -0.42959389       1.40865244
H       -1.83209751      -1.27726097      -1.16082017
H       -3.04186992      -0.14937096       0.41474596
H       -1.69669095       0.01027575       1.44874722
H       -1.97157126       1.26143429       0.26720620
16
Frame=16 idx=000496 GeodesicLength=1.0382890509129774 rxn_smarts="[C:1]([C@@:2]1([H:10])[C:3]([H:11])([H:12])[C@:4]([C:5]([H:14])([H:15])[H:16])([H:13])[O:6]1)([H:7])([H:8])[H:9]>>[C:1]([C:3]([C:2](=[O+:6][C-:4]([C:5]([H:14])([H:15])[H:16])[H:13])[H:10])([H:11])[H:12])([H:7])([H:8])[H:9]"
C        1.70495821       0.91380919       0.09715508
C        0.91561585      -0.40843185      -0.97797245
C        0.67199607      -0.72553950       0.45024086
C       -1.20155271      -0.58014291      -0.57803561
C       -2.00455986       0.16776568       0.41384998
O       -0.30423251      -0.04964663      -1.45646241
H        2.36885009       1.33529957      -0.66297063
H        0.93132106       1.67373921       0.23298725
H        2.36489536       0.93449958       0.96925418
H        1.53792753      -1.01490804      -1.62488616
H        1.24714892      -1.61578630       0.71792939
H        0.30449812      -0.40492347       1.41875873
H       -1.80433026      -1.28980996      -1.15010702
H       -3.04904743      -0.15081501       0.39025166
H       -1.72319280      -0.03906706       1.45152402
H       -1.96029564       1.25395751       0.30848314
