13
Frame=0 idx=009881 GeodesicLength=0.0 rxn_smarts="[C:1]([C@@:2]([O:3][C:4](=[O:5])[H:12])([C:6]#[C:7][H:13])[H:11])([H:8])([H:9])[H:10]>>[C:1](/[C:2](=[C:6](/[O:5][C:4](=[O:3])[H:12])[C:7][H:13])[H:11])([H:8])([H:9])[H:10]"
C       -1.48381940      -1.03942418       0.16731617
C       -0.20543388      -0.38028792       0.50038551
O        1.29171869      -1.02438639      -0.67253065
C        1.98202282      -0.00959632      -0.57113539
O        1.58353603       1.05960694       0.03008138
C        0.05592469       0.96686032       0.17478014
C       -0.80725245       1.93532196      -0.06247526
H       -2.01052924      -0.50350335      -0.61696437
H       -2.10097873      -1.05195754       1.07038866
H       -1.29924922      -2.07851246      -0.10973054
H        0.37241663      -0.84157294       1.29608271
H        2.98506813       0.04276225      -1.00426791
H       -0.36342406       2.92468965      -0.20193049
13
Frame=1 idx=009881 GeodesicLength=0.08909108515234442 rxn_smarts="[C:1]([C@@:2]([O:3][C:4](=[O:5])[H:12])([C:6]#[C:7][H:13])[H:11])([H:8])([H:9])[H:10]>>[C:1](/[C:2](=[C:6](/[O:5][C:4](=[O:3])[H:12])[C:7][H:13])[H:11])([H:8])([H:9])[H:10]"
C       -1.48739193      -1.04267134       0.16890921
C       -0.20587800      -0.38113866       0.48764854
O        1.28292588      -1.00936411      -0.69802751
C        1.99938626      -0.01506590      -0.55913443
O        1.60948130       1.04557163       0.05988930
C        0.04736925       0.97080469       0.17778119
C       -0.81151088       1.94057926      -0.06037838
H       -2.01920588      -0.51153783      -0.61531843
H       -2.09960342      -1.04953257       1.07529966
H       -1.30074457      -2.08341033      -0.10091262
H        0.36838697      -0.83457350       1.29070012
H        2.99349391       0.03928042      -1.01213413
H       -0.37670889       2.93105824      -0.21432253
13
Frame=2 idx=009881 GeodesicLength=0.17812521220499716 rxn_smarts="[C:1]([C@@:2]([O:3][C:4](=[O:5])[H:12])([C:6]#[C:7][H:13])[H:11])([H:8])([H:9])[H:10]>>[C:1](/[C:2](=[C:6](/[O:5][C:4](=[O:3])[H:12])[C:7][H:13])[H:11])([H:8])([H:9])[H:10]"
C       -1.49060186      -1.04582966       0.17060497
C       -0.20625509      -0.38151693       0.47493761
O        1.27369987      -0.99290399      -0.72428797
C        2.01582504      -0.02109772      -0.54879473
O        1.63553637       1.03024173       0.08918832
C        0.03850877       0.97512932       0.18107355
C       -0.81610722       1.94618435      -0.05794275
H       -2.02781893      -0.51958302      -0.61336861
H       -2.09775046      -1.04739916       1.08031485
H       -1.30146613      -2.08803263      -0.09221476
H        0.36458794      -0.82730794       1.28498800
H        3.00255512       0.03456807      -1.01754850
H       -0.39071341       2.93754759      -0.22694998
13
Frame=3 idx=009881 GeodesicLength=0.26711173802912525 rxn_smarts="[C:1]([C@@:2]([O:3][C:4](=[O:5])[H:12])([C:6]#[C:7][H:13])[H:11])([H:8])([H:9])[H:10]>>[C:1](/[C:2](=[C:6](/[O:5][C:4](=[O:3])[H:12])[C:7][H:13])[H:11])([H:8])([H:9])[H:10]"
C       -1.49341781      -1.04891189       0.17235682
C       -0.20659905      -0.38135451       0.46229381
O        1.26411778      -0.97504874      -0.75101913
C        2.03141745      -0.02772228      -0.53994019
O        1.66176179       1.01357453       0.11796550
C        0.02930024       0.97986067       0.18456662
C       -0.82107229       1.95212382      -0.05546088
H       -2.03625702      -0.52775666      -0.61127852
H       -2.09550264      -1.04549385       1.08531672
H       -1.30131760      -2.09241340      -0.08355707
H        0.36091695      -0.81961320       1.27910173
H        3.01220449       0.02846159      -1.02105530
H       -0.40555227       2.94429394      -0.23929011
13
Frame=4 idx=009881 GeodesicLength=0.35605737103016954 rxn_smarts="[C:1]([C@@:2]([O:3][C:4](=[O:5])[H:12])([C:6]#[C:7][H:13])[H:11])([H:8])([H:9])[H:10]>>[C:1](/[C:2](=[C:6](/[O:5][C:4](=[O:3])[H:12])[C:7][H:13])[H:11])([H:8])([H:9])[H:10]"
C       -1.49581491      -1.05192761       0.17411088
C       -0.20693728      -0.38061633       0.44979661
O        1.25427014      -0.95583588      -0.77791232
C        2.04627745      -0.03499952      -0.53228372
O        1.68823876       0.99547667       0.14636308
C        0.01972738       0.98500688       0.18826339
C       -0.82639295       1.95838308      -0.05311901
H       -2.04439171      -0.53613670      -0.60921155
H       -2.09296596      -1.04377112       1.09017220
H       -1.30022482      -2.09657420      -0.07490040
H        0.35725511      -0.81140335       1.27321975
H        3.02219376       0.02102970      -1.02336841
H       -0.42123496       2.95136838      -0.25113049
13
Frame=5 idx=009881 GeodesicLength=0.4449467618519993 rxn_smarts="[C:1]([C@@:2]([O:3][C:4](=[O:5])[H:12])([C:6]#[C:7][H:13])[H:11])([H:8])([H:9])[H:10]>>[C:1](/[C:2](=[C:6](/[O:5][C:4](=[O:3])[H:12])[C:7][H:13])[H:11])([H:8])([H:9])[H:10]"
C       -1.49782696      -1.05479212       0.17582340
C       -0.20725499      -0.37943489       0.43772890
O        1.24402966      -0.93478266      -0.80507874
C        2.06040363      -0.04271839      -0.52551498
O        1.71512277       0.97569834       0.17527667
C        0.00986308       0.99055445       0.19319328
C       -0.83194776       1.96513367      -0.04931054
H       -2.05225865      -0.54417284      -0.60690042
H       -2.09013781      -1.04262610       1.09487476
H       -1.29829224      -2.10030175      -0.06688812
H        0.35364033      -0.80332676       1.26735194
H        3.03213505       0.01286299      -1.02505211
H       -0.43747611       2.95790605      -0.26550405
13
Frame=6 idx=009881 GeodesicLength=0.5338101531180482 rxn_smarts="[C:1]([C@@:2]([O:3][C:4](=[O:5])[H:12])([C:6]#[C:7][H:13])[H:11])([H:8])([H:9])[H:10]>>[C:1](/[C:2](=[C:6](/[O:5][C:4](=[O:3])[H:12])[C:7][H:13])[H:11])([H:8])([H:9])[H:10]"
C       -1.49933141      -1.05766345       0.17746044
C       -0.20761455      -0.37749083       0.42577462
O        1.23383729      -0.91281164      -0.83162400
C        2.07402632      -0.05140659      -0.51964338
O        1.74231038       0.95435309       0.20338562
C       -0.00048052       0.99654198       0.19752955
C       -0.83794522       1.97204863      -0.04723668
H       -2.05952919      -0.55297662      -0.60513662
H       -2.08723346      -1.04128874       1.09916765
H       -1.29517012      -2.10398517      -0.05834084
H        0.34978468      -0.79403908       1.26185938
H        3.04212588       0.00315460      -1.02648973
H       -0.45478008       2.96556381      -0.27670603
13
Frame=7 idx=009881 GeodesicLength=0.6226401372464286 rxn_smarts="[C:1]([C@@:2]([O:3][C:4](=[O:5])[H:12])([C:6]#[C:7][H:13])[H:11])([H:8])([H:9])[H:10]>>[C:1](/[C:2](=[C:6](/[O:5][C:4](=[O:3])[H:12])[C:7][H:13])[H:11])([H:8])([H:9])[H:10]"
C       -1.50035982      -1.06050018       0.17901075
C       -0.20799999      -0.37488030       0.41411406
O        1.22360601      -0.88959798      -0.85769274
C        2.08713978      -0.06091746      -0.51449843
O        1.76991615       0.93124820       0.23129858
C       -0.01125417       1.00298353       0.20193011
C       -0.84428901       1.97926085      -0.04588014
H       -2.06623976      -0.56219540      -0.60372060
H       -2.08424999      -1.04004141       1.10309400
H       -1.29095216      -2.10749591      -0.04967556
H        0.34571239      -0.78398212       1.25673481
H        3.05194209      -0.00768683      -1.02796584
H       -0.47297150       2.97380501      -0.28674901
13
Frame=8 idx=009881 GeodesicLength=0.7114230647684073 rxn_smarts="[C:1]([C@@:2]([O:3][C:4](=[O:5])[H:12])([C:6]#[C:7][H:13])[H:11])([H:8])([H:9])[H:10]>>[C:1](/[C:2](=[C:6](/[O:5][C:4](=[O:3])[H:12])[C:7][H:13])[H:11])([H:8])([H:9])[H:10]"
C       -1.50082359      -1.06332653       0.18046154
C       -0.20840736      -0.37150293       0.40266465
O        1.21344103      -0.86538784      -0.88302533
C        2.09976587      -0.07141448      -0.51007849
O        1.79788392       0.90632306       0.25864752
C       -0.02258091       1.00988634       0.20585908
C       -0.85115810       1.98662772      -0.04616002
H       -2.07225561      -0.57215961      -0.60287416
H       -2.08120052      -1.03864748       1.10653428
H       -1.28544122      -2.11087813      -0.04053165
H        0.34139991      -0.77274478       1.25204176
H        3.06157919      -0.02000561      -1.02952047
H       -0.49220260       2.98323028      -0.29401871
13
Frame=9 idx=009881 GeodesicLength=0.8001800634703138 rxn_smarts="[C:1]([C@@:2]([O:3][C:4](=[O:5])[H:12])([C:6]#[C:7][H:13])[H:11])([H:8])([H:9])[H:10]>>[C:1](/[C:2](=[C:6](/[O:5][C:4](=[O:3])[H:12])[C:7][H:13])[H:11])([H:8])([H:9])[H:10]"
C       -1.50078829      -1.06610837       0.18180584
C       -0.20882662      -0.36745958       0.39164101
O        1.20324318      -0.83974714      -0.90780424
C        2.11188593      -0.08269710      -0.50627606
O        1.82635404       0.87931857       0.28610115
C       -0.03439785       1.01728286       0.21012877
C       -0.85842722       1.99435387      -0.04675002
H       -2.07766672      -0.58243381      -0.60233381
H       -2.07809173      -1.03749932       1.10958403
H       -1.27878956      -2.11400830      -0.03145170
H        0.33687980      -0.76085388       1.24778036
H        3.07084774      -0.03328443      -1.03140480
H       -0.51222271       2.99313664      -0.30102053
13
Frame=10 idx=009881 GeodesicLength=0.8888828518934433 rxn_smarts="[C:1]([C@@:2]([O:3][C:4](=[O:5])[H:12])([C:6]#[C:7][H:13])[H:11])([H:8])([H:9])[H:10]>>[C:1](/[C:2](=[C:6](/[O:5][C:4](=[O:3])[H:12])[C:7][H:13])[H:11])([H:8])([H:9])[H:10]"
C       -1.50022725      -1.06874748       0.18302495
C       -0.20922575      -0.36276011       0.38118364
O        1.19292699      -0.81227426      -0.93209235
C        2.12344230      -0.09469049      -0.50303275
O        1.85537765       0.84991147       0.31399119
C       -0.04671443       1.02518165       0.21530716
C       -0.86606935       2.00254781      -0.04679389
H       -2.08247705      -0.59266663      -0.60191861
H       -2.07484576      -1.03678699       1.11225219
H       -1.27098654      -2.11670012      -0.02280353
H        0.33223648      -0.74860468       1.24390974
H        3.07959931      -0.04733345      -1.03369455
H       -0.53303661       3.00292328      -0.30933319
13
Frame=11 idx=009881 GeodesicLength=0.9775744686878031 rxn_smarts="[C:1]([C@@:2]([O:3][C:4](=[O:5])[H:12])([C:6]#[C:7][H:13])[H:11])([H:8])([H:9])[H:10]>>[C:1](/[C:2](=[C:6](/[O:5][C:4](=[O:3])[H:12])[C:7][H:13])[H:11])([H:8])([H:9])[H:10]"
C       -1.49911788      -1.07125971       0.18410862
C       -0.20960298      -0.35733449       0.37131620
O        1.18252366      -0.78290428      -0.95576570
C        2.13444200      -0.10742517      -0.50038140
O        1.88500043       0.81788295       0.34223971
C       -0.05956496       1.03363451       0.22132040
C       -0.87411147       2.01121625      -0.04649946
H       -2.08662383      -0.60295679      -0.60172478
H       -2.07149863      -1.03649509       1.11451019
H       -1.26197429      -2.11897240      -0.01450497
H        0.32745340      -0.73586867       1.24050777
H        3.08783204      -0.06223461      -1.03645724
H       -0.55475750       3.01271752      -0.31866935
13
Frame=12 idx=009881 GeodesicLength=1.0662553202684517 rxn_smarts="[C:1]([C@@:2]([O:3][C:4](=[O:5])[H:12])([C:6]#[C:7][H:13])[H:11])([H:8])([H:9])[H:10]>>[C:1](/[C:2](=[C:6](/[O:5][C:4](=[O:3])[H:12])[C:7][H:13])[H:11])([H:8])([H:9])[H:10]"
C       -1.49737776      -1.07372295       0.18506292
C       -0.20997570      -0.35106148       0.36192013
O        1.17223534      -0.75199539      -0.97851299
C        2.14492902      -0.12112365      -0.49832901
O        1.91512906       0.78314254       0.37038297
C       -0.07310656       1.04268702       0.22742640
C       -0.88272412       2.02021324      -0.04723334
H       -2.08994417      -0.61378605      -0.60203978
H       -2.06810897      -1.03635028       1.11627412
H       -1.25154535      -2.12095272      -0.00606324
H        0.32242583      -0.72208860       1.23769781
H        3.09556185      -0.07829804      -1.03975984
H       -0.57749848       3.02333636      -0.32682615
13
Frame=13 idx=009881 GeodesicLength=1.1549616563383664 rxn_smarts="[C:1]([C@@:2]([O:3][C:4](=[O:5])[H:12])([C:6]#[C:7][H:13])[H:11])([H:8])([H:9])[H:10]>>[C:1](/[C:2](=[C:6](/[O:5][C:4](=[O:3])[H:12])[C:7][H:13])[H:11])([H:8])([H:9])[H:10]"
C       -1.49499197      -1.07614199       0.18588905
C       -0.21033522      -0.34389147       0.35304288
O        1.16207860      -0.71934585      -1.00033305
C        2.15488840      -0.13578119      -0.49688002
O        1.94580498       0.74542292       0.39848020
C       -0.08737179       1.05241128       0.23373449
C       -0.89191368       2.02960355      -0.04887088
H       -2.09242283      -0.62513378      -0.60283850
H       -2.06466752      -1.03646164       1.11757272
H       -1.23966819      -2.12260632       0.00244394
H        0.31715944      -0.70724889       1.23551376
H        3.10278591      -0.09556370      -1.04361716
H       -0.60134614       3.03473707      -0.33413744
13
Frame=14 idx=009881 GeodesicLength=1.2436454622911919 rxn_smarts="[C:1]([C@@:2]([O:3][C:4](=[O:5])[H:12])([C:6]#[C:7][H:13])[H:11])([H:8])([H:9])[H:10]>>[C:1](/[C:2](=[C:6](/[O:5][C:4](=[O:3])[H:12])[C:7][H:13])[H:11])([H:8])([H:9])[H:10]"
C       -1.49180624      -1.07841273       0.18655644
C       -0.21064172      -0.33575174       0.34477793
O        1.15199374      -0.68463130      -1.02113708
C        2.16416881      -0.15142957      -0.49605164
O        1.97694624       0.70424423       0.42660254
C       -0.10247964       1.06284581       0.24055070
C       -0.90181356       2.03943568      -0.05099529
H       -2.09388824      -0.63681738      -0.60407157
H       -2.06102816      -1.03686238       1.11830544
H       -1.22609666      -2.12374940       0.01088341
H        0.31174451      -0.69140372       1.23391297
H        3.10931741      -0.11415207      -1.04800505
H       -0.62641650       3.04668457      -0.34132879
13
Frame=15 idx=009881 GeodesicLength=1.3323617819863098 rxn_smarts="[C:1]([C@@:2]([O:3][C:4](=[O:5])[H:12])([C:6]#[C:7][H:13])[H:11])([H:8])([H:9])[H:10]>>[C:1](/[C:2](=[C:6](/[O:5][C:4](=[O:3])[H:12])[C:7][H:13])[H:11])([H:8])([H:9])[H:10]"
C       -1.48781415      -1.08065326       0.18709889
C       -0.21091825      -0.32654054       0.33700835
O        1.14225977      -0.64818970      -1.04069579
C        2.17286636      -0.16822933      -0.49584856
O        2.00851978       0.65944344       0.45444190
C       -0.11851854       1.07407939       0.24714691
C       -0.91243676       2.04961308      -0.05496766
H       -2.09426695      -0.64930943      -0.60596221
H       -2.05729309      -1.03741241       1.11850334
H       -1.21077721      -2.12452854       0.01968472
H        0.30603364      -0.67402904       1.23304873
H        3.11525057      -0.13422139      -1.05301999
H       -0.65290516       3.05997773      -0.34643864
13
Frame=16 idx=009881 GeodesicLength=1.4211494243806346 rxn_smarts="[C:1]([C@@:2]([O:3][C:4](=[O:5])[H:12])([C:6]#[C:7][H:13])[H:11])([H:8])([H:9])[H:10]>>[C:1](/[C:2](=[C:6](/[O:5][C:4](=[O:3])[H:12])[C:7][H:13])[H:11])([H:8])([H:9])[H:10]"
C       -1.48293154      -1.08279232       0.18750324
C       -0.21114103      -0.31618837       0.32987855
O        1.13285159      -0.60954528      -1.05896831
C        2.18086996      -0.18616631      -0.49627493
O        2.04048561       0.61042775       0.48218356
C       -0.13559230       1.08618685       0.25400775
C       -0.92383457       2.06024896      -0.06019162
H       -2.09350300      -0.66236985      -0.60837784
H       -2.05334993      -1.03831814       1.11816692
H       -1.19356650      -2.12477524       0.02856010
H        0.30011177      -0.65524984       1.23292600
H        3.12043247      -0.15569972      -1.05871156
H       -0.68083254       3.07424152      -0.35070187
