14
Frame=0 idx=011408 GeodesicLength=0.0 rxn_smarts="[O:1]=[C:2]1[C:3]([H:8])([H:9])[C:4]([H:10])=[C:5]([H:11])[C:6]([H:12])([H:13])[N:7]1[H:14]>>[O:1]=[C:2]1[C:3]([H:8])([H:9])[C@@:4]1([C@:5]1([H:11])[C:6]([H:12])([H:13])[N:7]1[H:14])[H:10]"
O        1.42669257       1.76559297       0.97749529
C        0.96699525       0.85858099       0.34425054
C        1.41097297      -0.26193806      -0.48249958
C        0.58768544      -0.98298066       0.55530439
C       -0.82475382      -0.56749452       0.48333164
C       -1.39822070       0.02639136      -0.75285938
N       -0.68313064       0.89261346       0.20604586
H        2.47589240      -0.39315495      -0.31376359
H        1.19014741      -0.31913679      -1.55848169
H        0.90076982      -1.89242963       1.04198018
H       -1.51492274      -0.85398940       1.26737929
H       -2.46297121       0.22462611      -0.80230441
H       -0.91001652      -0.09407884      -1.71016439
H       -1.16514029       1.59739794       0.74428590
14
Frame=1 idx=011408 GeodesicLength=0.0823781319359018 rxn_smarts="[O:1]=[C:2]1[C:3]([H:8])([H:9])[C:4]([H:10])=[C:5]([H:11])[C:6]([H:12])([H:13])[N:7]1[H:14]>>[O:1]=[C:2]1[C:3]([H:8])([H:9])[C@@:4]1([C@:5]1([H:11])[C:6]([H:12])([H:13])[N:7]1[H:14])[H:10]"
O        1.44525313       1.77081246       0.97267264
C        0.97657591       0.85950140       0.35167977
C        1.42224524      -0.26172726      -0.47493445
C        0.58421554      -0.98165434       0.55219021
C       -0.82635285      -0.57532333       0.47881847
C       -1.40780422       0.02840732      -0.74755403
N       -0.68619516       0.90330723       0.19515607
H        2.48504247      -0.40504164      -0.30190145
H        1.20459806      -0.30191313      -1.55133147
H        0.89603419      -1.89380339       1.03534954
H       -1.51432854      -0.87438831       1.26029820
H       -2.47496485       0.21815653      -0.78431892
H       -0.93298558      -0.09864817      -1.71098742
H       -1.17133337       1.61231463       0.72486283
14
Frame=2 idx=011408 GeodesicLength=0.16475794610300187 rxn_smarts="[O:1]=[C:2]1[C:3]([H:8])([H:9])[C:4]([H:10])=[C:5]([H:11])[C:6]([H:12])([H:13])[N:7]1[H:14]>>[O:1]=[C:2]1[C:3]([H:8])([H:9])[C@@:4]1([C@:5]1([H:11])[C:6]([H:12])([H:13])[N:7]1[H:14])[H:10]"
O        1.46404921       1.77588069       0.96785880
C        0.98615790       0.86041939       0.35943808
C        1.43358403      -0.26143970      -0.46717353
C        0.58078294      -0.98024747       0.54894174
C       -0.82798658      -0.58341112       0.47407607
C       -1.41757543       0.03043392      -0.74207031
N       -0.68923369       0.91413895       0.18379255
H        2.49410663      -0.41691530      -0.28992656
H        1.21936733      -0.28471747      -1.54376985
H        0.89150871      -1.89493092       1.02876945
H       -1.51365057      -0.89538662       1.25274573
H       -2.48688005       0.21205195      -0.76579858
H       -0.95679455      -0.10329689      -1.71166805
H       -1.17743589       1.62742059       0.70478446
14
Frame=3 idx=011408 GeodesicLength=0.24706983738408897 rxn_smarts="[O:1]=[C:2]1[C:3]([H:8])([H:9])[C:4]([H:10])=[C:5]([H:11])[C:6]([H:12])([H:13])[N:7]1[H:14]>>[O:1]=[C:2]1[C:3]([H:8])([H:9])[C@@:4]1([C@:5]1([H:11])[C:6]([H:12])([H:13])[N:7]1[H:14])[H:10]"
O        1.48304159       1.78076075       0.96308247
C        0.99572345       0.86133778       0.36751657
C        1.44497240      -0.26106441      -0.45920958
C        0.57738011      -0.97875409       0.54555076
C       -0.82963784      -0.59177659       0.46908280
C       -1.42752098       0.03247244      -0.73639537
N       -0.69221990       0.92510157       0.17190848
H        2.50305859      -0.42875546      -0.27784402
H        1.23444468      -0.26755389      -1.53577824
H        0.88718557      -1.89578117       1.02227415
H       -1.51285029      -0.91699883       1.24469307
H       -2.49869458       0.20634081      -0.74670998
H       -0.98147976      -0.10802060      -1.71218826
H       -1.18340304       1.64269170       0.68401714
14
Frame=4 idx=011408 GeodesicLength=0.3293675355237387 rxn_smarts="[O:1]=[C:2]1[C:3]([H:8])([H:9])[C:4]([H:10])=[C:5]([H:11])[C:6]([H:12])([H:13])[N:7]1[H:14]>>[O:1]=[C:2]1[C:3]([H:8])([H:9])[C@@:4]1([C@:5]1([H:11])[C:6]([H:12])([H:13])[N:7]1[H:14])[H:10]"
O        1.50223065       1.78543958       0.95838717
C        1.00527868       0.86226576       0.37592566
C        1.45643036      -0.26060313      -0.45103959
C        0.57401846      -0.97716881       0.54201245
C       -0.83131359      -0.60042531       0.46382155
C       -1.43765573       0.03452466      -0.73051917
N       -0.69516170       0.93620678       0.15946481
H        2.51192746      -0.44056113      -0.26564581
H        1.24985714      -0.25044281      -1.52737226
H        0.88308882      -1.89635145       1.01586972
H       -1.51193481      -0.93923938       1.23610502
H       -2.51041835       0.20103488      -0.72701119
H       -1.00710637      -0.11282682      -1.71252421
H       -1.18924101       1.65814717       0.66252585
14
Frame=5 idx=011408 GeodesicLength=0.41163194996738567 rxn_smarts="[O:1]=[C:2]1[C:3]([H:8])([H:9])[C:4]([H:10])=[C:5]([H:11])[C:6]([H:12])([H:13])[N:7]1[H:14]>>[O:1]=[C:2]1[C:3]([H:8])([H:9])[C@@:4]1([C@:5]1([H:11])[C:6]([H:12])([H:13])[N:7]1[H:14])[H:10]"
O        1.52159100       1.78988679       0.95381876
C        1.01481467       0.86320915       0.38466354
C        1.46795643      -0.26004790      -0.44265568
C        0.57069688      -0.97548456       0.53831846
C       -0.83300355      -0.60936905       0.45827311
C       -1.44797744       0.03659108      -0.72442502
N       -0.69804247       0.94745361       0.14640638
H        2.52070705      -0.45232192      -0.25332481
H        1.26561259      -0.23337855      -1.51854427
H        0.87921602      -1.89662760       1.00956698
H       -1.51088009      -0.96212893       1.22694532
H       -2.52203881       0.19615345      -0.70664469
H       -1.03373270      -0.11772575      -1.71264609
H       -1.19491958       1.67379018       0.64024801
14
Frame=6 idx=011408 GeodesicLength=0.49386295380358214 rxn_smarts="[O:1]=[C:2]1[C:3]([H:8])([H:9])[C:4]([H:10])=[C:5]([H:11])[C:6]([H:12])([H:13])[N:7]1[H:14]>>[O:1]=[C:2]1[C:3]([H:8])([H:9])[C@@:4]1([C@:5]1([H:11])[C:6]([H:12])([H:13])[N:7]1[H:14])[H:10]"
O        1.54109732       1.79407348       0.94943899
C        1.02432618       0.86417502       0.39372800
C        1.47955683      -0.25939404      -0.43405212
C        0.56741894      -0.97369415       0.53446040
C       -0.83469932      -0.61861991       0.45241596
C       -1.45849098       0.03867289      -0.71809812
N       -0.70084813       0.95884204       0.13267422
H        2.52940387      -0.46402982      -0.24087421
H        1.28172530      -0.21636181      -1.50929295
H        0.87557209      -1.89659427       1.00337968
H       -1.50966600      -0.98568600       1.21717623
H       -2.53355346       0.19171896      -0.68554940
H       -1.06142985      -0.12273012      -1.71252763
H       -1.20041278       1.68962774       0.61712096
14
Frame=7 idx=011408 GeodesicLength=0.5760743478001167 rxn_smarts="[O:1]=[C:2]1[C:3]([H:8])([H:9])[C:4]([H:10])=[C:5]([H:11])[C:6]([H:12])([H:13])[N:7]1[H:14]>>[O:1]=[C:2]1[C:3]([H:8])([H:9])[C@@:4]1([C@:5]1([H:11])[C:6]([H:12])([H:13])[N:7]1[H:14])[H:10]"
O        1.56075106       1.79797041       0.94530027
C        1.03380298       0.86517292       0.40310993
C        1.49122908      -0.25863825      -0.42522669
C        0.56418540      -0.97178794       0.53043039
C       -0.83640209      -0.62818606       0.44622868
C       -1.46918314       0.04077023      -0.71151564
N       -0.70359108       0.97037659       0.11821283
H        2.53801065      -0.47567699      -0.22829198
H        1.29819924      -0.19940120      -1.49962471
H        0.87217133      -1.89623987       0.99731803
H       -1.50828855      -1.00993461       1.20674234
H       -2.54491490       0.18774952      -0.66366398
H       -1.09024341      -0.12784201      -1.71209653
H       -1.20572657       1.70566727       0.59307704
14
Frame=8 idx=011408 GeodesicLength=0.6581909252665783 rxn_smarts="[O:1]=[C:2]1[C:3]([H:8])([H:9])[C:4]([H:10])=[C:5]([H:11])[C:6]([H:12])([H:13])[N:7]1[H:14]>>[O:1]=[C:2]1[C:3]([H:8])([H:9])[C@@:4]1([C@:5]1([H:11])[C:6]([H:12])([H:13])[N:7]1[H:14])[H:10]"
O        1.58043993       1.80154098       0.94148631
C        1.04322959       0.86620795       0.41278795
C        1.50297543      -0.25777752      -0.41617085
C        0.56099897      -0.96976254       0.52621403
C       -0.83808005      -0.63810181       0.43966089
C       -1.48006519       0.04289694      -0.70466948
N       -0.70619954       0.98204307       0.10293419
H        2.54653139      -0.48724293      -0.21556640
H        1.31504467      -0.18250676      -1.48952004
H        0.86899816      -1.89551894       0.99143898
H       -1.50668314      -1.03487884       1.19560973
H       -2.55614141       0.18428102      -0.64090952
H       -1.12029058      -0.13305801      -1.71137282
H       -1.21075824       1.72187740       0.56807704
14
Frame=9 idx=011408 GeodesicLength=0.7402801112043322 rxn_smarts="[O:1]=[C:2]1[C:3]([H:8])([H:9])[C:4]([H:10])=[C:5]([H:11])[C:6]([H:12])([H:13])[N:7]1[H:14]>>[O:1]=[C:2]1[C:3]([H:8])([H:9])[C@@:4]1([C@:5]1([H:11])[C:6]([H:12])([H:13])[N:7]1[H:14])[H:10]"
O        1.60018151       1.80475953       0.93809222
C        1.05260752       0.86729176       0.42275641
C        1.51481700      -0.25681171      -0.40688734
C        0.55786757      -0.96760752       0.52180466
C       -0.83974103      -0.64837708       0.43268648
C       -1.49114522       0.04504966      -0.69754155
N       -0.70869439       0.99384390       0.08677198
H        2.55499652      -0.49872059      -0.20269675
H        1.33228955      -0.16569228      -1.47900458
H        0.86607683      -1.89441811       0.98575848
H       -1.50486012      -1.06053979       1.18372214
H       -2.56721955       0.18134359      -0.61721041
H       -1.15165028      -0.13839759      -1.71029593
H       -1.21552591       1.73827623       0.54204419
14
Frame=10 idx=011408 GeodesicLength=0.8222991601128833 rxn_smarts="[O:1]=[C:2]1[C:3]([H:8])([H:9])[C:4]([H:10])=[C:5]([H:11])[C:6]([H:12])([H:13])[N:7]1[H:14]>>[O:1]=[C:2]1[C:3]([H:8])([H:9])[C@@:4]1([C@:5]1([H:11])[C:6]([H:12])([H:13])[N:7]1[H:14])[H:10]"
O        1.61990988       1.80761431       0.93515304
C        1.06189380       0.86842733       0.43297482
C        1.52672545      -0.25574292      -0.39737066
C        0.55477870      -0.96532331       0.51718083
C       -0.84137906      -0.65903991       0.42526737
C       -1.50237650       0.04725221      -0.69007321
N       -0.71108478       1.00575753       0.06962137
H        2.56335806      -0.51009945      -0.18966199
H        1.34992409      -0.14896682      -1.46806915
H        0.86340508      -1.89292744       0.98027814
H       -1.50280128      -1.08696397       1.17099740
H       -2.57796779       0.17896832      -0.59246272
H       -1.18436994      -0.14379279      -1.70867503
H       -1.22001570       1.75483692       0.51483978
14
Frame=11 idx=011408 GeodesicLength=0.9042986059903549 rxn_smarts="[O:1]=[C:2]1[C:3]([H:8])([H:9])[C:4]([H:10])=[C:5]([H:11])[C:6]([H:12])([H:13])[N:7]1[H:14]>>[O:1]=[C:2]1[C:3]([H:8])([H:9])[C@@:4]1([C@:5]1([H:11])[C:6]([H:12])([H:13])[N:7]1[H:14])[H:10]"
O        1.63961681       1.81005351       0.93280713
C        1.07110383       0.86962644       0.44346407
C        1.53874957      -0.25456225      -0.38760475
C        0.55175881      -0.96289024       0.51234190
C       -0.84296964      -0.67009866       0.41734499
C       -1.51381665       0.04949140      -0.68227265
N       -0.71332231       1.01779642       0.05140832
H        2.57168469      -0.52136787      -0.17642994
H        1.36800262      -0.13232054      -1.45671442
H        0.86099103      -1.89102114       0.97502983
H       -1.50046676      -1.11418016       1.15734990
H       -2.58852585       0.17719205      -0.56652504
H       -1.21863846      -0.14934272      -1.70658719
H       -1.22416771       1.77162376       0.48638786
14
Frame=12 idx=011408 GeodesicLength=0.986225265340924 rxn_smarts="[O:1]=[C:2]1[C:3]([H:8])([H:9])[C:4]([H:10])=[C:5]([H:11])[C:6]([H:12])([H:13])[N:7]1[H:14]>>[O:1]=[C:2]1[C:3]([H:8])([H:9])[C@@:4]1([C@:5]1([H:11])[C:6]([H:12])([H:13])[N:7]1[H:14])[H:10]"
O        1.65919008       1.81209559       0.93112607
C        1.08019306       0.87089292       0.45419350
C        1.55086316      -0.25326118      -0.37756700
C        0.54878822      -0.96031694       0.50725794
C       -0.84448319      -0.68159837       0.40888413
C       -1.52542920       0.05177721      -0.67406872
N       -0.71536106       1.02991605       0.03198980
H        2.57992067      -0.53250114      -0.16295824
H        1.38652819      -0.11573506      -1.44489378
H        0.85879778      -1.88870088       0.96999192
H       -1.49780605      -1.14228603       1.14268179
H       -2.59874794       0.17607626      -0.53921321
H       -1.25457469      -0.15499047      -1.70387885
H       -1.22787903       1.78863205       0.45645464
14
Frame=13 idx=011408 GeodesicLength=1.0681447312579395 rxn_smarts="[O:1]=[C:2]1[C:3]([H:8])([H:9])[C:4]([H:10])=[C:5]([H:11])[C:6]([H:12])([H:13])[N:7]1[H:14]>>[O:1]=[C:2]1[C:3]([H:8])([H:9])[C@@:4]1([C@:5]1([H:11])[C:6]([H:12])([H:13])[N:7]1[H:14])[H:10]"
O        1.67860616       1.81372453       0.93020382
C        1.08914480       0.87223426       0.46515455
C        1.56310505      -0.25184766      -0.36725005
C        0.54588694      -0.95759955       0.50191993
C       -0.84592138      -0.69356970       0.39980752
C       -1.53723778       0.05413434      -0.66543438
N       -0.71720943       1.04210387       0.01125317
H        2.58812478      -0.54349440      -0.14920520
H        1.40555895      -0.09923434      -1.43263176
H        0.85685551      -1.88594231       0.96521432
H       -1.49481584      -1.17133159       1.12687251
H       -2.60859761       0.17568119      -0.51037433
H       -1.29234921      -0.16072490      -1.70045837
H       -1.23115094       1.80586625       0.42492827
14
Frame=14 idx=011408 GeodesicLength=1.1500439028058038 rxn_smarts="[O:1]=[C:2]1[C:3]([H:8])([H:9])[C:4]([H:10])=[C:5]([H:11])[C:6]([H:12])([H:13])[N:7]1[H:14]>>[O:1]=[C:2]1[C:3]([H:8])([H:9])[C@@:4]1([C@:5]1([H:11])[C:6]([H:12])([H:13])[N:7]1[H:14])[H:10]"
O        1.69778899       1.81493971       0.93012042
C        1.09792303       0.87365662       0.47632452
C        1.57547738      -0.25031837      -0.35663484
C        0.54305029      -0.95473833       0.49630525
C       -0.84726284      -0.70606472       0.39002449
C       -1.54922921       0.05657836      -0.65632038
N       -0.71883638       1.05432207      -0.01093725
H        2.59629302      -0.55432332      -0.13512468
H        1.42512449      -0.08282453      -1.41991034
H        0.85514806      -1.88271366       0.96073813
H       -1.49146012      -1.20138594       1.10977885
H       -2.61797066       0.17607535      -0.47981611
H       -1.33213021      -0.16651004      -1.69619771
H       -1.23391584       1.82330681       0.39164964
14
Frame=15 idx=011408 GeodesicLength=1.2319921435633039 rxn_smarts="[O:1]=[C:2]1[C:3]([H:8])([H:9])[C:4]([H:10])=[C:5]([H:11])[C:6]([H:12])([H:13])[N:7]1[H:14]>>[O:1]=[C:2]1[C:3]([H:8])([H:9])[C@@:4]1([C@:5]1([H:11])[C:6]([H:12])([H:13])[N:7]1[H:14])[H:10]"
O        1.71669337       1.81576140       0.93098527
C        1.10651072       0.87516825       0.48769965
C        1.58802845      -0.24867817      -0.34570433
C        0.54029089      -0.95173651       0.49039505
C       -0.84850599      -0.71914378       0.37942837
C       -1.56143180       0.05912555      -0.64668414
N       -0.72022991       1.06652380      -0.03472971
H        2.60449573      -0.56496871      -0.12066099
H        1.44530350      -0.06653033      -1.40673802
H        0.85368185      -1.87898207       0.95661788
H       -1.48773822      -1.23251844       1.09124956
H       -2.62681041       0.17734029      -0.44731884
H       -1.37415099      -0.17229876      -1.69098781
H       -1.23613718       1.84093747       0.35644806
14
Frame=16 idx=011408 GeodesicLength=1.313721829896051 rxn_smarts="[O:1]=[C:2]1[C:3]([H:8])([H:9])[C:4]([H:10])=[C:5]([H:11])[C:6]([H:12])([H:13])[N:7]1[H:14]>>[O:1]=[C:2]1[C:3]([H:8])([H:9])[C@@:4]1([C@:5]1([H:11])[C:6]([H:12])([H:13])[N:7]1[H:14])[H:10]"
O        1.73505933       1.81617575       0.93272215
C        1.11474357       0.87675691       0.49918806
C        1.60062121      -0.24692557      -0.33439592
C        0.53757189      -0.94860387       0.48415285
C       -0.84954213      -0.73287657       0.36786935
C       -1.57367298       0.06183391      -0.63640751
N       -0.72133244       1.07865387      -0.06030489
H        2.61250689      -0.57540864      -0.10571070
H        1.46600394      -0.05034793      -1.39297786
H        0.85239348      -1.87473221       0.95286630
H       -1.48347684      -1.26484738       1.07099323
H       -2.63468869       0.17957752      -0.41260342
H       -1.41849129      -0.17794823      -1.68446919
H       -1.23769592       1.85869243       0.31907755
