16
Frame=0 idx=005077 GeodesicLength=0.0 rxn_smarts="[C:1]([C:2]([C:3]([C:4]([C:5](=[O:6])[H:16])([H:14])[H:15])([H:12])[H:13])([H:10])[H:11])([H:7])([H:8])[H:9]>>[C-:5]#[O+:6].[C:1]([C:2]([C:3](=[C:4]([H:14])[H:15])[H:12])([H:10])[H:11])([H:7])([H:8])[H:9].[H:13][H:16]"
C       -2.16221736       0.38324398       0.32041340
C       -1.04239469      -0.62156994       0.08617688
C        0.13839936      -0.06089820      -0.67084966
C        1.36811890      -0.69303556      -0.67655872
C        2.50863135       0.35983694       0.61157458
O        3.64223724       0.33056675       0.73347744
H       -3.00434239      -0.07967343       0.83721033
H       -1.81824455       1.22584136       0.92366792
H       -2.53479198       0.78212300      -0.62624156
H       -0.69197198      -1.02423095       1.04203023
H       -1.43937903      -1.47693525      -0.47196036
H       -0.10007624       0.59633706      -1.50380328
H        0.46088809       1.16320187       0.28701788
H        2.03857967      -0.55645705      -1.51783475
H        1.48145945      -1.63945353      -0.15659154
H        1.15510412       1.31110295       0.78227117
16
Frame=1 idx=005077 GeodesicLength=0.09198922962914906 rxn_smarts="[C:1]([C:2]([C:3]([C:4]([C:5](=[O:6])[H:16])([H:14])[H:15])([H:12])[H:13])([H:10])[H:11])([H:7])([H:8])[H:9]>>[C-:5]#[O+:6].[C:1]([C:2]([C:3](=[C:4]([H:14])[H:15])[H:12])([H:10])[H:11])([H:7])([H:8])[H:9].[H:13][H:16]"
C       -2.16533183       0.37742496       0.32712278
C       -1.04675656      -0.62612912       0.08159016
C        0.13531297      -0.05835657      -0.66714168
C        1.36593060      -0.69382307      -0.67118568
C        2.51747357       0.36214287       0.60991970
O        3.64658362       0.32585470       0.77155240
H       -3.01043921      -0.09202370       0.83319848
H       -1.82210780       1.20850583       0.94653791
H       -2.53358056       0.79281872      -0.61404534
H       -0.69915883      -1.04125355       1.03312080
H       -1.44499614      -1.47362807      -0.48766280
H       -0.10391931       0.58913324      -1.50771886
H        0.46700548       1.18516119       0.26677979
H        2.02480804      -0.57133671      -1.52416774
H        1.47843982      -1.64124300      -0.15234814
H        1.19073613       1.35675227       0.75444821
16
Frame=2 idx=005077 GeodesicLength=0.18396876071978185 rxn_smarts="[C:1]([C:2]([C:3]([C:4]([C:5](=[O:6])[H:16])([H:14])[H:15])([H:12])[H:13])([H:10])[H:11])([H:7])([H:8])[H:9]>>[C-:5]#[O+:6].[C:1]([C:2]([C:3](=[C:4]([H:14])[H:15])[H:12])([H:10])[H:11])([H:7])([H:8])[H:9].[H:13][H:16]"
C       -2.16816344       0.37141666       0.33452353
C       -1.05131703      -0.63101319       0.07658621
C        0.13213415      -0.05575453      -0.66329013
C        1.36370326      -0.69448687      -0.66567330
C        2.52638141       0.36538391       0.60763973
O        3.64879776       0.32122946       0.81292127
H       -3.01632904      -0.10439410       0.82956864
H       -1.82512234       1.19000450       0.97044129
H       -2.53206469       0.80418307      -0.60042646
H       -0.70672303      -1.05965479       1.02318825
H       -1.45107824      -1.46976564      -0.50453572
H       -0.10779944       0.58175817      -1.51152428
H        0.47306613       1.20722488       0.24557079
H        2.01047897      -0.58676313      -1.53030284
H        1.47554152      -1.64261349      -0.14745310
H        1.22849404       1.40324509       0.72276612
16
Frame=3 idx=005077 GeodesicLength=0.27594119378630766 rxn_smarts="[C:1]([C:2]([C:3]([C:4]([C:5](=[O:6])[H:16])([H:14])[H:15])([H:12])[H:13])([H:10])[H:11])([H:7])([H:8])[H:9]>>[C-:5]#[O+:6].[C:1]([C:2]([C:3](=[C:4]([H:14])[H:15])[H:12])([H:10])[H:11])([H:7])([H:8])[H:9].[H:13][H:16]"
C       -2.17071932       0.36522428       0.34258873
C       -1.05613137      -0.63621691       0.07109465
C        0.12890106      -0.05306693      -0.65917293
C        1.36142753      -0.69509613      -0.65991875
C        2.53557899       0.36958615       0.60453907
O        3.64864871       0.31735098       0.85725283
H       -3.02207852      -0.11674502       0.82620715
H       -1.82728608       1.17024103       0.99539049
H       -2.53016359       0.81629220      -0.58534839
H       -0.71483283      -1.07955626       1.01208613
H       -1.45767418      -1.46520601      -0.52275818
H       -0.11155916       0.57437020      -1.51502648
H        0.47912613       1.22925110       0.22366487
H        1.99547857      -0.60301020      -1.53618222
H        1.47273065      -1.64356278      -0.14166360
H        1.26855340       1.45014429       0.68724662
16
Frame=4 idx=005077 GeodesicLength=0.3679592601167984 rxn_smarts="[C:1]([C:2]([C:3]([C:4]([C:5](=[O:6])[H:16])([H:14])[H:15])([H:12])[H:13])([H:10])[H:11])([H:7])([H:8])[H:9]>>[C-:5]#[O+:6].[C:1]([C:2]([C:3](=[C:4]([H:14])[H:15])[H:12])([H:10])[H:11])([H:7])([H:8])[H:9].[H:13][H:16]"
C       -2.17304345       0.35887412       0.35126473
C       -1.06130376      -0.64174422       0.06500105
C        0.12566852      -0.05029416      -0.65461320
C        1.35910373      -0.69579138      -0.65371650
C        2.54533094       0.37463897       0.60054568
O        3.64614422       0.31539042       0.90369915
H       -3.02785979      -0.12902048       0.82284592
H       -1.82864820       1.14904358       1.02149532
H       -2.52773950       0.82937467      -0.56876468
H       -0.72376142      -1.10116356       0.99959833
H       -1.46488747      -1.45975629      -0.54262755
H       -0.11496917       0.56713447      -1.51798535
H        0.48525532       1.25107448       0.20143876
H        1.97970319      -0.62050760      -1.54163751
H        1.46991426      -1.64416781      -0.13463721
H        1.31109256       1.49691480       0.64809306
16
Frame=5 idx=005077 GeodesicLength=0.459864801697597 rxn_smarts="[C:1]([C:2]([C:3]([C:4]([C:5](=[O:6])[H:16])([H:14])[H:15])([H:12])[H:13])([H:10])[H:11])([H:7])([H:8])[H:9]>>[C-:5]#[O+:6].[C:1]([C:2]([C:3](=[C:4]([H:14])[H:15])[H:12])([H:10])[H:11])([H:7])([H:8])[H:9].[H:13][H:16]"
C       -2.17503413       0.35223316       0.36063726
C       -1.06662693      -0.64748006       0.05845254
C        0.12240893      -0.04726963      -0.64972535
C        1.35670337      -0.69630180      -0.64741720
C        2.55572608       0.38077877       0.59515097
O        3.64000741       0.31391272       0.95394519
H       -3.03333275      -0.14133635       0.81995291
H       -1.82915964       1.12653884       1.04837996
H       -2.52497772       0.84280737      -0.55062230
H       -0.73311410      -1.12405218       0.98584841
H       -1.47241992      -1.45342563      -0.56368548
H       -0.11823867       0.56014689      -1.52050641
H        0.49148703       1.27284904       0.17862658
H        1.96300667      -0.63877589      -1.54696033
H        1.46725217      -1.64414496      -0.12673583
H        1.35631220       1.54351971       0.60465907
16
Frame=6 idx=005077 GeodesicLength=0.5518199595350888 rxn_smarts="[C:1]([C:2]([C:3]([C:4]([C:5](=[O:6])[H:16])([H:14])[H:15])([H:12])[H:13])([H:10])[H:11])([H:7])([H:8])[H:9]>>[C-:5]#[O+:6].[C:1]([C:2]([C:3](=[C:4]([H:14])[H:15])[H:12])([H:10])[H:11])([H:7])([H:8])[H:9].[H:13][H:16]"
C       -2.17683537       0.34539023       0.37055240
C       -1.07231997      -0.65344253       0.05125490
C        0.11921916      -0.04405678      -0.64419543
C        1.35424987      -0.69694475      -0.64058195
C        2.56701381       0.38737679       0.58886292
O        3.63087438       0.31545222       1.00562506
H       -3.03890415      -0.15356569       0.81694099
H       -1.82900436       1.10249353       1.07624934
H       -2.52166367       0.85707507      -0.53094305
H       -0.74340979      -1.14856607       0.97051355
H       -1.48049221      -1.44594604      -0.58644431
H       -0.12095438       0.55362071      -1.52219556
H        0.49793792       1.29430759       0.15590031
H        1.94537128      -0.65845874      -1.55168467
H        1.46448027      -1.64384253      -0.11752734
H        1.40443721       1.58910701       0.55767283
16
Frame=7 idx=005077 GeodesicLength=0.6437092583866557 rxn_smarts="[C:1]([C:2]([C:3]([C:4]([C:5](=[O:6])[H:16])([H:14])[H:15])([H:12])[H:13])([H:10])[H:11])([H:7])([H:8])[H:9]>>[C-:5]#[O+:6].[C:1]([C:2]([C:3](=[C:4]([H:14])[H:15])[H:12])([H:10])[H:11])([H:7])([H:8])[H:9].[H:13][H:16]"
C       -2.17839634       0.33828331       0.38104841
C       -1.07830287      -0.65954924       0.04344773
C        0.11610954      -0.04059165      -0.63802413
C        1.35172861      -0.69764577      -0.63328691
C        2.57908658       0.39412983       0.58193505
O        3.61810005       0.32007827       1.05889264
H       -3.04445943      -0.16574852       0.81393003
H       -1.82818306       1.07685663       1.10498916
H       -2.51779427       0.87196856      -0.50963398
H       -0.75452938      -1.17451063       0.95355127
H       -1.48897874      -1.43720308      -0.61073237
H       -0.12312866       0.54761620      -1.52305344
H        0.50464815       1.31548159       0.13320957
H        1.92681250      -0.67926599      -1.55573278
H        1.46153737      -1.64326791      -0.10726196
H        1.45574993       1.63336839       0.50672172
16
Frame=8 idx=005077 GeodesicLength=0.7356335255206077 rxn_smarts="[C:1]([C:2]([C:3]([C:4]([C:5](=[O:6])[H:16])([H:14])[H:15])([H:12])[H:13])([H:10])[H:11])([H:7])([H:8])[H:9]>>[C-:5]#[O+:6].[C:1]([C:2]([C:3](=[C:4]([H:14])[H:15])[H:12])([H:10])[H:11])([H:7])([H:8])[H:9].[H:13][H:16]"
C       -2.17977853       0.33091307       0.39214204
C       -1.08465637      -0.66578008       0.03493583
C        0.11309459      -0.03689839      -0.63112080
C        1.34916236      -0.69850859      -0.62534392
C        2.59164089       0.40048872       0.57536201
O        3.60196068       0.32897280       1.11264831
H       -3.05016904      -0.17786046       0.81072719
H       -1.82677185       1.04939377       1.13477302
H       -2.51328843       0.88769097      -0.48650987
H       -0.76663043      -1.20199134       0.93471061
H       -1.49797726      -1.42699411      -0.63673279
H       -0.12465493       0.54216466      -1.52300551
H        0.51163676       1.33635806       0.11071301
H        1.90753876      -0.70110087      -1.55872084
H        1.45825377      -1.64269457      -0.09601063
H        1.51063903       1.67584637       0.45143233
16
Frame=9 idx=005077 GeodesicLength=0.8273851948163705 rxn_smarts="[C:1]([C:2]([C:3]([C:4]([C:5](=[O:6])[H:16])([H:14])[H:15])([H:12])[H:13])([H:10])[H:11])([H:7])([H:8])[H:9]>>[C-:5]#[O+:6].[C:1]([C:2]([C:3](=[C:4]([H:14])[H:15])[H:12])([H:10])[H:11])([H:7])([H:8])[H:9].[H:13][H:16]"
C       -2.18074346       0.32309125       0.40393331
C       -1.09083478      -0.67186506       0.02620096
C        0.11014351      -0.03266890      -0.62382009
C        1.34652116      -0.69900245      -0.61767709
C        2.60487580       0.40678420       0.56811420
O        3.57924431       0.33921705       1.17030159
H       -3.05521055      -0.19013863       0.80843893
H       -1.82464992       1.02082893       1.16464648
H       -2.50867005       0.90281140      -0.46183429
H       -0.77861897      -1.22980660       0.91467677
H       -1.50677093      -1.41564207      -0.66311364
H       -0.12605792       0.53739258      -1.52236087
H        0.51902576       1.35725798       0.08766777
H        1.88727687      -0.72281473      -1.56159393
H        1.45500825      -1.64164607      -0.08485567
H        1.56946093       1.71620112       0.39127557
16
Frame=10 idx=005077 GeodesicLength=0.9191150787428575 rxn_smarts="[C:1]([C:2]([C:3]([C:4]([C:5](=[O:6])[H:16])([H:14])[H:15])([H:12])[H:13])([H:10])[H:11])([H:7])([H:8])[H:9]>>[C-:5]#[O+:6].[C:1]([C:2]([C:3](=[C:4]([H:14])[H:15])[H:12])([H:10])[H:11])([H:7])([H:8])[H:9].[H:13][H:16]"
C       -2.18173655       0.31492319       0.41610477
C       -1.09741506      -0.67789188       0.01678660
C        0.10729248      -0.02810441      -0.61555966
C        1.34379274      -0.69962945      -0.60910915
C        2.61788340       0.41174832       0.56310525
O        3.55404097       0.35519346       1.22580678
H       -3.06059121      -0.20242345       0.80570204
H       -1.82240479       0.99041665       1.19518436
H       -2.50356117       0.91841727      -0.43554655
H       -0.79170221      -1.25874892       0.89270056
H       -1.51590198      -1.40261405      -0.69101498
H       -0.12664831       0.53345024      -1.52053210
H        0.52669062       1.37781832       0.06525116
H        1.86656927      -0.74487310      -1.56287219
H        1.45108206      -1.64092053      -0.07305109
H        1.63260976       1.75323833       0.32704420
16
Frame=11 idx=005077 GeodesicLength=1.0108122929568033 rxn_smarts="[C:1]([C:2]([C:3]([C:4]([C:5](=[O:6])[H:16])([H:14])[H:15])([H:12])[H:13])([H:10])[H:11])([H:7])([H:8])[H:9]>>[C-:5]#[O+:6].[C:1]([C:2]([C:3](=[C:4]([H:14])[H:15])[H:12])([H:10])[H:11])([H:7])([H:8])[H:9].[H:13][H:16]"
C       -2.18278154       0.30628945       0.42865446
C       -1.10425389      -0.68372502       0.00682594
C        0.10449432      -0.02306578      -0.60639763
C        1.34093692      -0.70017495      -0.59986414
C        2.63065187       0.41564898       0.56007692
O        3.52577469       0.37608961       1.27996163
H       -3.06615418      -0.21488092       0.80274455
H       -1.82018587       0.95825796       1.22608214
H       -2.49819182       0.93401016      -0.40770391
H       -0.80556598      -1.28834505       0.86892051
H       -1.52511166      -1.38792468      -0.72000095
H       -0.12659743       0.53044887      -1.51757441
H        0.53455851       1.39817991       0.04333159
H        1.84531888      -0.76683624      -1.56279614
H        1.44657132      -1.64030203      -0.06082106
H        1.70053586       1.78632973       0.25856052
16
Frame=12 idx=005077 GeodesicLength=1.1028606112471504 rxn_smarts="[C:1]([C:2]([C:3]([C:4]([C:5](=[O:6])[H:16])([H:14])[H:15])([H:12])[H:13])([H:10])[H:11])([H:7])([H:8])[H:9]>>[C-:5]#[O+:6].[C:1]([C:2]([C:3](=[C:4]([H:14])[H:15])[H:12])([H:10])[H:11])([H:7])([H:8])[H:9].[H:13][H:16]"
C       -2.18416503       0.29709256       0.44149152
C       -1.11158291      -0.68936844      -0.00386797
C        0.10166036      -0.01751797      -0.59614439
C        1.33790855      -0.70068559      -0.58955059
C        2.64305467       0.41865056       0.55962235
O        3.49621151       0.40282880       1.33145207
H       -3.07234331      -0.22765534       0.79905247
H       -1.81837231       0.92387755       1.25753823
H       -2.49263053       0.94984794      -0.37814447
H       -0.82056295      -1.31882873       0.84293863
H       -1.53459509      -1.37132767      -0.75043622
H       -0.12584870       0.52856653      -1.51332200
H        0.54245841       1.41843756       0.02232679
H        1.82354202      -0.78878500      -1.56093917
H        1.44136226      -1.63988003      -0.04768341
H        1.77390305       1.81474727       0.18566616
16
Frame=13 idx=005077 GeodesicLength=1.1943082508990301 rxn_smarts="[C:1]([C:2]([C:3]([C:4]([C:5](=[O:6])[H:16])([H:14])[H:15])([H:12])[H:13])([H:10])[H:11])([H:7])([H:8])[H:9]>>[C-:5]#[O+:6].[C:1]([C:2]([C:3](=[C:4]([H:14])[H:15])[H:12])([H:10])[H:11])([H:7])([H:8])[H:9].[H:13][H:16]"
C       -2.18538585       0.28724321       0.45481451
C       -1.11838810      -0.69438083      -0.01436098
C        0.09891047      -0.01109691      -0.58535337
C        1.33478723      -0.70042336      -0.57983280
C        2.65520460       0.42081681       0.56016024
O        3.45861051       0.43187818       1.38499489
H       -3.07776463      -0.24098171       0.79649624
H       -1.81662133       0.88889045       1.28823643
H       -2.48758875       0.96386913      -0.34753183
H       -0.83477507      -1.34812322       0.81629762
H       -1.54310481      -1.35359043      -0.78003180
H       -0.12503293       0.52783939      -1.50818171
H        0.55052327       1.43878948       0.00111646
H        1.80115135      -0.80904796      -1.55914543
H        1.43599983      -1.63896814      -0.03586315
H        1.85347421       1.83728592       0.10818468
16
Frame=14 idx=005077 GeodesicLength=1.286067099617267 rxn_smarts="[C:1]([C:2]([C:3]([C:4]([C:5](=[O:6])[H:16])([H:14])[H:15])([H:12])[H:13])([H:10])[H:11])([H:7])([H:8])[H:9]>>[C-:5]#[O+:6].[C:1]([C:2]([C:3](=[C:4]([H:14])[H:15])[H:12])([H:10])[H:11])([H:7])([H:8])[H:9].[H:13][H:16]"
C       -2.18763700       0.27654320       0.46791304
C       -1.12586273      -0.69901697      -0.02561265
C        0.09600162      -0.00388759      -0.57288236
C        1.33132204      -0.69989364      -0.56851023
C        2.66682907       0.42229601       0.56380598
O        3.42270218       0.46781153       1.43276499
H       -3.08446091      -0.25512498       0.79229764
H       -1.81656620       0.85143976       1.31904618
H       -2.48293391       0.97764180      -0.31573926
H       -0.85043533      -1.37789160       0.78738884
H       -1.55155847      -1.33376909      -0.81110941
H       -0.12333508       0.52896839      -1.50097509
H        0.55816115       1.45901297      -0.01758285
H        1.77800688      -0.82900034      -1.55508451
H        1.42970662      -1.63801392      -0.02261280
H        1.94006009       1.85288445       0.02689250
16
Frame=15 idx=005077 GeodesicLength=1.3778853121562347 rxn_smarts="[C:1]([C:2]([C:3]([C:4]([C:5](=[O:6])[H:16])([H:14])[H:15])([H:12])[H:13])([H:10])[H:11])([H:7])([H:8])[H:9]>>[C-:5]#[O+:6].[C:1]([C:2]([C:3](=[C:4]([H:14])[H:15])[H:12])([H:10])[H:11])([H:7])([H:8])[H:9].[H:13][H:16]"
C       -2.19103064       0.26481701       0.48075103
C       -1.13375581      -0.70308143      -0.03738975
C        0.09291260       0.00433996      -0.55866005
C        1.32749372      -0.69873983      -0.55591306
C        2.67817645       0.42345664       0.56968450
O        3.38713740       0.50987614       1.47578953
H       -3.09227288      -0.27038994       0.78666763
H       -1.81857046       0.81172364       1.34957777
H       -2.47909558       0.99047223      -0.28295023
H       -0.86704054      -1.40747206       0.75651896
H       -1.55945667      -1.31192887      -0.84308684
H       -0.12089952       0.53227655      -1.49151754
H        0.56513070       1.47924897      -0.03340329
H        1.75389619      -0.84814852      -1.54919059
H        1.42267149      -1.63656906      -0.00825197
H        2.03470354       1.86011856      -0.05862610
16
Frame=16 idx=005077 GeodesicLength=1.46979224125965 rxn_smarts="[C:1]([C:2]([C:3]([C:4]([C:5](=[O:6])[H:16])([H:14])[H:15])([H:12])[H:13])([H:10])[H:11])([H:7])([H:8])[H:9]>>[C-:5]#[O+:6].[C:1]([C:2]([C:3](=[C:4]([H:14])[H:15])[H:12])([H:10])[H:11])([H:7])([H:8])[H:9].[H:13][H:16]"
C       -2.19597683       0.25181826       0.49313351
C       -1.14216962      -0.70647665      -0.04979626
C        0.08952410       0.01377834      -0.54228482
C        1.32319784      -0.69672583      -0.54168345
C        2.68930446       0.42476815       0.57766700
O        3.35341448       0.55874831       1.51294504
H       -3.10158978      -0.28714895       0.77898879
H       -1.82336865       0.76925701       1.37979690
H       -2.47641332       1.00221304      -0.24915859
H       -0.88473834      -1.43682023       0.72337937
H       -1.56661392      -1.28778312      -0.87618369
H       -0.11765999       0.53825024      -1.47928694
H        0.57097416       1.49964999      -0.04522322
H        1.72860852      -0.86633288      -1.54111892
H        1.41484961      -1.63429711       0.00772176
H        2.13865727       1.85710143      -0.14889650
