10
Frame=0 idx=007264 GeodesicLength=0.0 rxn_smarts="[N:1]#[C:2][c:3]1[n:4][c:5]([H:8])[c:6]([H:9])[n:7]1[H:10]>>[N-:1]=[C:2]=[C:3]1[N:4]([H:8])[C+:5]=[C:6]([H:9])[N:7]1[H:10]"
N        3.16398230      -0.53198035       0.35988484
C        2.02749653      -0.43643132       0.22413796
C        0.62381146      -0.29357386       0.06308395
N       -0.30217794      -1.25001405       0.13891371
C       -1.59735829      -0.66226915      -0.05800710
C       -1.32320040       0.67474040      -0.29252536
N        0.02735770       0.85898268      -0.27262453
H       -1.15587462      -1.55562054       0.87113425
H       -1.98646112       1.49825209      -0.50144355
H        0.52242439       1.69791409      -0.53255418
10
Frame=1 idx=007264 GeodesicLength=0.037254565993352806 rxn_smarts="[N:1]#[C:2][c:3]1[n:4][c:5]([H:8])[c:6]([H:9])[n:7]1[H:10]>>[N-:1]=[C:2]=[C:3]1[N:4]([H:8])[C+:5]=[C:6]([H:9])[N:7]1[H:10]"
N        3.16515448      -0.53212751       0.35402857
C        2.02741864      -0.43558499       0.22966168
C        0.62413245      -0.29117330       0.06722129
N       -0.30153629      -1.24741362       0.14015440
C       -1.59250512      -0.66346765      -0.06316901
C       -1.32200506       0.67454482      -0.29333976
N        0.02865774       0.86050688      -0.27476487
H       -1.16559028      -1.56173501       0.87374274
H       -1.98729979       1.49759910      -0.49726079
H        0.52357323       1.69885128      -0.53627424
10
Frame=2 idx=007264 GeodesicLength=0.07449042163764431 rxn_smarts="[N:1]#[C:2][c:3]1[n:4][c:5]([H:8])[c:6]([H:9])[n:7]1[H:10]>>[N-:1]=[C:2]=[C:3]1[N:4]([H:8])[C+:5]=[C:6]([H:9])[N:7]1[H:10]"
N        3.16619738      -0.53215142       0.34845299
C        2.02733043      -0.43465410       0.23539678
C        0.62447710      -0.28879647       0.07117370
N       -0.30085226      -1.24483881       0.14123811
C       -1.58761195      -0.66462472      -0.06818940
C       -1.32076956       0.67431254      -0.29426768
N        0.02999903       0.86195499      -0.27716257
H       -1.17541735      -1.56788911       0.87620945
H       -1.98811959       1.49703709      -0.49242322
H        0.52476678       1.69965002      -0.54042816
10
Frame=3 idx=007264 GeodesicLength=0.11170943557603566 rxn_smarts="[N:1]#[C:2][c:3]1[n:4][c:5]([H:8])[c:6]([H:9])[n:7]1[H:10]>>[N-:1]=[C:2]=[C:3]1[N:4]([H:8])[C+:5]=[C:6]([H:9])[N:7]1[H:10]"
N        3.16716073      -0.53240914       0.34237298
C        2.02725038      -0.43364767       0.24118260
C        0.62484961      -0.28640853       0.07498701
N       -0.30012155      -1.24224408       0.14225093
C       -1.58270764      -0.66566617      -0.07271308
C       -1.31954060       0.67414114      -0.29488435
N        0.03132505       0.86346647      -0.27932285
H       -1.18523966      -1.57410334       0.87873683
H       -1.98887821       1.49618151      -0.48879926
H        0.52590189       1.70068981      -0.54381081
10
Frame=4 idx=007264 GeodesicLength=0.14894301222582074 rxn_smarts="[N:1]#[C:2][c:3]1[n:4][c:5]([H:8])[c:6]([H:9])[n:7]1[H:10]>>[N-:1]=[C:2]=[C:3]1[N:4]([H:8])[C+:5]=[C:6]([H:9])[N:7]1[H:10]"
N        3.16799551      -0.53254705       0.33708325
C        2.02724605      -0.43280288       0.24619421
C        0.62526847      -0.28412941       0.07826696
N       -0.29938686      -1.23970497       0.14301199
C       -1.57785584      -0.66657014      -0.07666742
C       -1.31832714       0.67404335      -0.29520502
N        0.03265635       0.86496017      -0.28158545
H       -1.19499102      -1.58036386       0.88135804
H       -1.98961181       1.49526681      -0.48550476
H        0.52700630       1.70184799      -0.54695179
10
Frame=5 idx=007264 GeodesicLength=0.18617970855768706 rxn_smarts="[N:1]#[C:2][c:3]1[n:4][c:5]([H:8])[c:6]([H:9])[n:7]1[H:10]>>[N-:1]=[C:2]=[C:3]1[N:4]([H:8])[C+:5]=[C:6]([H:9])[N:7]1[H:10]"
N        3.16877308      -0.53267186       0.33200658
C        2.02726554      -0.43191987       0.25114768
C        0.62571728      -0.28185882       0.08137552
N       -0.29860605      -1.23718684       0.14359601
C       -1.57300209      -0.66739779      -0.08032683
C       -1.31710786       0.67397983      -0.29537326
N        0.03399620       0.86646829      -0.28383243
H       -1.20481306      -1.58672005       0.88389237
H       -1.99032889       1.49433204      -0.48224162
H        0.52810584       1.70297507      -0.55024402
10
Frame=6 idx=007264 GeodesicLength=0.22341866036355013 rxn_smarts="[N:1]#[C:2][c:3]1[n:4][c:5]([H:8])[c:6]([H:9])[n:7]1[H:10]>>[N-:1]=[C:2]=[C:3]1[N:4]([H:8])[C+:5]=[C:6]([H:9])[N:7]1[H:10]"
N        3.16949750      -0.53278351       0.32704846
C        2.02732000      -0.43101014       0.25602946
C        0.62619566      -0.27957948       0.08439966
N       -0.29777294      -1.23468362       0.14402431
C       -1.56814249      -0.66814789      -0.08370209
C       -1.31588387       0.67396821      -0.29531617
N        0.03534169       0.86801857      -0.28595676
H       -1.21473452      -1.59319848       0.88631490
H       -1.99102454       1.49335335      -0.47915873
H        0.52920351       1.70406298      -0.55368303
10
Frame=7 idx=007264 GeodesicLength=0.2606527462284393 rxn_smarts="[N:1]#[C:2][c:3]1[n:4][c:5]([H:8])[c:6]([H:9])[n:7]1[H:10]>>[N-:1]=[C:2]=[C:3]1[N:4]([H:8])[C+:5]=[C:6]([H:9])[N:7]1[H:10]"
N        3.17000757      -0.53301548       0.32189286
C        2.02743412      -0.43002656       0.26081656
C        0.62671733      -0.27722749       0.08753462
N       -0.29683995      -1.23216368       0.14442993
C       -1.56322107      -0.66885397      -0.08682714
C       -1.31463113       0.67397046      -0.29511794
N        0.03670130       0.86962715      -0.28790121
H       -1.22476962      -1.59977028       0.88867611
H       -1.99168545       1.49223590      -0.47656664
H        0.53028690       1.70522393      -0.55693716
10
Frame=8 idx=007264 GeodesicLength=0.2978884795170485 rxn_smarts="[N:1]#[C:2][c:3]1[n:4][c:5]([H:8])[c:6]([H:9])[n:7]1[H:10]>>[N-:1]=[C:2]=[C:3]1[N:4]([H:8])[C+:5]=[C:6]([H:9])[N:7]1[H:10]"
N        3.17054176      -0.53298880       0.31768770
C        2.02757018      -0.42920554       0.26506889
C        0.62727894      -0.27505479       0.08996719
N       -0.29593251      -1.22973155       0.14447551
C       -1.55840282      -0.66941409      -0.08941755
C       -1.31339435       0.67404487      -0.29464946
N        0.03806803       0.87113838      -0.29017945
H       -1.23476183      -1.60637479       0.89110809
H       -1.99231700       1.49118152      -0.47385540
H        0.53134958       1.70640478      -0.56020551
10
Frame=9 idx=007264 GeodesicLength=0.33512417059497984 rxn_smarts="[N:1]#[C:2][c:3]1[n:4][c:5]([H:8])[c:6]([H:9])[n:7]1[H:10]>>[N-:1]=[C:2]=[C:3]1[N:4]([H:8])[C+:5]=[C:6]([H:9])[N:7]1[H:10]"
N        3.17102928      -0.53277436       0.31421692
C        2.02774629      -0.42850434       0.26882953
C        0.62788374      -0.27298599       0.09195300
N       -0.29501153      -1.22736240       0.14422763
C       -1.55364713      -0.66985301      -0.09155837
C       -1.31216185       0.67419244      -0.29388817
N        0.03944579       0.87260046      -0.29264130
H       -1.24476173      -1.61305594       0.89354800
H       -1.99291805       1.49015620      -0.47114191
H        0.53239519       1.70758695      -0.56354532
10
Frame=10 idx=007264 GeodesicLength=0.3723583520711122 rxn_smarts="[N:1]#[C:2][c:3]1[n:4][c:5]([H:8])[c:6]([H:9])[n:7]1[H:10]>>[N-:1]=[C:2]=[C:3]1[N:4]([H:8])[C+:5]=[C:6]([H:9])[N:7]1[H:10]"
N        3.17150129      -0.53243575       0.31106329
C        2.02795379      -0.42784924       0.27237791
C        0.62851985      -0.27095489       0.09375691
N       -0.29405642      -1.22503296       0.14374550
C       -1.54892542      -0.67018542      -0.09334472
C       -1.31092632       0.67441844      -0.29281257
N        0.04082870       0.87407917      -0.29503426
H       -1.25485274      -1.61987113       0.89589862
H       -1.99348373       1.48912192      -0.46859174
H        0.53344099       1.70870986      -0.56705893
10
Frame=11 idx=007264 GeodesicLength=0.4095944996710596 rxn_smarts="[N:1]#[C:2][c:3]1[n:4][c:5]([H:8])[c:6]([H:9])[n:7]1[H:10]>>[N-:1]=[C:2]=[C:3]1[N:4]([H:8])[C+:5]=[C:6]([H:9])[N:7]1[H:10]"
N        3.17196699      -0.53195014       0.30821062
C        2.02818848      -0.42722395       0.27579058
C        0.62918439      -0.26894565       0.09544715
N       -0.29305955      -1.22274056       0.14304447
C       -1.54422579      -0.67043179      -0.09484624
C       -1.30967945       0.67470652      -0.29148746
N        0.04222199       0.87557113      -0.29737752
H       -1.26508048      -1.62682312       0.89812143
H       -1.99401601       1.48811103      -0.46602267
H        0.53449942       1.70972652      -0.57088035
10
Frame=12 idx=007264 GeodesicLength=0.4468377555416576 rxn_smarts="[N:1]#[C:2][c:3]1[n:4][c:5]([H:8])[c:6]([H:9])[n:7]1[H:10]>>[N-:1]=[C:2]=[C:3]1[N:4]([H:8])[C+:5]=[C:6]([H:9])[N:7]1[H:10]"
N        3.17243906      -0.53133250       0.30551437
C        2.02845390      -0.42660975       0.27911554
C        0.62987393      -0.26693410       0.09712659
N       -0.29200747      -1.22047450       0.14222708
C       -1.53952379      -0.67064144      -0.09616421
C       -1.30840591       0.67499319      -0.29013716
N        0.04363347       0.87705681      -0.29971509
H       -1.27552167      -1.63384232       0.90025315
H       -1.99451854       1.48711521      -0.46332738
H        0.53557701       1.71066940      -0.57489289
10
Frame=13 idx=007264 GeodesicLength=0.4840811426447891 rxn_smarts="[N:1]#[C:2][c:3]1[n:4][c:5]([H:8])[c:6]([H:9])[n:7]1[H:10]>>[N-:1]=[C:2]=[C:3]1[N:4]([H:8])[C+:5]=[C:6]([H:9])[N:7]1[H:10]"
N        3.17291011      -0.53057162       0.30302501
C        2.02874244      -0.42597919       0.28242833
C        0.63059108      -0.26493093       0.09874742
N       -0.29089924      -1.21824605       0.14126463
C       -1.53482110      -0.67081356      -0.09731069
C       -1.30710271       0.67526804      -0.28879863
N        0.04506908       0.87850795      -0.30214297
H       -1.28617445      -1.64091775       0.90228989
H       -1.99499166       1.48616401      -0.46033966
H        0.53667645       1.71151910      -0.57916335
10
Frame=14 idx=007264 GeodesicLength=0.5213436394698323 rxn_smarts="[N:1]#[C:2][c:3]1[n:4][c:5]([H:8])[c:6]([H:9])[n:7]1[H:10]>>[N-:1]=[C:2]=[C:3]1[N:4]([H:8])[C+:5]=[C:6]([H:9])[N:7]1[H:10]"
N        3.17340106      -0.52966490       0.30075502
C        2.02906607      -0.42528908       0.28584181
C        0.63133407      -0.26287386       0.10047846
N       -0.28971141      -1.21603607       0.14015024
C       -1.53010488      -0.67097473      -0.09837798
C       -1.30577365       0.67555545      -0.28743295
N        0.04653115       0.88000119      -0.30449359
H       -1.29711173      -1.64815833       0.90406604
H       -1.99545660       1.48531602      -0.45681313
H        0.53782592       1.71212432      -0.58417392
10
Frame=15 idx=007264 GeodesicLength=0.5586171102970411 rxn_smarts="[N:1]#[C:2][c:3]1[n:4][c:5]([H:8])[c:6]([H:9])[n:7]1[H:10]>>[N-:1]=[C:2]=[C:3]1[N:4]([H:8])[C+:5]=[C:6]([H:9])[N:7]1[H:10]"
N        3.17384350      -0.52853929       0.29888269
C        2.02937151      -0.42449883       0.28943144
C        0.63209554      -0.26081166       0.10217708
N       -0.28844570      -1.21385447       0.13883357
C       -1.52531998      -0.67110358      -0.09941694
C       -1.30438390       0.67579530      -0.28621325
N        0.04801670       0.88143850      -0.30698096
H       -1.30831525      -1.65545112       0.90559480
H       -1.99587363       1.48461546      -0.45228842
H        0.53901123       1.71240969      -0.59002001
10
Frame=16 idx=007264 GeodesicLength=0.5958860048175687 rxn_smarts="[N:1]#[C:2][c:3]1[n:4][c:5]([H:8])[c:6]([H:9])[n:7]1[H:10]>>[N-:1]=[C:2]=[C:3]1[N:4]([H:8])[C+:5]=[C:6]([H:9])[N:7]1[H:10]"
N        3.17430678      -0.52727065       0.29733877
C        2.02970893      -0.42368126       0.29300188
C        0.63289456      -0.25875823       0.10376164
N       -0.28711454      -1.21171579       0.13730599
C       -1.52056036      -0.67119809      -0.10024768
C       -1.30297608       0.67604854      -0.28494532
N        0.04952478       0.88287220      -0.30952752
H       -1.31973174      -1.66283883       0.90699401
H       -1.99626867       1.48398573      -0.44739056
H        0.54021634       1.71255638      -0.59629123
