14
Frame=0 idx=007348 GeodesicLength=0.0 rxn_smarts="[O:1]=[C:2]1[C:3]([H:8])([H:9])[N:4]2[C:5]([H:10])([H:11])[C:6]([H:12])([H:13])[C@@:7]12[H:14]>>[O:1]=[C:2]1[C:3]([H:8])([H:9])[N+:4]2([H:12])[C:5]([H:10])([H:11])[C-:6]([H:13])[C@@:7]12[H:14]"
O        1.75786730       1.47559150      -1.76038006
C        1.17151630       0.76791913      -1.01776267
C        1.62780332      -0.14925932       0.19523971
N        0.19858028      -0.08768837       0.58702818
C       -1.20129490      -0.65741912       0.81589990
C       -1.58349914       0.61938490      -0.00631908
C       -0.27210967       0.26940235      -0.76322244
H        1.97561374      -1.13049402      -0.13047533
H        2.30932511       0.28273435       0.92552195
H       -1.48180405      -0.72663729       1.86518517
H       -1.27945189      -1.62594384       0.30826526
H       -0.33411045       0.94568429       0.88052824
H       -2.54278681       0.66317787      -0.52054445
H       -0.34564913      -0.64645243      -1.37896436
14
Frame=1 idx=007348 GeodesicLength=0.06805659048849846 rxn_smarts="[O:1]=[C:2]1[C:3]([H:8])([H:9])[N:4]2[C:5]([H:10])([H:11])[C:6]([H:12])([H:13])[C@@:7]12[H:14]>>[O:1]=[C:2]1[C:3]([H:8])([H:9])[N+:4]2([H:12])[C:5]([H:10])([H:11])[C-:6]([H:13])[C@@:7]12[H:14]"
O        1.75225883       1.48340212      -1.75434672
C        1.17026529       0.76520081      -1.01806157
C        1.62894117      -0.14950432       0.19388279
N        0.19962729      -0.10469342       0.58200388
C       -1.20396972      -0.65775682       0.81619022
C       -1.57657667       0.62189468      -0.00511739
C       -0.27155054       0.26229711      -0.76701340
H        1.98703722      -1.12678235      -0.13227263
H        2.29998127       0.28555154       0.93220970
H       -1.47151284      -0.71921015       1.86963221
H       -1.29755242      -1.62849525       0.31589976
H       -0.33507024       0.95158531       0.88121083
H       -2.53413643       0.66320403      -0.52242160
H       -0.34774220      -0.64669328      -1.39179610
14
Frame=2 idx=007348 GeodesicLength=0.13610052915003895 rxn_smarts="[O:1]=[C:2]1[C:3]([H:8])([H:9])[N:4]2[C:5]([H:10])([H:11])[C:6]([H:12])([H:13])[C@@:7]12[H:14]>>[O:1]=[C:2]1[C:3]([H:8])([H:9])[N+:4]2([H:12])[C:5]([H:10])([H:11])[C-:6]([H:13])[C@@:7]12[H:14]"
O        1.74660807       1.49107076      -1.74822718
C        1.16901389       0.76248854      -1.01831796
C        1.63001071      -0.14974480       0.19259299
N        0.20068685      -0.12212660       0.57669023
C       -1.20652572      -0.65806261       0.81654132
C       -1.56955319       0.62424908      -0.00398463
C       -0.27098841       0.25514687      -0.77088026
H        1.99861454      -1.12285942      -0.13400431
H        2.29031687       0.28824499       0.93901720
H       -1.46090953      -0.71186904       1.87395202
H       -1.31587520      -1.63079861       0.32383466
H       -0.33609322       0.95778647       0.88182454
H       -2.52546870       0.66319356      -0.52417104
H       -0.34983695      -0.64671919      -1.40486758
14
Frame=3 idx=007348 GeodesicLength=0.20409162675168407 rxn_smarts="[O:1]=[C:2]1[C:3]([H:8])([H:9])[N:4]2[C:5]([H:10])([H:11])[C:6]([H:12])([H:13])[C@@:7]12[H:14]>>[O:1]=[C:2]1[C:3]([H:8])([H:9])[N+:4]2([H:12])[C:5]([H:10])([H:11])[C-:6]([H:13])[C@@:7]12[H:14]"
O        1.74093676       1.49856454      -1.74204287
C        1.16776286       0.75979277      -1.01852162
C        1.63099877      -0.14998168       0.19137762
N        0.20175535      -0.13999048       0.57107213
C       -1.20894740      -0.65834019       0.81695193
C       -1.56243406       0.62644363      -0.00291684
C       -0.27042559       0.24796820      -0.77482477
H        2.01032795      -1.11871988      -0.13565882
H        2.28031775       0.29079838       0.94594910
H       -1.44997684      -0.70462880       1.87813956
H       -1.33439460      -1.63284323       0.33207653
H       -0.33719233       0.96430912       0.88237136
H       -2.51679329       0.66312742      -0.52578800
H       -0.35193533      -0.64649981      -1.41818531
14
Frame=4 idx=007348 GeodesicLength=0.2719608241289273 rxn_smarts="[O:1]=[C:2]1[C:3]([H:8])([H:9])[N:4]2[C:5]([H:10])([H:11])[C:6]([H:12])([H:13])[C@@:7]12[H:14]>>[O:1]=[C:2]1[C:3]([H:8])([H:9])[N+:4]2([H:12])[C:5]([H:10])([H:11])[C-:6]([H:13])[C@@:7]12[H:14]"
O        1.73526795       1.50585491      -1.73581569
C        1.16651350       0.75712236      -1.01866474
C        1.63189266      -0.15021706       0.19024367
N        0.20282589      -0.15827701       0.56513583
C       -1.21121940      -0.65859422       0.81741970
C       -1.55522696       0.62847511      -0.00191202
C       -0.26986547       0.24077887      -0.77884949
H        2.02215557      -1.11436353      -0.13722411
H        2.26997396       0.29319258       0.95300905
H       -1.43869969      -0.69750553       1.88218778
H       -1.35307663      -1.63462262       0.34063473
H       -0.33838002       0.97117492       0.88285710
H       -2.50812152       0.66298664      -0.52727021
H       -0.35403985      -0.64600543      -1.43175162
14
Frame=5 idx=007348 GeodesicLength=0.34005939177642924 rxn_smarts="[O:1]=[C:2]1[C:3]([H:8])([H:9])[N:4]2[C:5]([H:10])([H:11])[C:6]([H:12])([H:13])[C@@:7]12[H:14]>>[O:1]=[C:2]1[C:3]([H:8])([H:9])[N+:4]2([H:12])[C:5]([H:10])([H:11])[C-:6]([H:13])[C@@:7]12[H:14]"
O        1.72961240       1.51293772      -1.72952352
C        1.16526188       0.75448359      -1.01872095
C        1.63268100      -0.15046883       0.18919658
N        0.20390692      -0.17711832       0.55881263
C       -1.21331967      -0.65882620       0.81795311
C       -1.54792018       0.63032559      -0.00095899
C       -0.26930472       0.23356989      -0.78295830
H        2.03413316      -1.10977035      -0.13870811
H        2.25923156       0.29542952       0.96022132
H       -1.42703029      -0.69045616       1.88611817
H       -1.37194537      -1.63610757       0.34953149
H       -0.33970547       0.97844634       0.88323909
H       -2.49944878       0.66275790      -0.52859636
H       -0.35615244      -0.64520313      -1.44560615
14
Frame=6 idx=007348 GeodesicLength=0.4079373483080685 rxn_smarts="[O:1]=[C:2]1[C:3]([H:8])([H:9])[N:4]2[C:5]([H:10])([H:11])[C:6]([H:12])([H:13])[C@@:7]12[H:14]>>[O:1]=[C:2]1[C:3]([H:8])([H:9])[N+:4]2([H:12])[C:5]([H:10])([H:11])[C-:6]([H:13])[C@@:7]12[H:14]"
O        1.72399409       1.51981101      -1.72318474
C        1.16401369       0.75187012      -1.01871396
C        1.63334543      -0.15072851       0.18824110
N        0.20498260      -0.19640403       0.55212603
C       -1.21523933      -0.65903422       0.81854680
C       -1.54053279       0.63200361      -0.00006911
C       -0.26875255       0.22636642      -0.78716685
H        2.04620321      -1.10495011      -0.14007612
H        2.24808702       0.29746249       0.96758626
H       -1.41493898      -0.68353714       1.88990991
H       -1.39095375      -1.63729486       0.35878575
H       -0.34113324       0.98610422       0.88353329
H       -2.49079651       0.66241521      -0.52978307
H       -0.35827890      -0.64408422      -1.45973529
14
Frame=7 idx=007348 GeodesicLength=0.47591145619121666 rxn_smarts="[O:1]=[C:2]1[C:3]([H:8])([H:9])[N:4]2[C:5]([H:10])([H:11])[C:6]([H:12])([H:13])[C@@:7]12[H:14]>>[O:1]=[C:2]1[C:3]([H:8])([H:9])[N+:4]2([H:12])[C:5]([H:10])([H:11])[C-:6]([H:13])[C@@:7]12[H:14]"
O        1.71842212       1.52647502      -1.71677618
C        1.16276546       0.74928191      -1.01861833
C        1.63387381      -0.15102083       0.18738305
N        0.20606118      -0.21625204       0.54499152
C       -1.21695035      -0.65922347       0.81920738
C       -1.53305005       0.63349156       0.00076194
C       -0.26820774       0.21916182      -0.79147865
H        2.05839877      -1.09988613      -0.14133157
H        2.23648724       0.29928841       0.97512039
H       -1.40237616      -0.67668876       1.89357796
H       -1.41011497      -1.63817457       0.36842410
H       -0.34272533       0.99420822       0.88372316
H       -2.48215410       0.66194501      -0.53081875
H       -0.36042988      -0.64260615      -1.47416602
14
Frame=8 idx=007348 GeodesicLength=0.5438692117075606 rxn_smarts="[O:1]=[C:2]1[C:3]([H:8])([H:9])[N:4]2[C:5]([H:10])([H:11])[C:6]([H:12])([H:13])[C@@:7]12[H:14]>>[O:1]=[C:2]1[C:3]([H:8])([H:9])[N+:4]2([H:12])[C:5]([H:10])([H:11])[C-:6]([H:13])[C@@:7]12[H:14]"
O        1.71291581       1.53292880      -1.71029395
C        1.16152019       0.74671621      -1.01843803
C        1.63424477      -0.15134997       0.18663053
N        0.20713177      -0.23666467       0.53739127
C       -1.21843267      -0.65939387       0.81993670
C       -1.52548045       0.63478500       0.00153526
C       -0.26767407       0.21196570      -0.79590835
H        2.07069811      -1.09457790      -0.14245613
H        2.22439638       0.30088045       0.98284211
H       -1.38929428      -0.66992836       1.89711944
H       -1.42940173      -1.63872315       0.37847087
H       -0.34448022       1.00278346       0.88378368
H       -2.47353600       0.66132882      -0.53169744
H       -0.36260762      -0.64075054      -1.48891594
14
Frame=9 idx=007348 GeodesicLength=0.6117921175523946 rxn_smarts="[O:1]=[C:2]1[C:3]([H:8])([H:9])[N:4]2[C:5]([H:10])([H:11])[C:6]([H:12])([H:13])[C@@:7]12[H:14]>>[O:1]=[C:2]1[C:3]([H:8])([H:9])[N+:4]2([H:12])[C:5]([H:10])([H:11])[C-:6]([H:13])[C@@:7]12[H:14]"
O        1.70749155       1.53917336      -1.70372341
C        1.16027900       0.74416679      -1.01816794
C        1.63443851      -0.15173018       0.18598791
N        0.20819047      -0.25766124       0.52927581
C       -1.21966210      -0.65954816       0.82073536
C       -1.51782376       0.63587651       0.00224590
C       -0.26715519       0.20478655      -0.80046685
H        2.08309222      -1.08902187      -0.14343045
H        2.21177093       0.30221175       0.99075853
H       -1.37563906      -0.66324372       1.90053020
H       -1.44879575      -1.63893377       0.38895981
H       -0.34641982       1.01186245       0.88370971
H       -2.46494625       0.66054384      -0.53242039
H       -0.36482073      -0.63848231      -1.50399417
14
Frame=10 idx=007348 GeodesicLength=0.6797088121196698 rxn_smarts="[O:1]=[C:2]1[C:3]([H:8])([H:9])[N:4]2[C:5]([H:10])([H:11])[C:6]([H:12])([H:13])[C@@:7]12[H:14]>>[O:1]=[C:2]1[C:3]([H:8])([H:9])[N+:4]2([H:12])[C:5]([H:10])([H:11])[C-:6]([H:13])[C@@:7]12[H:14]"
O        1.70216759       1.54521678      -1.69704231
C        1.15904381       0.74163039      -1.01780426
C        1.63443171      -0.15217561       0.18546409
N        0.20923709      -0.27928905       0.52059661
C       -1.22061080      -0.65968470       0.82161175
C       -1.51008190       0.63675619       0.00289447
C       -0.26665298       0.19762886      -0.80517170
H        2.09557613      -1.08321075      -0.14423749
H        2.19855386       0.30325177       0.99889336
H       -1.36133941      -0.65662652       1.90381921
H       -1.46828849      -1.63877915       0.39992603
H       -0.34856752       1.02148897       0.88346225
H       -2.45639553       0.65956534      -0.53297924
H       -0.36707357      -0.63577251      -1.51943277
14
Frame=11 idx=007348 GeodesicLength=0.7478249100764452 rxn_smarts="[O:1]=[C:2]1[C:3]([H:8])([H:9])[N:4]2[C:5]([H:10])([H:11])[C:6]([H:12])([H:13])[C@@:7]12[H:14]>>[O:1]=[C:2]1[C:3]([H:8])([H:9])[N+:4]2([H:12])[C:5]([H:10])([H:11])[C-:6]([H:13])[C@@:7]12[H:14]"
O        1.69696573       1.55106682      -1.69021392
C        1.15781504       0.73909703      -1.01733526
C        1.63418952      -0.15271540       0.18507503
N        0.21024237      -0.30165774       0.51124623
C       -1.22122155      -0.65979894       0.82256954
C       -1.50224772       0.63740679       0.00347976
C       -0.26617597       0.19049322      -0.81004099
H        2.10816749      -1.07713065      -0.14485679
H        2.18464609       0.30395875       1.00729426
H       -1.34627116      -0.65003284       1.90696510
H       -1.48785856      -1.63822589       0.41143302
H       -0.35097846       1.03174754       0.88300367
H       -2.44788228       0.65835841      -0.53335066
H       -0.36939055      -0.63256710      -1.53526899
14
Frame=12 idx=007348 GeodesicLength=0.8157881587717242 rxn_smarts="[O:1]=[C:2]1[C:3]([H:8])([H:9])[N:4]2[C:5]([H:10])([H:11])[C:6]([H:12])([H:13])[C@@:7]12[H:14]>>[O:1]=[C:2]1[C:3]([H:8])([H:9])[N+:4]2([H:12])[C:5]([H:10])([H:11])[C-:6]([H:13])[C@@:7]12[H:14]"
O        1.69190023       1.55672590      -1.68322760
C        1.15659982       0.73655639      -1.01677162
C        1.63368811      -0.15335376       0.18481575
N        0.21121406      -0.32467362       0.50123327
C       -1.22149026      -0.65990336       0.82360770
C       -1.49433702       0.63783409       0.00398859
C       -0.26572303       0.18340054      -0.81509042
H        2.12080787      -1.07079948      -0.14525563
H        2.17003079       0.30430306       1.01593322
H       -1.33041699      -0.64350054       1.90997330
H       -1.50746046      -1.63728687       0.42351127
H       -0.35362412       1.04263498       0.88233913
H       -2.43943170       0.65690865      -0.53356220
H       -0.37175730      -0.62884597      -1.55149476
14
Frame=13 idx=007348 GeodesicLength=0.883722740013674 rxn_smarts="[O:1]=[C:2]1[C:3]([H:8])([H:9])[N:4]2[C:5]([H:10])([H:11])[C:6]([H:12])([H:13])[C@@:7]12[H:14]>>[O:1]=[C:2]1[C:3]([H:8])([H:9])[N+:4]2([H:12])[C:5]([H:10])([H:11])[C-:6]([H:13])[C@@:7]12[H:14]"
O        1.68699550       1.56222129      -1.67604090
C        1.15539727       0.73400769      -1.01610769
C        1.63289715      -0.15411977       0.18470239
N        0.21214259      -0.34842507       0.49047531
C       -1.22136422      -0.65998257       0.82473467
C       -1.48634295       0.63801364       0.00442018
C       -0.26530210       0.17634969      -0.82034635
H        2.13350059      -1.06420212      -0.14540953
H        2.15462773       0.30422272       1.02486012
H       -1.31365120      -0.63698752       1.91283604
H       -1.52708511      -1.63590614       0.43622544
H       -0.35657939       1.05420867       0.88140238
H       -2.43103716       0.65516514      -0.53358993
H       -0.37419871      -0.62456565      -1.56816212
14
Frame=14 idx=007348 GeodesicLength=0.9516538300901827 rxn_smarts="[O:1]=[C:2]1[C:3]([H:8])([H:9])[N:4]2[C:5]([H:10])([H:11])[C:6]([H:12])([H:13])[C@@:7]12[H:14]>>[O:1]=[C:2]1[C:3]([H:8])([H:9])[N+:4]2([H:12])[C:5]([H:10])([H:11])[C-:6]([H:13])[C@@:7]12[H:14]"
O        1.68226750       1.56756663      -1.66859654
C        1.15421223       0.73143457      -1.01533877
C        1.63177366      -0.15504284       0.18474683
N        0.21301267      -0.37295802       0.47887967
C       -1.22079234      -0.66004009       0.82595715
C       -1.47827086       0.63793661       0.00476269
C       -0.26491870       0.16934921      -0.82583598
H        2.14623692      -1.05733841      -0.14527969
H        2.13833561       0.30366634       1.03410461
H       -1.29584386      -0.63048009       1.91554108
H       -1.54670541      -1.63406256       0.44965672
H       -0.35986074       1.06654704       0.88014374
H       -2.42272163       0.65309202      -0.53343245
H       -0.37672505      -0.61967042      -1.58530906
14
Frame=15 idx=007348 GeodesicLength=1.0195956944229285 rxn_smarts="[O:1]=[C:2]1[C:3]([H:8])([H:9])[N:4]2[C:5]([H:10])([H:11])[C:6]([H:12])([H:13])[C@@:7]12[H:14]>>[O:1]=[C:2]1[C:3]([H:8])([H:9])[N+:4]2([H:12])[C:5]([H:10])([H:11])[C-:6]([H:13])[C@@:7]12[H:14]"
O        1.67775549       1.57275310      -1.66085456
C        1.15305211       0.72883414      -1.01444185
C        1.63027210      -0.15615607       0.18495176
N        0.21380430      -0.39829837       0.46636422
C       -1.21971746      -0.66007657       0.82727000
C       -1.47012348       0.63758506       0.00500993
C       -0.26457633       0.16242132      -0.83156852
H        2.15896839      -1.05021934      -0.14483032
H        2.12107964       0.30257045       1.04365242
H       -1.27690122      -0.62394047       1.91805039
H       -1.56623570      -1.63174405       0.46387638
H       -0.36354314       1.07972644       0.87853902
H       -2.41449323       0.65063156      -0.53308004
H       -0.37934147      -0.61408721      -1.60293884
14
Frame=16 idx=007348 GeodesicLength=1.0875743043529305 rxn_smarts="[O:1]=[C:2]1[C:3]([H:8])([H:9])[N:4]2[C:5]([H:10])([H:11])[C:6]([H:12])([H:13])[C@@:7]12[H:14]>>[O:1]=[C:2]1[C:3]([H:8])([H:9])[N+:4]2([H:12])[C:5]([H:10])([H:11])[C-:6]([H:13])[C@@:7]12[H:14]"
O        1.67347814       1.57780995      -1.65276296
C        1.15191777       0.72620302      -1.01341294
C        1.62834387      -0.15749967       0.18533679
N        0.21450522      -0.42448867       0.45284613
C       -1.21807607      -0.66008559       0.82868728
C       -1.46191034       0.63694961       0.00515073
C       -0.26428093       0.15557785      -0.83758269
H        2.17166526      -1.04285873      -0.14402251
H        2.10276004       0.30085225       1.05355169
H       -1.25667369      -0.61735509       1.92036061
H       -1.58562072      -1.62891147       0.47897642
H       -0.36768625       1.09383238       0.87651297
H       -2.40637149       0.64773822      -0.53253028
H       -0.38205081      -0.60776406      -1.62111124
