14
Frame=0 idx=011116 GeodesicLength=0.0 rxn_smarts="[C:1]1([H:8])([H:9])[C@:2]2([H:10])[C@@:3]3([H:11])[C@:4]2([H:12])[N:5]2[C@:6]1([H:13])[C@@:7]32[H:14]>>[C:1]1([H:8])([H:9])[C@:2]2([H:10])[C@@:3]3([H:11])[C@:4]2([H:12])[N:5]3[C@@:6]1([C:7][H:14])[H:13]"
C        1.15555115      -0.24159935      -0.65408321
C       -0.03779567      -1.13743050      -0.37108604
C       -1.24216963      -0.31647574       0.01339127
C       -0.45033813      -0.92324224       1.04153504
N       -0.36912615       0.52643573       1.03579167
C        0.66840597       0.99884157       0.09216196
C       -0.48267903       1.60733535      -0.65002223
H        1.29696375      -0.03022470      -1.71341350
H        2.07078075      -0.66925329      -0.23934746
H       -0.18738140      -2.09655164      -0.85112026
H       -2.29591605      -0.27831143      -0.18871207
H       -0.67655110      -1.49855713       1.92207079
H        1.40764718       1.63194920       0.57735775
H       -0.85739160       2.42708420      -0.01452367
14
Frame=1 idx=011116 GeodesicLength=0.045066317136289745 rxn_smarts="[C:1]1([H:8])([H:9])[C@:2]2([H:10])[C@@:3]3([H:11])[C@:4]2([H:12])[N:5]2[C@:6]1([H:13])[C@@:7]32[H:14]>>[C:1]1([H:8])([H:9])[C@:2]2([H:10])[C@@:3]3([H:11])[C@:4]2([H:12])[N:5]3[C@@:6]1([C:7][H:14])[H:13]"
C        1.15466178      -0.24219762      -0.65586267
C       -0.03766881      -1.13767380      -0.37016520
C       -1.24410440      -0.31640725       0.00708993
C       -0.45302307      -0.91752150       1.04120363
N       -0.36859108       0.53266576       1.03836047
C        0.67185178       0.99769885       0.09252511
C       -0.48921492       1.60353788      -0.63270555
H        1.29179185      -0.03130404      -1.71598551
H        2.07217401      -0.66852049      -0.24492464
H       -0.18355261      -2.10051925      -0.84384147
H       -2.29768926      -0.29455499      -0.19983627
H       -0.67861572      -1.49540691       1.92031411
H        1.41214041       1.62937788       0.57758207
H       -0.85015995       2.44082548      -0.01375399
14
Frame=2 idx=011116 GeodesicLength=0.09009458525132137 rxn_smarts="[C:1]1([H:8])([H:9])[C@:2]2([H:10])[C@@:3]3([H:11])[C@:4]2([H:12])[N:5]2[C@:6]1([H:13])[C@@:7]32[H:14]>>[C:1]1([H:8])([H:9])[C@:2]2([H:10])[C@@:3]3([H:11])[C@:4]2([H:12])[N:5]3[C@@:6]1([C:7][H:14])[H:13]"
C        1.15372878      -0.24274827      -0.65759649
C       -0.03761223      -1.13785038      -0.36925830
C       -1.24604775      -0.31628821       0.00090293
C       -0.45573378      -0.91188324       1.04086856
N       -0.36785747       0.53879321       1.04121616
C        0.67521524       0.99656913       0.09295983
C       -0.49558191       1.59977321      -0.61523768
H        1.28659987      -0.03229583      -1.71848410
H        2.07350794      -0.66776609      -0.25049937
H       -0.17986212      -2.10429870      -0.83666377
H       -2.29920277      -0.31055393      -0.21084396
H       -0.68063755      -1.49244308       1.91849661
H        1.41659081       1.62681822       0.57782398
H       -0.84310705       2.45417397      -0.01368440
14
Frame=3 idx=011116 GeodesicLength=0.13508456026829435 rxn_smarts="[C:1]1([H:8])([H:9])[C@:2]2([H:10])[C@@:3]3([H:11])[C@:4]2([H:12])[N:5]2[C@:6]1([H:13])[C@@:7]32[H:14]>>[C:1]1([H:8])([H:9])[C@:2]2([H:10])[C@@:3]3([H:11])[C@:4]2([H:12])[N:5]3[C@@:6]1([C:7][H:14])[H:13]"
C        1.15275626      -0.24325050      -0.65927977
C       -0.03762620      -1.13795522      -0.36836735
C       -1.24799929      -0.31611414      -0.00517181
C       -0.45846963      -0.90632427       1.04052546
N       -0.36691878       0.54481434       1.04435842
C        0.67850022       0.99544940       0.09346468
C       -0.50178002       1.59602929      -0.59761747
H        1.28139910      -0.03319840      -1.72089928
H        2.07478285      -0.66698741      -0.25606165
H       -0.17631550      -2.10788004      -0.82959809
H       -2.30046920      -0.32628996      -0.22171881
H       -0.68261452      -1.48966093       1.91660942
H        1.42100024       1.62427048       0.57807526
H       -0.83624552       2.46709737      -0.01431901
14
Frame=4 idx=011116 GeodesicLength=0.18004131026818915 rxn_smarts="[C:1]1([H:8])([H:9])[C@:2]2([H:10])[C@@:3]3([H:11])[C@:4]2([H:12])[N:5]2[C@:6]1([H:13])[C@@:7]32[H:14]>>[C:1]1([H:8])([H:9])[C@:2]2([H:10])[C@@:3]3([H:11])[C@:4]2([H:12])[N:5]3[C@@:6]1([C:7][H:14])[H:13]"
C        1.15174448      -0.24370505      -0.66091642
C       -0.03770835      -1.13799343      -0.36749270
C       -1.24995711      -0.31588108      -0.01113718
C       -0.46123235      -0.90084770       1.04018048
N       -0.36577156       0.55072629       1.04779814
C        0.68171175       0.99434163       0.09404795
C       -0.50780781       1.59231223      -0.57983468
H        1.27618272      -0.03400696      -1.72324017
H        2.07600099      -0.66619048      -0.26162179
H       -0.17290556      -2.11127811      -0.82264241
H       -2.30149281      -0.34175867      -0.23247309
H       -0.68455179      -1.48706533       1.91466061
H        1.42537601       1.62173730       0.57834469
H       -0.82958861       2.47960937      -0.01567343
14
Frame=5 idx=011116 GeodesicLength=0.2249623842214925 rxn_smarts="[C:1]1([H:8])([H:9])[C@:2]2([H:10])[C@@:3]3([H:11])[C@:4]2([H:12])[N:5]2[C@:6]1([H:13])[C@@:7]32[H:14]>>[C:1]1([H:8])([H:9])[C@:2]2([H:10])[C@@:3]3([H:11])[C@:4]2([H:12])[N:5]3[C@@:6]1([C:7][H:14])[H:13]"
C        1.15069831      -0.24411340      -0.66250189
C       -0.03785846      -1.13796211      -0.36663759
C       -1.25191958      -0.31558356      -0.01699559
C       -0.46401914      -0.89545227       1.03983134
N       -0.36440651       0.55652483       1.05153723
C        0.68485533       0.99324424       0.09471004
C       -0.51366347       1.58861401      -0.56188820
H        1.27096240      -0.03472207      -1.72549986
H        2.07716348      -0.66537723      -0.26716794
H       -0.16963946      -2.11448584      -0.81581187
H       -2.30228517      -0.35693673      -0.24308992
H       -0.68644647      -1.48465521       1.91264404
H        1.42972162       1.61922118       0.57862789
H       -0.82316288       2.49168415      -0.01775768
14
Frame=6 idx=011116 GeodesicLength=0.2698462273261317 rxn_smarts="[C:1]1([H:8])([H:9])[C@:2]2([H:10])[C@@:3]3([H:11])[C@:4]2([H:12])[N:5]2[C@:6]1([H:13])[C@@:7]32[H:14]>>[C:1]1([H:8])([H:9])[C@:2]2([H:10])[C@@:3]3([H:11])[C@:4]2([H:12])[N:5]3[C@@:6]1([C:7][H:14])[H:13]"
C        1.14962197      -0.24447511      -0.66403447
C       -0.03807572      -1.13786056      -0.36580567
C       -1.25388719      -0.31521791      -0.02275111
C       -0.46682973      -0.89013649       1.03947719
N       -0.36281879       0.56220944       1.05557809
C        0.68793267       0.99215878       0.09544991
C       -0.51935109       1.58493270      -0.54377632
H        1.26574935      -0.03534190      -1.72767608
H        2.07827199      -0.66454621      -0.27269081
H       -0.16651968      -2.11750383      -0.80911764
H       -2.30286404      -0.37181210      -0.25355584
H       -0.68829943      -1.48242972       1.91055714
H        1.43403649       1.61672916       0.57892051
H       -0.81696680       2.50329375      -0.02057490
14
Frame=7 idx=011116 GeodesicLength=0.31469411032693534 rxn_smarts="[C:1]1([H:8])([H:9])[C@:2]2([H:10])[C@@:3]3([H:11])[C@:4]2([H:12])[N:5]2[C@:6]1([H:13])[C@@:7]32[H:14]>>[C:1]1([H:8])([H:9])[C@:2]2([H:10])[C@@:3]3([H:11])[C@:4]2([H:12])[N:5]3[C@@:6]1([C:7][H:14])[H:13]"
C        1.14851693      -0.24478956      -0.66551547
C       -0.03835798      -1.13768659      -0.36499554
C       -1.25585327      -0.31477639      -0.02840436
C       -0.46966445      -0.88490054       1.03911999
N       -0.36099884       0.56777057       1.05992741
C        0.69095503       0.99108205       0.09627575
C       -0.52485747       1.58126410      -0.52548465
H        1.26053710      -0.03586018      -1.72977059
H        2.07932804      -0.66370106      -0.27820200
H       -0.16354377      -2.12033274      -0.80255460
H       -2.30322616      -0.38636573      -0.26387126
H       -0.69012172      -1.48038986       1.90839694
H        1.43833339       1.61425306       0.57923090
H       -0.81104684       2.51443286      -0.02415253
14
Frame=8 idx=011116 GeodesicLength=0.35950754628886855 rxn_smarts="[C:1]1([H:8])([H:9])[C@:2]2([H:10])[C@@:3]3([H:11])[C@:4]2([H:12])[N:5]2[C@:6]1([H:13])[C@@:7]32[H:14]>>[C:1]1([H:8])([H:9])[C@:2]2([H:10])[C@@:3]3([H:11])[C@:4]2([H:12])[N:5]3[C@@:6]1([C:7][H:14])[H:13]"
C        1.14738464      -0.24505583      -0.66694280
C       -0.03870478      -1.13743965      -0.36421019
C       -1.25781958      -0.31425570      -0.03396024
C       -0.47252127      -0.87974142       1.03875942
N       -0.35894114       0.57320927       1.06458728
C        0.69392092       0.99001522       0.09718836
C       -0.53019290       1.57760934      -0.50700862
H        1.25533084      -0.03627356      -1.73178094
H        2.08033265      -0.66283981      -0.28369265
H       -0.16071178      -2.12297438      -0.79613292
H       -2.30339250      -0.40059283      -0.27403363
H       -0.69190993      -1.47853056       1.90616322
H        1.44260990       1.61179956       0.57955613
H       -0.80538507       2.52507034      -0.02849241
14
Frame=9 idx=011116 GeodesicLength=0.4042936743211134 rxn_smarts="[C:1]1([H:8])([H:9])[C@:2]2([H:10])[C@@:3]3([H:11])[C@:4]2([H:12])[N:5]2[C@:6]1([H:13])[C@@:7]32[H:14]>>[C:1]1([H:8])([H:9])[C@:2]2([H:10])[C@@:3]3([H:11])[C@:4]2([H:12])[N:5]3[C@@:6]1([C:7][H:14])[H:13]"
C        1.14622865      -0.24527385      -0.66831695
C       -0.03911547      -1.13711804      -0.36344781
C       -1.25978273      -0.31364670      -0.03941670
C       -0.47540110      -0.87465795       1.03839878
N       -0.35663507       0.57852030       1.06956669
C        0.69684297       0.98895726       0.09819434
C       -0.53534536       1.57396669      -0.48833103
H        1.25012921      -0.03657877      -1.73370735
H        2.08128877      -0.66196897      -0.28917091
H       -0.15802753      -2.12542873      -0.78985461
H       -2.30336378      -0.41447982      -0.28405292
H       -0.69367210      -1.47684986       1.90385536
H        1.44688187       1.60936795       0.57989700
H       -0.80002835       2.53519049      -0.03361390
14
Frame=10 idx=011116 GeodesicLength=0.4490441649612918 rxn_smarts="[C:1]1([H:8])([H:9])[C@:2]2([H:10])[C@@:3]3([H:11])[C@:4]2([H:12])[N:5]2[C@:6]1([H:13])[C@@:7]32[H:14]>>[C:1]1([H:8])([H:9])[C@:2]2([H:10])[C@@:3]3([H:11])[C@:4]2([H:12])[N:5]3[C@@:6]1([C:7][H:14])[H:13]"
C        1.14505025      -0.24544208      -0.66963666
C       -0.03958974      -1.13671964      -0.36271156
C       -1.26174248      -0.31294466      -0.04477919
C       -0.47830382      -0.86964693       1.03803685
N       -0.35407717       0.58370023       1.07486600
C        0.69972016       0.98791004       0.09929358
C       -0.54032016       1.57033528      -0.46944819
H        1.24493865      -0.03677082      -1.73554821
H        2.08219593      -0.66108513      -0.29462938
H       -0.15548927      -2.12769580      -0.78372654
H       -2.30315348      -0.42801983      -0.29391820
H       -0.69541112      -1.47534316       1.90147147
H        1.45114884       1.60696090       0.58025016
H       -0.79496660       2.54476159      -0.03952014
14
Frame=11 idx=011116 GeodesicLength=0.4937677901997708 rxn_smarts="[C:1]1([H:8])([H:9])[C@:2]2([H:10])[C@@:3]3([H:11])[C@:4]2([H:12])[N:5]2[C@:6]1([H:13])[C@@:7]32[H:14]>>[C:1]1([H:8])([H:9])[C@:2]2([H:10])[C@@:3]3([H:11])[C@:4]2([H:12])[N:5]3[C@@:6]1([C:7][H:14])[H:13]"
C        1.14385018      -0.24555772      -0.67090343
C       -0.04012696      -1.13624243      -0.36200065
C       -1.26369625      -0.31214128      -0.05004540
C       -0.48122887      -0.86470829       1.03767761
N       -0.35125761       0.58874403       1.08049586
C        0.70256087       0.98687196       0.10049628
C       -0.54511081       1.56671781      -0.45033856
H        1.23975328      -0.03684103      -1.73730584
H        2.08305600      -0.66018849      -0.30007584
H       -0.15309923      -2.12977755      -0.77774741
H       -2.30276860      -0.44120019      -0.30363763
H       -0.69712980      -1.47401623       1.89900987
H        1.45541985       1.60457570       0.58062529
H       -0.79022205       2.55376371      -0.04625014
14
Frame=12 idx=011116 GeodesicLength=0.5384716467184129 rxn_smarts="[C:1]1([H:8])([H:9])[C@:2]2([H:10])[C@@:3]3([H:11])[C@:4]2([H:12])[N:5]2[C@:6]1([H:13])[C@@:7]32[H:14]>>[C:1]1([H:8])([H:9])[C@:2]2([H:10])[C@@:3]3([H:11])[C@:4]2([H:12])[N:5]3[C@@:6]1([C:7][H:14])[H:13]"
C        1.14262791      -0.24561731      -0.67211719
C       -0.04072626      -1.13568319      -0.36131330
C       -1.26564061      -0.31122808      -0.05521583
C       -0.48417515      -0.85983807       1.03732324
N       -0.34816525       0.59364623       1.08646333
C        0.70537226       0.98584259       0.10181031
C       -0.54971227       1.56311196      -0.43098408
H        1.23456401      -0.03678048      -1.73897904
H        2.08386971      -0.65927715      -0.30551753
H       -0.15085688      -2.13167340      -0.77191593
H       -2.30221262      -0.45401297      -0.31321807
H       -0.69883890      -1.47286481       1.89646581
H        1.45970690       1.60220843       0.58102696
H       -0.78581284       2.56216627      -0.05382868
14
Frame=13 idx=011116 GeodesicLength=0.5831532526591984 rxn_smarts="[C:1]1([H:8])([H:9])[C@:2]2([H:10])[C@@:3]3([H:11])[C@:4]2([H:12])[N:5]2[C@:6]1([H:13])[C@@:7]32[H:14]>>[C:1]1([H:8])([H:9])[C@:2]2([H:10])[C@@:3]3([H:11])[C@:4]2([H:12])[N:5]3[C@@:6]1([C:7][H:14])[H:13]"
C        1.14138905      -0.24562059      -0.67327676
C       -0.04138757      -1.13503758      -0.36065130
C       -1.26757340      -0.31019437      -0.06029101
C       -0.48714168      -0.85503186       1.03697446
N       -0.34479060       0.59840418       1.09277334
C        0.70816274       0.98482210       0.10323811
C       -0.55411758       1.55951831      -0.41137397
H        1.22938136      -0.03658577      -1.74056577
H        2.08464026      -0.65835550      -0.31095170
H       -0.14876847      -2.13337851      -0.76624299
H       -2.30149588      -0.46643100      -0.32265509
H       -0.70054037      -1.47188439       1.89383910
H        1.46401762       1.59985990       0.58145437
H       -0.78177548       2.56991508      -0.06227079
14
Frame=14 idx=011116 GeodesicLength=0.6278006143260245 rxn_smarts="[C:1]1([H:8])([H:9])[C@:2]2([H:10])[C@@:3]3([H:11])[C@:4]2([H:12])[N:5]2[C@:6]1([H:13])[C@@:7]32[H:14]>>[C:1]1([H:8])([H:9])[C@:2]2([H:10])[C@@:3]3([H:11])[C@:4]2([H:12])[N:5]3[C@@:6]1([C:7][H:14])[H:13]"
C        1.14013061      -0.24556158      -0.67437858
C       -0.04211115      -1.13429942      -0.36001768
C       -1.26949467      -0.30903659      -0.06527456
C       -0.49012600      -0.85028847       1.03662915
N       -0.34112891       0.60300801       1.09942366
C        0.71092700       0.98380956       0.10478494
C       -0.55833390       1.55593470      -0.39149922
H        1.22420422      -0.03624492      -1.74206029
H        2.08536252      -0.65741622      -0.31636996
H       -0.14683498      -2.13488451      -0.76073710
H       -2.30063634      -0.47845001      -0.33193122
H       -0.70222491      -1.47107306       1.89112216
H        1.46834072       1.59753268       0.58191815
H       -0.77807420       2.57696986      -0.07160944
14
Frame=15 idx=011116 GeodesicLength=0.6724253814781282 rxn_smarts="[C:1]1([H:8])([H:9])[C@:2]2([H:10])[C@@:3]3([H:11])[C@:4]2([H:12])[N:5]2[C@:6]1([H:13])[C@@:7]32[H:14]>>[C:1]1([H:8])([H:9])[C@:2]2([H:10])[C@@:3]3([H:11])[C@:4]2([H:12])[N:5]3[C@@:6]1([C:7][H:14])[H:13]"
C        1.13885991      -0.24544032      -0.67542591
C       -0.04289782      -1.13346678      -0.35941300
C       -1.27140046      -0.30773847      -0.07016132
C       -0.49312887      -0.84560483       1.03629404
N       -0.33716507       0.60745655       1.10643143
C        0.71368362       0.98280847       0.10645958
C       -0.56234245       1.55236912      -0.37133411
H        1.21903716      -0.03575034      -1.74346789
H        2.08604348      -0.65646858      -0.32178370
H       -0.14506450      -2.13619543      -0.75540339
H       -2.29963531      -0.49004308      -0.34105925
H       -0.70390871      -1.47043258       1.88831955
H        1.47270154       1.59522542       0.58242234
H       -0.77478254       2.58328086      -0.08187838
14
Frame=16 idx=011116 GeodesicLength=0.7170325124329229 rxn_smarts="[C:1]1([H:8])([H:9])[C@:2]2([H:10])[C@@:3]3([H:11])[C@:4]2([H:12])[N:5]2[C@:6]1([H:13])[C@@:7]32[H:14]>>[C:1]1([H:8])([H:9])[C@:2]2([H:10])[C@@:3]3([H:11])[C@:4]2([H:12])[N:5]3[C@@:6]1([C:7][H:14])[H:13]"
C        1.13757246      -0.24524956      -0.67641711
C       -0.04374913      -1.13253144      -0.35883630
C       -1.27328806      -0.30628747      -0.07494820
C       -0.49614916      -0.84097873       1.03597080
N       -0.33288719       0.61173912       1.11380624
C        0.71643570       0.98181662       0.10827491
C       -0.56613998       1.54882368      -0.35084957
H        1.21386778      -0.03508437      -1.74478361
H        2.08668015      -0.65550659      -0.32720084
H       -0.14345849      -2.13730480      -0.75023894
H       -2.29849738      -0.50119928      -0.35004670
H       -0.70559208      -1.46996441       1.88542412
H        1.47710578       1.59293227       0.58297763
H       -0.77190041       2.58879496      -0.09313243
