13
Frame=0 idx=008565 GeodesicLength=0.0 rxn_smarts="[N:1](=[C:2](/[O:3][C:4]([C:5]([C:6]#[N:7])([H:12])[H:13])([H:10])[H:11])[H:9])\[H:8]>>[N:1](=[C:2](/[O:3][C:4]([C:5]([N+:7]#[C-:6])([H:12])[H:13])([H:10])[H:11])[H:9])\[H:8]"
N       -1.76006652       1.00999759      -0.14321557
C       -1.84289269      -0.11839356       0.40739741
O       -0.87396399      -1.03884860       0.35198891
C        0.25961882      -0.73894826      -0.46218408
C        1.16778553       0.25578903       0.23163369
C        2.51325374       0.41071441      -0.89527965
N        2.97251122      -0.05732981       0.09230196
H       -2.60357640       1.55019156       0.00603763
H       -2.68079973      -0.50403874       0.98999316
H       -0.06503813      -0.35295046      -1.42844901
H        0.77340634      -1.68888590      -0.59335134
H        0.83587912       1.28553956       0.16565014
H        1.30388272      -0.01283680       1.27747679
13
Frame=1 idx=008565 GeodesicLength=0.03102454034706639 rxn_smarts="[N:1](=[C:2](/[O:3][C:4]([C:5]([C:6]#[N:7])([H:12])[H:13])([H:10])[H:11])[H:9])\[H:8]>>[N:1](=[C:2](/[O:3][C:4]([C:5]([N+:7]#[C-:6])([H:12])[H:13])([H:10])[H:11])[H:9])\[H:8]"
N       -1.76239036       1.00896681      -0.15106951
C       -1.84411907      -0.11605874       0.40654261
O       -0.87596883      -1.03753904       0.35425038
C        0.25897899      -0.74104220      -0.45881781
C        1.17157237       0.25106820       0.23472737
C        2.51805932       0.41952762      -0.90202539
N        2.97980722      -0.04818837       0.08134552
H       -2.60316273       1.55245157       0.00180136
H       -2.68294415      -0.49956472       0.98924527
H       -0.06547258      -0.35467020      -1.42506170
H        0.77013647      -1.69237500      -0.59052547
H        0.82979327       1.27874120       0.17934907
H        1.30571010      -0.02131712       1.28023830
13
Frame=2 idx=008565 GeodesicLength=0.06207590292416733 rxn_smarts="[N:1](=[C:2](/[O:3][C:4]([C:5]([C:6]#[N:7])([H:12])[H:13])([H:10])[H:11])[H:9])\[H:8]>>[N:1](=[C:2](/[O:3][C:4]([C:5]([N+:7]#[C-:6])([H:12])[H:13])([H:10])[H:11])[H:9])\[H:8]"
N       -1.76358965       1.00957104      -0.15547346
C       -1.84459701      -0.11260336       0.40795454
O       -0.87778212      -1.03560299       0.35727982
C        0.25810638      -0.74241950      -0.45523119
C        1.17618518       0.24593771       0.23823725
C        2.52282282       0.42851982      -0.90924433
N        2.98749039      -0.04001335       0.06915745
H       -2.60667292       1.55136952      -0.00951148
H       -2.68535785      -0.49514626       0.98851363
H       -0.06662520      -0.35461621      -1.42086719
H        0.76599816      -1.69530724      -0.58869144
H        0.82510320       1.27158724       0.19482369
H        1.30891861      -0.03127642       1.28305270
13
Frame=3 idx=008565 GeodesicLength=0.09304911249377618 rxn_smarts="[N:1](=[C:2](/[O:3][C:4]([C:5]([C:6]#[N:7])([H:12])[H:13])([H:10])[H:11])[H:9])\[H:8]>>[N:1](=[C:2](/[O:3][C:4]([C:5]([N+:7]#[C-:6])([H:12])[H:13])([H:10])[H:11])[H:9])\[H:8]"
N       -1.76527947       1.00908064      -0.16206355
C       -1.84556720      -0.10990486       0.40777263
O       -0.87972264      -1.03410125       0.35992256
C        0.25739427      -0.74442839      -0.45168754
C        1.18023644       0.24107310       0.24135887
C        2.52744385       0.43763417      -0.91632807
N        2.99463809      -0.03075588       0.05773934
H       -2.60701491       1.55284688      -0.01560009
H       -2.68787839      -0.49085188       0.98714950
H       -0.06728255      -0.35605096      -1.41717229
H        0.76243534      -1.69877581      -0.58590114
H        0.81954981       1.26434805       0.20905118
H        1.31104736      -0.04011382       1.28575859
13
Frame=4 idx=008565 GeodesicLength=0.12399950165123097 rxn_smarts="[N:1](=[C:2](/[O:3][C:4]([C:5]([C:6]#[N:7])([H:12])[H:13])([H:10])[H:11])[H:9])\[H:8]>>[N:1](=[C:2](/[O:3][C:4]([C:5]([N+:7]#[C-:6])([H:12])[H:13])([H:10])[H:11])[H:9])\[H:8]"
N       -1.76676026       1.00865619      -0.16842621
C       -1.84646623      -0.10711158       0.40777201
O       -0.88162092      -1.03253347       0.36284259
C        0.25667735      -0.74651856      -0.44797172
C        1.18435012       0.23621980       0.24442098
C        2.53191464       0.44687566      -0.92365592
N        3.00166215      -0.02124017       0.04612084
H       -2.60703324       1.55454612      -0.02139521
H       -2.69092257      -0.48694060       0.98477607
H       -0.06799858      -0.35769355      -1.41333975
H        0.75883115      -1.70235087      -0.58282127
H        0.81411888       1.25693697       0.22325702
H        1.31324753      -0.04884593       1.28842057
13
Frame=5 idx=008565 GeodesicLength=0.15497066744966037 rxn_smarts="[N:1](=[C:2](/[O:3][C:4]([C:5]([C:6]#[N:7])([H:12])[H:13])([H:10])[H:11])[H:9])\[H:8]>>[N:1](=[C:2](/[O:3][C:4]([C:5]([N+:7]#[C-:6])([H:12])[H:13])([H:10])[H:11])[H:9])\[H:8]"
N       -1.76746249       1.00934133      -0.17264571
C       -1.84695534      -0.10364869       0.40893725
O       -0.88348443      -1.03063405       0.36595436
C        0.25580862      -0.74814446      -0.44426489
C        1.18894675       0.23097908       0.24780948
C        2.53631876       0.45646456      -0.93110681
N        3.00881964      -0.01228008       0.03383423
H       -2.60986220       1.55374655      -0.03237256
H       -2.69349541      -0.48245092       0.98357655
H       -0.06906862      -0.35805232      -1.40911664
H        0.75465261      -1.70554693      -0.58061015
H        0.80958366       1.24909506       0.23888971
H        1.31619845      -0.05886913       1.29111517
13
Frame=6 idx=008565 GeodesicLength=0.1858758061585033 rxn_smarts="[N:1](=[C:2](/[O:3][C:4]([C:5]([C:6]#[N:7])([H:12])[H:13])([H:10])[H:11])[H:9])\[H:8]>>[N:1](=[C:2](/[O:3][C:4]([C:5]([N+:7]#[C-:6])([H:12])[H:13])([H:10])[H:11])[H:9])\[H:8]"
N       -1.76886944       1.00848843      -0.17983937
C       -1.84808803      -0.10119897       0.40806475
O       -0.88549841      -1.02929879       0.36867065
C        0.25515491      -0.75063105      -0.44052782
C        1.19281089       0.22612597       0.25072036
C        2.54045770       0.46620355      -0.93849363
N        3.01532393      -0.00187411       0.02241876
H       -2.60830966       1.55660869      -0.03625286
H       -2.69643378      -0.47832075       0.98116276
H       -0.06951330      -0.36048398      -1.40549027
H        0.75126531      -1.70948477      -0.57699905
H        0.80384070       1.24123421       0.25286306
H        1.31785917      -0.06736844       1.29370267
13
Frame=7 idx=008565 GeodesicLength=0.2167621139244664 rxn_smarts="[N:1](=[C:2](/[O:3][C:4]([C:5]([C:6]#[N:7])([H:12])[H:13])([H:10])[H:11])[H:9])\[H:8]>>[N:1](=[C:2](/[O:3][C:4]([C:5]([N+:7]#[C-:6])([H:12])[H:13])([H:10])[H:11])[H:9])\[H:8]"
N       -1.77018832       1.00752367      -0.18727233
C       -1.84933128      -0.09891586       0.40674262
O       -0.88760974      -1.02811010       0.37111895
C        0.25451186      -0.75324635      -0.43688369
C        1.19656355       0.22119026       0.25363910
C        2.54443297       0.47629353      -0.94580377
N        3.02156496       0.00888306       0.01112637
H       -2.60640374       1.55962909      -0.04011394
H       -2.69890394      -0.47369037       0.97957650
H       -0.06981991      -0.36306023      -1.40200808
H        0.74793319      -1.71353241      -0.57338935
H        0.79798660       1.23307968       0.26698612
H        1.31926381      -0.07604397       1.29628151
13
Frame=8 idx=008565 GeodesicLength=0.24764972497186752 rxn_smarts="[N:1](=[C:2](/[O:3][C:4]([C:5]([C:6]#[N:7])([H:12])[H:13])([H:10])[H:11])[H:9])\[H:8]>>[N:1](=[C:2](/[O:3][C:4]([C:5]([N+:7]#[C-:6])([H:12])[H:13])([H:10])[H:11])[H:9])\[H:8]"
N       -1.77128102       1.00665667      -0.19454329
C       -1.85057097      -0.09661317       0.40533260
O       -0.88976977      -1.02694292       0.37352677
C        0.25385547      -0.75591909      -0.43322479
C        1.20033447       0.21613864       0.25661063
C        2.54819977       0.48674140      -0.95317467
N        3.02761977       0.01990218      -0.00029018
H       -2.60453090       1.56250862      -0.04456384
H       -2.70120078      -0.46876512       0.97831950
H       -0.07009641      -0.36564675      -1.39850771
H        0.74454827      -1.71764589      -0.56977613
H        0.79220691       1.22461096       0.28144162
H        1.32068519      -0.08502553       1.29884949
13
Frame=9 idx=008565 GeodesicLength=0.278539978293628 rxn_smarts="[N:1](=[C:2](/[O:3][C:4]([C:5]([C:6]#[N:7])([H:12])[H:13])([H:10])[H:11])[H:9])\[H:8]>>[N:1](=[C:2](/[O:3][C:4]([C:5]([N+:7]#[C-:6])([H:12])[H:13])([H:10])[H:11])[H:9])\[H:8]"
N       -1.77194365       1.00618729      -0.20105568
C       -1.85163147      -0.09399972       0.40441727
O       -0.89189337      -1.02559605       0.37629322
C        0.25315159      -0.75855437      -0.42935725
C        1.20431898       0.21094900       0.25967793
C        2.55167686       0.49753413      -0.96084473
N        3.03359555       0.03106147      -0.01221936
H       -2.60313977       1.56490423      -0.05030876
H       -2.70390680      -0.46400477       0.97636931
H       -0.07051744      -0.36809988      -1.39472750
H        0.74095468      -1.72177561      -0.56607938
H        0.78679465       1.21582521       0.29644110
H        1.32254020      -0.09443092       1.30139383
13
Frame=10 idx=008565 GeodesicLength=0.30947761415441344 rxn_smarts="[N:1](=[C:2](/[O:3][C:4]([C:5]([C:6]#[N:7])([H:12])[H:13])([H:10])[H:11])[H:9])\[H:8]>>[N:1](=[C:2](/[O:3][C:4]([C:5]([N+:7]#[C-:6])([H:12])[H:13])([H:10])[H:11])[H:9])\[H:8]"
N       -1.77171704       1.00696718      -0.20540945
C       -1.85225170      -0.09061262       0.40468084
O       -0.89398844      -1.02386265       0.37930763
C        0.25230398      -0.76074710      -0.42544942
C        1.20884021       0.20528450       0.26311970
C        2.55495189       0.50886772      -0.96864579
N        3.03968575       0.04175549      -0.02494859
H       -2.60481832       1.56464974      -0.06146077
H       -2.70618278      -0.45854950       0.97550152
H       -0.07126120      -0.36928285      -1.39051218
H        0.73675099      -1.72556187      -0.56320684
H        0.78236172       1.20646464       0.31308212
H        1.32532494      -0.10537267       1.30394123
13
Frame=11 idx=008565 GeodesicLength=0.3404209694556505 rxn_smarts="[N:1](=[C:2](/[O:3][C:4]([C:5]([C:6]#[N:7])([H:12])[H:13])([H:10])[H:11])[H:9])\[H:8]>>[N:1](=[C:2](/[O:3][C:4]([C:5]([N+:7]#[C-:6])([H:12])[H:13])([H:10])[H:11])[H:9])\[H:8]"
N       -1.77120807       1.00788989      -0.20959897
C       -1.85284498      -0.08714441       0.40492058
O       -0.89611714      -1.02210469       0.38241408
C        0.25144461      -0.76303721      -0.42144258
C        1.21340145       0.19950152       0.26659749
C        2.55790991       0.52062489      -0.97657411
N        3.04555097       0.05281160      -0.03790071
H       -2.60638083       1.56433257      -0.07299573
H       -2.70852743      -0.45295060       0.97449722
H       -0.07198804      -0.37059268      -1.38621949
H        0.73248296      -1.72946394      -0.56018091
H        0.77804918       1.19674404       0.33004100
H        1.32822741      -0.11661098       1.30644213
13
Frame=12 idx=008565 GeodesicLength=0.3713524317976225 rxn_smarts="[N:1](=[C:2](/[O:3][C:4]([C:5]([C:6]#[N:7])([H:12])[H:13])([H:10])[H:11])[H:9])\[H:8]>>[N:1](=[C:2](/[O:3][C:4]([C:5]([N+:7]#[C-:6])([H:12])[H:13])([H:10])[H:11])[H:9])\[H:8]"
N       -1.77054027       1.00871595      -0.21403073
C       -1.85349344      -0.08375727       0.40487697
O       -0.89828995      -1.02041283       0.38554914
C        0.25060355      -0.76553530      -0.41734608
C        1.21788946       0.19368404       0.27002935
C        2.56055450       0.53273993      -0.98460583
N        3.05110817       0.06438123      -0.05089963
H       -2.60719243       1.56450505      -0.08383957
H       -2.71099720      -0.44731595       0.97316306
H       -0.07262608      -0.37231088      -1.38194243
H        0.72827330      -1.73357341      -0.55682204
H        0.77367905       1.18672688       0.34697771
H        1.33103134      -0.12784744       1.30889007
13
Frame=13 idx=008565 GeodesicLength=0.4022967477184141 rxn_smarts="[N:1](=[C:2](/[O:3][C:4]([C:5]([C:6]#[N:7])([H:12])[H:13])([H:10])[H:11])[H:9])\[H:8]>>[N:1](=[C:2](/[O:3][C:4]([C:5]([N+:7]#[C-:6])([H:12])[H:13])([H:10])[H:11])[H:9])\[H:8]"
N       -1.76950423       1.00980020      -0.21805775
C       -1.85403829      -0.08017792       0.40504535
O       -0.90046088      -1.01862169       0.38892724
C        0.24973560      -0.76809647      -0.41307899
C        1.22248421       0.18774643       0.27350303
C        2.56284298       0.54525780      -0.99284133
N        3.05644866       0.07626514      -0.06424103
H       -2.60800354       1.56449502      -0.09528882
H       -2.71376029      -0.44174631       0.97125760
H       -0.07331975      -0.37410360      -1.37748964
H        0.72393702      -1.73778072      -0.55327613
H        0.76955123       1.17635544       0.36425853
H        1.33408728      -0.13939332       1.31128193
13
Frame=14 idx=008565 GeodesicLength=0.43323889971451357 rxn_smarts="[N:1](=[C:2](/[O:3][C:4]([C:5]([C:6]#[N:7])([H:12])[H:13])([H:10])[H:11])[H:9])\[H:8]>>[N:1](=[C:2](/[O:3][C:4]([C:5]([N+:7]#[C-:6])([H:12])[H:13])([H:10])[H:11])[H:9])\[H:8]"
N       -1.76816950       1.01101904      -0.22190980
C       -1.85454214      -0.07652835       0.40520268
O       -0.90265802      -1.01681772       0.39239751
C        0.24885631      -0.77076925      -0.40871683
C        1.22710274       0.18170895       0.27698508
C        2.56480330       0.55816532      -1.00118269
N        3.06150914       0.08852594      -0.07774152
H       -2.60859581       1.56448144      -0.10698081
H       -2.71661343      -0.43609309       0.96912517
H       -0.07400402      -0.37605475      -1.37296850
H        0.71954353      -1.74211702      -0.54955777
H        0.76555650       1.16563710       0.38173036
H        1.33721139      -0.15115759       1.31361711
13
Frame=15 idx=008565 GeodesicLength=0.4641716493775647 rxn_smarts="[N:1](=[C:2](/[O:3][C:4]([C:5]([C:6]#[N:7])([H:12])[H:13])([H:10])[H:11])[H:9])\[H:8]>>[N:1](=[C:2](/[O:3][C:4]([C:5]([N+:7]#[C-:6])([H:12])[H:13])([H:10])[H:11])[H:9])\[H:8]"
N       -1.76654132       1.01236846      -0.22558557
C       -1.85500950      -0.07283381       0.40531394
O       -0.90488829      -1.01502524       0.39589749
C        0.24796544      -0.77354809      -0.40430095
C        1.23172659       0.17557220       0.28046689
C        2.56646492       0.57144066      -1.00957589
N        3.06627058       0.10114569      -0.09132078
H       -2.60899477       1.56442113      -0.11895447
H       -2.71944970      -0.43028179       0.96696030
H       -0.07467057      -0.37813569      -1.36841347
H        0.71509872      -1.74657094      -0.54572279
H        0.76168864       1.15457499       0.39934223
H        1.34033928      -0.16312758       1.31589307
13
Frame=16 idx=008565 GeodesicLength=0.49508478150217156 rxn_smarts="[N:1](=[C:2](/[O:3][C:4]([C:5]([C:6]#[N:7])([H:12])[H:13])([H:10])[H:11])[H:9])\[H:8]>>[N:1](=[C:2](/[O:3][C:4]([C:5]([N+:7]#[C-:6])([H:12])[H:13])([H:10])[H:11])[H:9])\[H:8]"
N       -1.76466917       1.01375398      -0.22921662
C       -1.85545843      -0.06914815       0.40532493
O       -0.90714183      -1.01326864       0.39943891
C        0.24707512      -0.77647242      -0.39981862
C        1.23631907       0.16938905       0.28390449
C        2.56784389       0.58500879      -1.01803570
N        3.07070470       0.11416223      -0.10491115
H       -2.60892765       1.56456853      -0.13070039
H       -2.72237005      -0.42445339       0.96452483
H       -0.07530687      -0.38046584      -1.36384519
H        0.71064935      -1.75117732      -0.54167505
H        0.75789360       1.14322824       0.41689908
H        1.34338827      -0.17512506       1.31811049
