18
Frame=0 idx=006809 GeodesicLength=0.0 rxn_smarts="[C:1]([C:2]([C:3]([C@@:4]([C:5]([H:16])([H:17])[H:18])([C:6]#[N:7])[H:15])([H:13])[H:14])([H:11])[H:12])([H:8])([H:9])[H:10]>>[C:1]1([H:8])([H:10])[C:2]([H:11])([H:12])[C:3]([H:13])([H:14])[C@:4]([C:5]([H:16])([H:17])[H:18])([H:15])/[C:6]1=[N:7]/[H:9]"
C       -1.72801537       0.59176793      -0.22915233
C       -1.48183330      -0.86630159       0.08890566
C       -0.01926554      -1.16666229      -0.24459729
C        0.81733799      -0.08932897       0.42333197
C        2.23993405       0.06287980      -0.09751991
C        0.10508923       1.23532855       0.27465839
N        0.23330936       2.43948832       0.37100388
H       -2.58226112       1.01933321       0.30473501
H       -0.97637819       1.84922554       0.16142315
H       -1.84032086       0.77219762      -1.30006861
H       -1.66294501      -1.05753591       1.15075233
H       -2.15018052      -1.52617724      -0.47024126
H        0.28262444      -2.16194634       0.08570160
H        0.12687582      -1.12366378      -1.32917689
H        0.84581517      -0.28531992       1.50166562
H        2.81976100      -0.83744024       0.10981572
H        2.23665102       0.23144627      -1.17604078
H        2.73380177       0.91270905       0.37480379
18
Frame=1 idx=006809 GeodesicLength=0.11447584194732353 rxn_smarts="[C:1]([C:2]([C:3]([C@@:4]([C:5]([H:16])([H:17])[H:18])([C:6]#[N:7])[H:15])([H:13])[H:14])([H:11])[H:12])([H:8])([H:9])[H:10]>>[C:1]1([H:8])([H:10])[C:2]([H:11])([H:12])[C:3]([H:13])([H:14])[C@:4]([C:5]([H:16])([H:17])[H:18])([H:15])/[C:6]1=[N:7]/[H:9]"
C       -1.73806924       0.59133274      -0.23609557
C       -1.47927161      -0.86221994       0.09654408
C       -0.01931187      -1.15827654      -0.25034848
C        0.82377266      -0.09145821       0.42798867
C        2.24643493       0.05840334      -0.09308185
C        0.11028627       1.23231997       0.29217139
N        0.23987616       2.43720682       0.36949336
H       -2.59991944       1.01222516       0.29063305
H       -0.99632084       1.86436358       0.13847693
H       -1.85475495       0.75558234      -1.30926400
H       -1.65433347      -1.03620184       1.16244853
H       -2.14960929      -1.53650994      -0.44216057
H        0.28349162      -2.15899722       0.06195850
H        0.12612292      -1.10107793      -1.33442461
H        0.85296915      -0.29859611       1.50418213
H        2.81971322      -0.84948651       0.09908508
H        2.24280971       0.24345916      -1.16890856
H        2.74611407       0.89793112       0.39130194
18
Frame=2 idx=006809 GeodesicLength=0.22885687652008702 rxn_smarts="[C:1]([C:2]([C:3]([C@@:4]([C:5]([H:16])([H:17])[H:18])([C:6]#[N:7])[H:15])([H:13])[H:14])([H:11])[H:12])([H:8])([H:9])[H:10]>>[C:1]1([H:8])([H:10])[C:2]([H:11])([H:12])[C:3]([H:13])([H:14])[C@:4]([C:5]([H:16])([H:17])[H:18])([H:15])/[C:6]1=[N:7]/[H:9]"
C       -1.74815897       0.59088648      -0.24298922
C       -1.47662236      -0.85791945       0.10410848
C       -0.01935738      -1.14968143      -0.25602388
C        0.83031266      -0.09369671       0.43274294
C        2.25301932       0.05379772      -0.08859784
C        0.11574048       1.22922080       0.30999793
N        0.24617986       2.43464979       0.36802671
H       -2.61741193       1.00472083       0.27695140
H       -1.01652271       1.87970870       0.11438450
H       -1.86990586       0.73853836      -1.31815612
H       -1.64587829      -1.01465756       1.17370794
H       -2.14841632      -1.54636773      -0.41397479
H        0.28411245      -2.15561537       0.03811375
H        0.12548863      -1.07817200      -1.33939033
H        0.86016352      -0.31215207       1.50664327
H        2.81960769      -0.86143164       0.08817133
H        2.24914589       0.25542258      -1.16145550
H        2.75850332       0.88274868       0.40773943
18
Frame=3 idx=006809 GeodesicLength=0.34310109051041393 rxn_smarts="[C:1]([C:2]([C:3]([C@@:4]([C:5]([H:16])([H:17])[H:18])([C:6]#[N:7])[H:15])([H:13])[H:14])([H:11])[H:12])([H:8])([H:9])[H:10]>>[C:1]1([H:8])([H:10])[C:2]([H:11])([H:12])[C:3]([H:13])([H:14])[C@:4]([C:5]([H:16])([H:17])[H:18])([H:15])/[C:6]1=[N:7]/[H:9]"
C       -1.75826870       0.59045108      -0.24983049
C       -1.47388037      -0.85338019       0.11160437
C       -0.01939775      -1.14086679      -0.26162539
C        0.83697589      -0.09607052       0.43761051
C        2.25969910       0.04905411      -0.08406359
C        0.12150036       1.22600957       0.32818939
N        0.25211747       2.43180050       0.36657702
H       -2.63472660       0.99684497       0.26369365
H       -1.03705287       1.89526873       0.08907087
H       -1.88576467       0.72104386      -1.32671619
H       -1.63757929      -0.99289191       1.18454133
H       -2.14660386      -1.55572275      -0.38568837
H        0.28447987      -2.15179531       0.01414364
H        0.12497934      -1.05491252      -1.34407021
H        0.86741816      -0.32603860       1.50905377
H        2.81945977      -0.87327726       0.07707186
H        2.25566918       0.26732514      -1.15367303
H        2.77097497       0.86715788       0.42411086
18
Frame=4 idx=006809 GeodesicLength=0.4572233270853465 rxn_smarts="[C:1]([C:2]([C:3]([C@@:4]([C:5]([H:16])([H:17])[H:18])([C:6]#[N:7])[H:15])([H:13])[H:14])([H:11])[H:12])([H:8])([H:9])[H:10]>>[C:1]1([H:8])([H:10])[C:2]([H:11])([H:12])[C:3]([H:13])([H:14])[C@:4]([C:5]([H:16])([H:17])[H:18])([H:15])/[C:6]1=[N:7]/[H:9]"
C       -1.76838110       0.59005074      -0.25661323
C       -1.47103851      -0.84858084       0.11903839
C       -0.01942801      -1.13181783      -0.26715486
C        0.84378096      -0.09860897       0.44261166
C        2.26648686       0.04416166      -0.07947116
C        0.12761854       1.22265914       0.34682672
N        0.25758768       2.42863097       0.36507214
H       -2.65185331       0.98861685       0.25086662
H       -1.05800268       1.91106170       0.06244340
H       -1.90231692       0.70307870      -1.33490841
H       -1.62943449      -0.97089411       1.19496298
H       -2.14417260      -1.56454519      -0.35730447
H        0.28458494      -2.14752387      -0.00998274
H        0.12460376      -1.03125597      -1.34845657
H        0.87475550      -0.34031992       1.51141930
H        2.81928286      -0.88502728       0.06576989
H        2.26238729       0.27916995      -1.14554410
H        2.78353922       0.85114427       0.44042444
18
Frame=5 idx=006809 GeodesicLength=0.5711138992864939 rxn_smarts="[C:1]([C:2]([C:3]([C@@:4]([C:5]([H:16])([H:17])[H:18])([C:6]#[N:7])[H:15])([H:13])[H:14])([H:11])[H:12])([H:8])([H:9])[H:10]>>[C:1]1([H:8])([H:10])[C:2]([H:11])([H:12])[C:3]([H:13])([H:14])[C@:4]([C:5]([H:16])([H:17])[H:18])([H:15])/[C:6]1=[N:7]/[H:9]"
C       -1.77847980       0.58970941      -0.26332954
C       -1.46809362      -0.84350290       0.12641443
C       -0.01944378      -1.12251984      -0.27261484
C        0.85074282      -0.10133864       0.44776496
C        2.27339249       0.03911390      -0.07481055
C        0.13414194       1.21914484       0.36599240
N        0.26250194       2.42511275       0.36339665
H       -2.66877730       0.98006169       0.23848068
H       -1.07944703       1.92707062       0.03444458
H       -1.91954734       0.68463295      -1.34268952
H       -1.62144582      -0.94866044       1.20498016
H       -2.14112379      -1.57280317      -0.32883362
H        0.28442111      -2.14278911      -0.03429431
H        0.12436869      -1.00715706      -1.35254209
H        0.88219130      -0.35505557       1.51374205
H        2.81908921      -0.89668043       0.05425905
H        2.26930674       0.29096136      -1.13705017
H        2.79620224       0.83469963       0.45668967
18
Frame=6 idx=006809 GeodesicLength=0.6849894781666495 rxn_smarts="[C:1]([C:2]([C:3]([C@@:4]([C:5]([H:16])([H:17])[H:18])([C:6]#[N:7])[H:15])([H:13])[H:14])([H:11])[H:12])([H:8])([H:9])[H:10]>>[C:1]1([H:8])([H:10])[C:2]([H:11])([H:12])[C:3]([H:13])([H:14])[C@:4]([C:5]([H:16])([H:17])[H:18])([H:15])/[C:6]1=[N:7]/[H:9]"
C       -1.78854414       0.58945482      -0.26997505
C       -1.46503417      -0.83811868       0.13374822
C       -0.01943724      -1.11295050      -0.27800587
C        0.85788585      -0.10429609       0.45309641
C        2.28043280       0.03389445      -0.07007315
C        0.14113896       1.21543809       0.38581380
N        0.26674410       2.42117189       0.36148380
H       -2.68548491       0.97119851       0.22653967
H       -1.10155501       1.94335580       0.00488701
H       -1.93742807       0.66568244      -1.35001085
H       -1.61360197      -0.92616811       1.21461733
H       -2.13745306      -1.58046450      -0.30026175
H        0.28397853      -2.13756893      -0.05883568
H        0.12428554      -0.98255011      -1.35630952
H        0.88975867      -0.37033846       1.51602410
H        2.81889200      -0.90824687       0.04250056
H        2.27643379       0.30271916      -1.12816416
H        2.80898832       0.81778708       0.47292512
18
Frame=7 idx=006809 GeodesicLength=0.7988821185449674 rxn_smarts="[C:1]([C:2]([C:3]([C@@:4]([C:5]([H:16])([H:17])[H:18])([C:6]#[N:7])[H:15])([H:13])[H:14])([H:11])[H:12])([H:8])([H:9])[H:10]>>[C:1]1([H:8])([H:10])[C:2]([H:11])([H:12])[C:3]([H:13])([H:14])[C@:4]([C:5]([H:16])([H:17])[H:18])([H:15])/[C:6]1=[N:7]/[H:9]"
C       -1.79856038       0.58930862      -0.27654345
C       -1.46185255      -0.83240661       0.14105149
C       -0.01940181      -1.10308806      -0.28332744
C        0.86522776      -0.10751382       0.45862604
C        2.28761994       0.02849148      -0.06524996
C        0.14866491       1.21151141       0.40639905
N        0.27022055       2.41674474       0.35925766
H       -2.70195847       0.96204942       0.21505623
H       -1.12446061       1.95994776      -0.02638187
H       -1.95593012       0.64621677      -1.35682106
H       -1.60589605      -0.90340593       1.22389125
H       -2.13315591      -1.58749980      -0.27158608
H        0.28325047      -2.13183917      -0.08364231
H        0.12436343      -0.95738088      -1.35974389
H        0.89747834      -0.38624427       1.51826083
H        2.81870201      -0.91972891       0.03046994
H        2.28377471       0.31445745      -1.11886095
H        2.82191378       0.80037980       0.48914451
18
Frame=8 idx=006809 GeodesicLength=0.9128928434229812 rxn_smarts="[C:1]([C:2]([C:3]([C@@:4]([C:5]([H:16])([H:17])[H:18])([C:6]#[N:7])[H:15])([H:13])[H:14])([H:11])[H:12])([H:8])([H:9])[H:10]>>[C:1]1([H:8])([H:10])[C:2]([H:11])([H:12])[C:3]([H:13])([H:14])[C@:4]([C:5]([H:16])([H:17])[H:18])([H:15])/[C:6]1=[N:7]/[H:9]"
C       -1.80850766       0.58930648      -0.28303351
C       -1.45853590      -0.82633020       0.14834123
C       -0.01932977      -1.09290261      -0.28857737
C        0.87279433      -0.11102443       0.46437292
C        2.29497424       0.02288685      -0.06033537
C        0.15681146       1.20733633       0.42786702
N        0.27277606       2.41171868       0.35669336
H       -2.71817708       0.95264743       0.20403542
H       -1.14834398       1.97685074      -0.05957657
H       -1.97502575       0.62621774      -1.36306852
H       -1.59831295      -0.88033611       1.23282706
H       -2.12822488      -1.59386720      -0.24278936
H        0.28222108      -2.12555980      -0.10875350
H        0.12461552      -0.93157560      -1.36281983
H        0.90537884      -0.40286263       1.52043881
H        2.81853127      -0.93112940       0.01813441
H        2.29134602       0.32618448      -1.10911247
H        2.83500914       0.78243924       0.50535625
18
Frame=9 idx=006809 GeodesicLength=1.0273753334650157 rxn_smarts="[C:1]([C:2]([C:3]([C@@:4]([C:5]([H:16])([H:17])[H:18])([C:6]#[N:7])[H:15])([H:13])[H:14])([H:11])[H:12])([H:8])([H:9])[H:10]>>[C:1]1([H:8])([H:10])[C:2]([H:11])([H:12])[C:3]([H:13])([H:14])[C@:4]([C:5]([H:16])([H:17])[H:18])([H:15])/[C:6]1=[N:7]/[H:9]"
C       -1.81836128       0.58948734      -0.28951042
C       -1.45506380      -0.81981912       0.15566834
C       -0.01920610      -1.08236846      -0.29374043
C        0.88062876      -0.11488217       0.47034792
C        2.30251949       0.01705928      -0.05536320
C        0.16569886       1.20287888       0.45037686
N        0.27417601       2.40588767       0.35402133
H       -2.73413974       0.94303462       0.19333457
H       -1.17351138       1.99414939      -0.09490951
H       -1.99460653       0.60563302      -1.36880741
H       -1.59079504      -0.85680762       1.24148553
H       -2.12266437      -1.59951801      -0.21375077
H        0.28088524      -2.11869790      -0.13418736
H        0.12504677      -0.90509562      -1.36550442
H        0.91352230      -0.42030655       1.52251986
H        2.81840022      -0.94245440       0.00541408
H        2.29914277       0.33791262      -1.09892420
H        2.84832783       0.76390703       0.52152923
18
Frame=10 idx=006809 GeodesicLength=1.1419702863440515 rxn_smarts="[C:1]([C:2]([C:3]([C@@:4]([C:5]([H:16])([H:17])[H:18])([C:6]#[N:7])[H:15])([H:13])[H:14])([H:11])[H:12])([H:8])([H:9])[H:10]>>[C:1]1([H:8])([H:10])[C:2]([H:11])([H:12])[C:3]([H:13])([H:14])[C@:4]([C:5]([H:16])([H:17])[H:18])([H:15])/[C:6]1=[N:7]/[H:9]"
C       -1.82811627       0.58987811      -0.29592774
C       -1.45143081      -0.81286040       0.16302052
C       -0.01902816      -1.07144682      -0.29881949
C        0.88873980      -0.11909836       0.47656769
C        2.31027093       0.01099607      -0.05030265
C        0.17539148       1.19811979       0.47397079
N        0.27431693       2.39920798       0.35113769
H       -2.74980155       0.93324437       0.18309386
H       -1.20000024       2.01173826      -0.13266449
H       -2.01471780       0.58447414      -1.37389376
H       -1.58336100      -0.83286481       1.24985657
H       -2.11645240      -1.60441322      -0.18453607
H        0.27921925      -2.11120082      -0.15998642
H        0.12567899      -0.87784872      -1.36777253
H        0.92189855      -0.43862238       1.52449783
H        2.81830811      -0.95370142      -0.00768268
H        2.30720349       0.34963637      -1.08824893
H        2.86188071       0.74476186       0.53768982
18
Frame=11 idx=006809 GeodesicLength=1.2566474119450648 rxn_smarts="[C:1]([C:2]([C:3]([C@@:4]([C:5]([H:16])([H:17])[H:18])([C:6]#[N:7])[H:15])([H:13])[H:14])([H:11])[H:12])([H:8])([H:9])[H:10]>>[C:1]1([H:8])([H:10])[C:2]([H:11])([H:12])[C:3]([H:13])([H:14])[C@:4]([C:5]([H:16])([H:17])[H:18])([H:15])/[C:6]1=[N:7]/[H:9]"
C       -1.83776100       0.59051281      -0.30229959
C       -1.44762287      -0.80540704       0.17042026
C       -0.01878713      -1.06010102      -0.30380502
C        0.89715546      -0.12370715       0.48304225
C        2.31824788       0.00468322      -0.04516173
C        0.18598840       1.19302676       0.49874711
N        0.27299241       2.39154043       0.34818271
H       -2.76513749       0.92332531       0.17331010
H       -1.22797270       2.02959068      -0.17314834
H       -2.03532161       0.56272609      -1.37828429
H       -1.57598793      -0.80844128       1.25796938
H       -2.10957849      -1.60850710      -0.15510835
H        0.27720735      -2.10302156      -0.18617779
H        0.12652658      -0.84976931      -1.36958747
H        0.93053767      -0.45789491       1.52634293
H        2.81826735      -0.96487258      -0.02119354
H        2.31554491       0.36135013      -1.07707393
H        2.87570119       0.72496651       0.55382530
18
Frame=12 idx=006809 GeodesicLength=1.3713701746954294 rxn_smarts="[C:1]([C:2]([C:3]([C@@:4]([C:5]([H:16])([H:17])[H:18])([C:6]#[N:7])[H:15])([H:13])[H:14])([H:11])[H:12])([H:8])([H:9])[H:10]>>[C:1]1([H:8])([H:10])[C:2]([H:11])([H:12])[C:3]([H:13])([H:14])[C@:4]([C:5]([H:16])([H:17])[H:18])([H:15])/[C:6]1=[N:7]/[H:9]"
C       -1.84728595       0.59142605      -0.30865122
C       -1.44362544      -0.79740501       0.17789028
C       -0.01847321      -1.04829222      -0.30868005
C        0.90590624      -0.12874112       0.48978080
C        2.32647294      -0.00190253      -0.03995488
C        0.19760471       1.18757359       0.52479625
N        0.26998434       2.38274156       0.34534060
H       -2.78012375       0.91333262       0.16396490
H       -1.25761087       2.04762734      -0.21666630
H       -2.05636753       0.54037093      -1.38194042
H       -1.56865095      -0.78345339       1.26585067
H       -2.10203001      -1.61174858      -0.12542402
H        0.27482630      -2.09409704      -0.21278063
H        0.12760804      -0.82078876      -1.37090449
H        0.93946561      -0.47819712       1.52802033
H        2.81828258      -0.97596819      -0.03517101
H        2.32418532       0.37305169      -1.06538658
H        2.88983163       0.70447019       0.56991575
18
Frame=13 idx=006809 GeodesicLength=1.4860216160987134 rxn_smarts="[C:1]([C:2]([C:3]([C@@:4]([C:5]([H:16])([H:17])[H:18])([C:6]#[N:7])[H:15])([H:13])[H:14])([H:11])[H:12])([H:8])([H:9])[H:10]>>[C:1]1([H:8])([H:10])[C:2]([H:11])([H:12])[C:3]([H:13])([H:14])[C@:4]([C:5]([H:16])([H:17])[H:18])([H:15])/[C:6]1=[N:7]/[H:9]"
C       -1.85669302       0.59264594      -0.31501785
C       -1.43942683      -0.78879826       0.18545211
C       -0.01807906      -1.03598214      -0.31343282
C        0.91501772      -0.13422689       0.49677913
C        2.33496448      -0.00877695      -0.03470168
C        0.21035189       1.18173129       0.55217075
N        0.26507423       2.37266914       0.34287260
H       -2.79474709       0.90331802       0.15503211
H       -1.28905604       2.06574190      -0.26350273
H       -2.07779746       0.51740249      -1.38483587
H       -1.56132263      -0.75780247       1.27352490
H       -2.09379502      -1.61408541      -0.09542820
H        0.27205771      -2.08436895      -0.23980083
H        0.12893682      -0.79085783      -1.37168321
H        0.94870099      -0.49958549       1.52948339
H        2.81835885      -0.98698299      -0.04965099
H        2.33314660       0.38472153      -1.05318857
H        2.90430785       0.68323707       0.58592776
18
Frame=14 idx=006809 GeodesicLength=1.6006178901190047 rxn_smarts="[C:1]([C:2]([C:3]([C@@:4]([C:5]([H:16])([H:17])[H:18])([C:6]#[N:7])[H:15])([H:13])[H:14])([H:11])[H:12])([H:8])([H:9])[H:10]>>[C:1]1([H:8])([H:10])[C:2]([H:11])([H:12])[C:3]([H:13])([H:14])[C@:4]([C:5]([H:16])([H:17])[H:18])([H:15])/[C:6]1=[N:7]/[H:9]"
C       -1.86598308       0.59420269      -0.32144596
C       -1.43501154      -0.77951970       0.19312863
C       -0.01759399      -1.02312608      -0.31804317
C        0.92452000      -0.14018870       0.50403173
C        2.34374569      -0.01596522      -0.02942914
C        0.22435812       1.17547791       0.58092007
N        0.25804210       2.36119022       0.34110048
H       -2.80899456       0.89333690       0.14646796
H       -1.32252554       2.08378621      -0.31396131
H       -2.09954288       0.49380196      -1.38694912
H       -1.55396878      -0.73136745       1.28101382
H       -2.08485332      -1.61545345      -0.06505473
H        0.26887520      -2.07376784      -0.26724208
H        0.13053480      -0.75991571      -1.37187267
H        0.95825856      -0.52210991       1.53067993
H        2.81849320      -0.99791756      -0.06468778
H        2.34246179       0.39633775      -1.04047864
H        2.91918423       0.66119798       0.60182199
18
Frame=15 idx=006809 GeodesicLength=1.715099578159708 rxn_smarts="[C:1]([C:2]([C:3]([C@@:4]([C:5]([H:16])([H:17])[H:18])([C:6]#[N:7])[H:15])([H:13])[H:14])([H:11])[H:12])([H:8])([H:9])[H:10]>>[C:1]1([H:8])([H:10])[C:2]([H:11])([H:12])[C:3]([H:13])([H:14])[C@:4]([C:5]([H:16])([H:17])[H:18])([H:15])/[C:6]1=[N:7]/[H:9]"
C       -1.87516917       0.59611638      -0.32799175
C       -1.43036910      -0.76950272       0.20093915
C       -0.01700862      -1.00968240      -0.32249597
C        0.93443728      -0.14664473       0.51152307
C        2.35283466      -0.02348915      -0.02416876
C        0.23973302       1.16880053       0.61105974
N        0.24870933       2.34819580       0.34038026
H       -2.82287085       0.88343152       0.13821216
H       -1.35819860       2.10156789      -0.36826406
H       -2.12152697       0.46955801      -1.38828096
H       -1.54655575      -0.70401575       1.28832954
H       -2.07518889      -1.61578559      -0.03423273
H        0.26525861      -2.06222505      -0.29509743
H        0.13242056      -0.72791929      -1.37142736
H        0.96814340      -0.54579417       1.53155482
H        2.81868064      -1.00877241      -0.08031884
H        2.35216405       0.40786487      -1.02726854
H        2.93450640       0.63829624       0.61754765
18
Frame=16 idx=006809 GeodesicLength=1.8295113988388105 rxn_smarts="[C:1]([C:2]([C:3]([C@@:4]([C:5]([H:16])([H:17])[H:18])([C:6]#[N:7])[H:15])([H:13])[H:14])([H:11])[H:12])([H:8])([H:9])[H:10]>>[C:1]1([H:8])([H:10])[C:2]([H:11])([H:12])[C:3]([H:13])([H:14])[C@:4]([C:5]([H:16])([H:17])[H:18])([H:15])/[C:6]1=[N:7]/[H:9]"
C       -1.88426886       0.59840596      -0.33472510
C       -1.42548664      -0.75867043       0.20889846
C       -0.01631372      -0.99560255      -0.32677462
C        0.94479223      -0.15360289       0.51922814
C        2.36225222      -0.03137831      -0.01895422
C        0.25660514       1.16168865       0.64257374
N        0.23690379       2.33358330       0.34112512
H       -2.83638416       0.87364139       0.13019338
H       -1.39630294       2.11883803      -0.42661776
H       -2.14365765       0.44466113      -1.38883183
H       -1.53904261      -0.67559161       1.29547666
H       -2.06477633      -1.61500498      -0.00288069
H        0.26117979      -2.04966126      -0.32335357
H        0.13461596      -0.69482488      -1.37030089
H        0.97834787      -0.57064492       1.53204228
H        2.81890653      -1.01955166      -0.09658294
H        2.36230061       0.41926141      -1.01356884
H        2.95032877       0.61445362       0.63305266
