12
Frame=0 idx=004672 GeodesicLength=0.0 rxn_smarts="[O:1]=[C:2]1[C:3]([H:7])([H:8])[C@@:4]2([H:9])[C:5]([H:10])([H:11])[C@@:6]12[H:12]>>[O:1]=[C:2]([C:3]([C:4]1([H:9])[C:5]([H:10])=[C:6]1[H:12])([H:7])[H:8])[H:11]"
O       -1.24338692       2.07013776       0.61820380
C       -0.94466253       1.09712893       0.07552239
C       -1.07622095      -0.09588080      -0.67051052
C       -0.03535302      -0.79612013       0.29470747
C        1.31509758      -1.11244558      -0.10474969
C        1.13976875       0.18120281       0.57859942
H       -2.07658705      -0.52212187      -0.69104269
H       -0.66555462       0.00208220      -1.67491714
H       -0.52789728      -1.21054598       1.16915955
H        1.53161445      -1.07761916      -1.17009549
H        1.17966450       1.09320887      -0.03958560
H        1.40351711       0.37097292       1.61470845
12
Frame=1 idx=004672 GeodesicLength=0.13831293690033847 rxn_smarts="[O:1]=[C:2]1[C:3]([H:7])([H:8])[C@@:4]2([H:9])[C:5]([H:10])([H:11])[C@@:6]12[H:12]>>[O:1]=[C:2]([C:3]([C:4]1([H:9])[C:5]([H:10])=[C:6]1[H:12])([H:7])[H:8])[H:11]"
O       -1.22807603       2.10581333       0.55327964
C       -0.91019975       1.10922971       0.06153209
C       -1.08055383      -0.10253520      -0.65678293
C       -0.03585883      -0.81175765       0.29019663
C        1.32503610      -1.07634182      -0.12072909
C        1.11615587       0.17288955       0.61960481
H       -2.08973997      -0.50860576      -0.64242745
H       -0.70173306      -0.02817692      -1.67561163
H       -0.52059144      -1.27084564       1.14627632
H        1.54144362      -1.03331995      -1.18508888
H        1.19486205       1.08962587      -0.04379176
H        1.38925526       0.35402449       1.65354226
12
Frame=2 idx=004672 GeodesicLength=0.27648618002663 rxn_smarts="[O:1]=[C:2]1[C:3]([H:7])([H:8])[C@@:4]2([H:9])[C:5]([H:10])([H:11])[C@@:6]12[H:12]>>[O:1]=[C:2]([C:3]([C:4]1([H:9])[C:5]([H:10])=[C:6]1[H:12])([H:7])[H:8])[H:11]"
O       -1.21155923       2.13947492       0.48450675
C       -0.87559033       1.12090447       0.04687998
C       -1.08505802      -0.10850912      -0.64225164
C       -0.03604713      -0.82721169       0.28523839
C        1.33410116      -1.03836561      -0.13521793
C        1.09197362       0.16349084       0.65946885
H       -2.10157277      -0.49380975      -0.59196335
H       -0.73960726      -0.05808708      -1.67432899
H       -0.51100503      -1.33213115       1.12049780
H        1.55006217      -0.98916386      -1.19873461
H        1.21023839       1.08740575      -0.04542462
H        1.37406445       0.33600229       1.69132938
12
Frame=3 idx=004672 GeodesicLength=0.4145505838313177 rxn_smarts="[O:1]=[C:2]1[C:3]([H:7])([H:8])[C@@:4]2([H:9])[C:5]([H:10])([H:11])[C@@:6]12[H:12]>>[O:1]=[C:2]([C:3]([C:4]1([H:9])[C:5]([H:10])=[C:6]1[H:12])([H:7])[H:8])[H:11]"
O       -1.19361138       2.17060320       0.41251557
C       -0.84085986       1.13210226       0.03161861
C       -1.08970591      -0.11375375      -0.62694378
C       -0.03598384      -0.84255130       0.27974462
C        1.34215996      -0.99875487      -0.14802650
C        1.06714144       0.15294767       0.69813328
H       -2.11194584      -0.47767217      -0.53969480
H       -0.77906348      -0.08745545      -1.67094254
H       -0.49918191      -1.39413754       1.09151666
H        1.55763249      -0.94553390      -1.21083001
H        1.22575074       1.08683233      -0.04505432
H        1.35766759       0.31737353       1.72796320
12
Frame=4 idx=004672 GeodesicLength=0.5525327553229138 rxn_smarts="[O:1]=[C:2]1[C:3]([H:7])([H:8])[C@@:4]2([H:9])[C:5]([H:10])([H:11])[C@@:6]12[H:12]>>[O:1]=[C:2]([C:3]([C:4]1([H:9])[C:5]([H:10])=[C:6]1[H:12])([H:7])[H:8])[H:11]"
O       -1.17414404       2.19869659       0.33815226
C       -0.80605934       1.14275393       0.01581239
C       -1.09446201      -0.11823220      -0.61091859
C       -0.03573616      -0.85783146       0.27362008
C        1.34909924      -0.95778117      -0.15895139
C        1.04156419       0.14124978       0.73550682
H       -2.12070019      -0.46017310      -0.48573828
H       -0.81995767      -0.11603398      -1.66537104
H       -0.48522207      -1.45646042       1.05909129
H        1.56439476      -0.90286980      -1.22113927
H        1.24137315       1.08806143      -0.04337864
H        1.33985014       0.29862039       1.76331438
12
Frame=5 idx=004672 GeodesicLength=0.6904726887281327 rxn_smarts="[O:1]=[C:2]1[C:3]([H:7])([H:8])[C@@:4]2([H:9])[C:5]([H:10])([H:11])[C@@:6]12[H:12]>>[O:1]=[C:2]([C:3]([C:4]1([H:9])[C:5]([H:10])=[C:6]1[H:12])([H:7])[H:8])[H:11]"
O       -1.15318199       2.22341964       0.26216601
C       -0.77131525       1.15274947      -0.00031385
C       -1.09928619      -0.12192319      -0.59422045
C       -0.03535709      -0.87310897       0.26677273
C        1.35483508      -0.91574579      -0.16782121
C        1.01515629       0.12839504       0.77149648
H       -2.12766849      -0.44136981      -0.43026389
H       -0.86211546      -0.14347854      -1.65754471
H       -0.46925449      -1.51865133       1.02305339
H        1.57064718      -0.86160476      -1.22943815
H        1.25705266       1.09115551      -0.04114443
H        1.32048775       0.28016271       1.79725807
12
Frame=6 idx=004672 GeodesicLength=0.8283790751438479 rxn_smarts="[O:1]=[C:2]1[C:3]([H:7])([H:8])[C@@:4]2([H:9])[C:5]([H:10])([H:11])[C@@:6]12[H:12]>>[O:1]=[C:2]([C:3]([C:4]1([H:9])[C:5]([H:10])=[C:6]1[H:12])([H:7])[H:8])[H:11]"
O       -1.13101270       2.24439107       0.18575852
C       -0.73673670       1.16201517      -0.01658747
C       -1.10410392      -0.12480563      -0.57697514
C       -0.03490290      -0.88838816       0.25911336
C        1.35929351      -0.87302811      -0.17445711
C        0.98786241       0.11442930       0.80596641
H       -2.13265522      -0.42136191      -0.37359267
H       -0.90528974      -0.16940966      -1.64750711
H       -0.45150508      -1.58005850       0.98339444
H        1.57677233      -0.82235035      -1.23546342
H        1.27275900       1.09607232      -0.03926893
H        1.29951903       0.26249446       1.82961912
12
Frame=7 idx=004672 GeodesicLength=0.9662677409883158 rxn_smarts="[O:1]=[C:2]1[C:3]([H:7])([H:8])[C@@:4]2([H:9])[C:5]([H:10])([H:11])[C@@:6]12[H:12]>>[O:1]=[C:2]([C:3]([C:4]1([H:9])[C:5]([H:10])=[C:6]1[H:12])([H:7])[H:8])[H:11]"
O       -1.10802298       2.26145017       0.10995409
C       -0.70250989       1.17046472      -0.03263920
C       -1.10883832      -0.12687586      -0.55929065
C       -0.03441617      -0.90366386       0.25057322
C        1.36243434      -0.83002042      -0.17874243
C        0.95966752       0.09938425       0.83881756
H       -2.13549615      -0.40035176      -0.31612310
H       -0.94919583      -0.19337096      -1.63533022
H       -0.43223340      -1.64006027       0.94021727
H        1.58319900      -0.78569545      -1.23897875
H        1.28843039       1.10271195      -0.03870809
H        1.27698150       0.24602748       1.86025028
12
Frame=8 idx=004672 GeodesicLength=1.1041374030420692 rxn_smarts="[O:1]=[C:2]1[C:3]([H:7])([H:8])[C@@:4]2([H:9])[C:5]([H:10])([H:11])[C@@:6]12[H:12]>>[O:1]=[C:2]([C:3]([C:4]1([H:9])[C:5]([H:10])=[C:6]1[H:12])([H:7])[H:8])[H:11]"
O       -1.08471273       2.27455484       0.03582505
C       -0.66884407       1.17804577      -0.04802099
C       -1.11340507      -0.12814258      -0.54129700
C       -0.03393750      -0.91889483       0.24111107
C        1.36424112      -0.78711444      -0.18060664
C        0.93059654       0.08329548       0.86998423
H       -2.13607765      -0.37862120      -0.25835815
H       -0.99349957      -0.21489295      -1.62115763
H       -0.41174747      -1.69803799       0.89375516
H        1.59039833      -0.75225727      -1.23975038
H        1.30400490       1.11091979      -0.04050783
H        1.25298317       0.23114539       1.88902310
12
Frame=9 idx=004672 GeodesicLength=1.241954208378791 rxn_smarts="[O:1]=[C:2]1[C:3]([H:7])([H:8])[C@@:4]2([H:9])[C:5]([H:10])([H:11])[C@@:6]12[H:12]>>[O:1]=[C:2]([C:3]([C:4]1([H:9])[C:5]([H:10])=[C:6]1[H:12])([H:7])[H:8])[H:11]"
O       -1.06155680       2.28382342      -0.03574626
C       -0.63600610       1.18475404      -0.06216958
C       -1.11772001      -0.12863452      -0.52310791
C       -0.03350102      -0.93400534       0.23071737
C        1.36470957      -0.74462968      -0.18003688
C        0.90071080       0.06617104       0.89948417
H       -2.13436386      -0.35651445      -0.20083962
H       -1.03782694      -0.23356123      -1.60515984
H       -0.39036035      -1.75347549       0.84428898
H        1.59882368      -0.72256851      -1.23757049
H        1.31938073       1.12050216      -0.04574161
H        1.22771029       0.21813856       1.91588165
12
Frame=10 idx=004672 GeodesicLength=1.379714385148296 rxn_smarts="[O:1]=[C:2]1[C:3]([H:7])([H:8])[C@@:4]2([H:9])[C:5]([H:10])([H:11])[C@@:6]12[H:12]>>[O:1]=[C:2]([C:3]([C:4]1([H:9])[C:5]([H:10])=[C:6]1[H:12])([H:7])[H:8])[H:11]"
O       -1.03920978       2.28942077      -0.10337481
C       -0.60414047       1.19067990      -0.07470475
C       -1.12171224      -0.12837359      -0.50492149
C       -0.03315088      -0.94887012       0.21941196
C        1.36387194      -0.70287240      -0.17703722
C        0.87008145       0.04806011       0.92733188
H       -2.13040555      -0.33440515      -0.14418895
H       -1.08180125      -0.24903225      -1.58765677
H       -0.36839808      -1.80586849       0.79221335
H        1.60904512      -0.69736486      -1.23210887
H        1.33453588       1.13126437      -0.05568562
H        1.20128386       0.20736172       1.94072128
12
Frame=11 idx=004672 GeodesicLength=1.5173756388950546 rxn_smarts="[O:1]=[C:2]1[C:3]([H:7])([H:8])[C@@:4]2([H:9])[C:5]([H:10])([H:11])[C@@:6]12[H:12]>>[O:1]=[C:2]([C:3]([C:4]1([H:9])[C:5]([H:10])=[C:6]1[H:12])([H:7])[H:8])[H:11]"
O       -1.01816899       2.29171072      -0.16608264
C       -0.57342799       1.19592951      -0.08511194
C       -1.12532265      -0.12739639      -0.48687018
C       -0.03291781      -0.96335553       0.20724374
C        1.36175041      -0.66198849      -0.17167055
C        0.83878893       0.02896232       0.95365480
H       -2.12435167      -0.31268891      -0.08897146
H       -1.12503569      -0.26104956      -1.56892256
H       -0.34611508      -1.85491168       0.73785043
H        1.62157440      -0.67719787      -1.22302993
H        1.34936619       1.14296309      -0.07163702
H        1.17385993       0.19902278       1.96354731
12
Frame=12 idx=004672 GeodesicLength=1.6549032671140007 rxn_smarts="[O:1]=[C:2]1[C:3]([H:7])([H:8])[C@@:4]2([H:9])[C:5]([H:10])([H:11])[C@@:6]12[H:12]>>[O:1]=[C:2]([C:3]([C:4]1([H:9])[C:5]([H:10])=[C:6]1[H:12])([H:7])[H:8])[H:11]"
O       -0.99889431       2.29116718      -0.22285055
C       -0.54399635       1.20066757      -0.09294667
C       -1.12851692      -0.12573346      -0.46908457
C       -0.03282251      -0.97731564       0.19427529
C        1.35837996      -0.62200176      -0.16401182
C        0.80691830       0.00885789       0.97863783
H       -2.11644809      -0.29174542      -0.03570179
H       -1.16716956      -0.26944818      -1.54925829
H       -0.32369702      -1.90041263       0.68146241
H        1.63697733      -0.66260974      -1.20985085
H        1.36371726       1.15530952      -0.09507767
H        1.14555192       0.19326467       1.98440667
12
Frame=13 idx=004672 GeodesicLength=1.7922849673016938 rxn_smarts="[O:1]=[C:2]1[C:3]([H:7])([H:8])[C@@:4]2([H:9])[C:5]([H:10])([H:11])[C@@:6]12[H:12]>>[O:1]=[C:2]([C:3]([C:4]1([H:9])[C:5]([H:10])=[C:6]1[H:12])([H:7])[H:8])[H:11]"
O       -0.98177111       2.28835866      -0.27264516
C       -0.51589627       1.20509268      -0.09779644
C       -1.13126646      -0.12339835      -0.45167181
C       -0.03285695      -0.99059427       0.18056088
C        1.35378645      -0.58278707      -0.15414222
C        0.77453553      -0.01229455       1.00249794
H       -2.10699274      -0.27192959       0.01518854
H       -1.20785787      -0.27411671      -1.52896090
H       -0.30121859      -1.94225386       0.62322053
H        1.65586083      -0.65411194      -1.19184828
H        1.37730213       1.16791220      -0.12777394
H        1.11637504       0.19012280       2.00337085
12
Frame=14 idx=004672 GeodesicLength=1.929526744109047 rxn_smarts="[O:1]=[C:2]1[C:3]([H:7])([H:8])[C@@:4]2([H:9])[C:5]([H:10])([H:11])[C@@:6]12[H:12]>>[O:1]=[C:2]([C:3]([C:4]1([H:9])[C:5]([H:10])=[C:6]1[H:12])([H:7])[H:8])[H:11]"
O       -0.96706385       2.28393184      -0.31454555
C       -0.48910862       1.20942884      -0.09929134
C       -1.13356158      -0.12036798      -0.43467817
C       -0.03296682      -1.00302538       0.16610465
C        1.34801364      -0.54404783      -0.14213394
C        0.74170299      -0.03458609       1.02549302
H       -2.09630116      -0.25352359       0.06345698
H       -1.24685034      -0.27497652      -1.50826556
H       -0.27864164      -1.98037594       0.56311322
H        1.67898121      -0.65207374      -1.16795062
H        1.38958335       1.18017892      -0.17189350
H        1.08621281       0.18943746       2.02059081
12
Frame=15 idx=004672 GeodesicLength=2.066654004563782 rxn_smarts="[O:1]=[C:2]1[C:3]([H:7])([H:8])[C@@:4]2([H:9])[C:5]([H:10])([H:11])[C@@:6]12[H:12]>>[O:1]=[C:2]([C:3]([C:4]1([H:9])[C:5]([H:10])=[C:6]1[H:12])([H:7])[H:8])[H:11]"
O       -0.95490408       2.27857413      -0.34765617
C       -0.46350805       1.21391712      -0.09710447
C       -1.13537552      -0.11656240      -0.41808215
C       -0.03301508      -1.01439802       0.15082738
C        1.34112727      -0.50529617      -0.12802969
C        0.70846253      -0.05815126       1.04786932
H       -2.08464160      -0.23672145       0.10905370
H       -1.28395927      -0.27192354      -1.48731814
H       -0.25577731      -2.01466769       0.50094549
H        1.70725533      -0.65666890      -1.13655855
H        1.39959317       1.19112949      -0.23023365
H        1.05474261       0.19076868       2.03628694
12
Frame=16 idx=004672 GeodesicLength=2.203687891550653 rxn_smarts="[O:1]=[C:2]1[C:3]([H:7])([H:8])[C@@:4]2([H:9])[C:5]([H:10])([H:11])[C@@:6]12[H:12]>>[O:1]=[C:2]([C:3]([C:4]1([H:9])[C:5]([H:10])=[C:6]1[H:12])([H:7])[H:8])[H:11]"
O       -0.94519025       2.27301518      -0.37122462
C       -0.43880485       1.21883178      -0.09098717
C       -1.13664520      -0.11181548      -0.40176195
C       -0.03272289      -1.02444020       0.13450705
C        1.33324891      -0.46584595      -0.11180403
C        0.67483922      -0.08319219       1.06987010
H       -2.07213884      -0.22155444       0.15222821
H       -1.31913823      -0.26480666      -1.46612611
H       -0.23222001      -2.04494194       0.43622404
H        1.74177737      -0.66760555      -1.09536910
H        1.40564255       1.19906323      -0.30640155
H        1.02135222       0.19329223       2.05084514
