17
Frame=0 idx=007594 GeodesicLength=0.0 rxn_smarts="[C:1]([C@@:2]1([C:3]([C:4]([O:5][H:15])([H:13])[H:14])([H:11])[H:12])[C:6]([H:16])([H:17])[O:7]1)([H:8])([H:9])[H:10]>>[C:1]([C-:2]=[O+:7][C:6]([C:3]([C:4]([O:5][H:15])([H:13])[H:14])([H:11])[H:12])([H:16])[H:17])([H:8])([H:9])[H:10]"
C       -1.54324765      -1.39480821       0.55463607
C       -0.57177123      -0.25714914       0.76612961
C        0.64178859      -0.13991189      -0.64810155
C        1.90288695       0.37657252       0.03494702
O        1.72575743       1.65208858       0.60644565
C       -0.85325526       0.93131583      -0.56471710
O       -1.29170328       0.97966608       0.72154834
H       -1.01744716      -2.33770325       0.39856020
H       -2.08395321      -1.46919028       1.50176630
H       -2.29108801      -1.25630665      -0.23462191
H        0.65112652       0.13341312      -1.71672711
H        0.62400133      -1.22894188      -0.67801656
H        2.71283997       0.47968564      -0.69196886
H        2.20055384      -0.35066893       0.79658998
H        1.08137801       1.54284304       1.31491653
H       -1.54200665       0.49969180      -1.28804377
H       -0.34586018       1.83940356      -0.87334278
17
Frame=1 idx=007594 GeodesicLength=0.0724406674094492 rxn_smarts="[C:1]([C@@:2]1([C:3]([C:4]([O:5][H:15])([H:13])[H:14])([H:11])[H:12])[C:6]([H:16])([H:17])[O:7]1)([H:8])([H:9])[H:10]>>[C:1]([C-:2]=[O+:7][C:6]([C:3]([C:4]([O:5][H:15])([H:13])[H:14])([H:11])[H:12])([H:16])[H:17])([H:8])([H:9])[H:10]"
C       -1.54333757      -1.39913260       0.57373054
C       -0.57725457      -0.25293751       0.74908976
C        0.64875292      -0.12948416      -0.66517786
C        1.90330476       0.36808754       0.04411270
O        1.73082772       1.64297764       0.61795029
C       -0.85740164       0.93336778      -0.58582694
O       -1.29857248       0.97554991       0.70306416
H       -1.01619463      -2.33900450       0.40411461
H       -2.05269597      -1.47914703       1.53769718
H       -2.31382058      -1.26639382      -0.19411172
H        0.68140253       0.16535904      -1.72714792
H        0.63053741      -1.21783852      -0.72033698
H        2.72949692       0.46183484      -0.66543253
H        2.17848655      -0.36647493       0.80762474
H        1.06860392       1.53912433       1.31107725
H       -1.55447461       0.51422461      -1.30845289
H       -0.35766070       1.84988739      -0.88197440
17
Frame=2 idx=007594 GeodesicLength=0.14470362059433628 rxn_smarts="[C:1]([C@@:2]1([C:3]([C:4]([O:5][H:15])([H:13])[H:14])([H:11])[H:12])[C:6]([H:16])([H:17])[O:7]1)([H:8])([H:9])[H:10]>>[C:1]([C-:2]=[O+:7][C:6]([C:3]([C:4]([O:5][H:15])([H:13])[H:14])([H:11])[H:12])([H:16])[H:17])([H:8])([H:9])[H:10]"
C       -1.54290284      -1.40328100       0.59328213
C       -0.58315176      -0.24886244       0.73147810
C        0.65592175      -0.11880814      -0.68233776
C        1.90322238       0.35912736       0.05340742
O        1.73553400       1.63308981       0.63025408
C       -0.86153552       0.93529615      -0.60758016
O       -1.30591579       0.97126243       0.68376593
H       -1.01505655      -2.34020757       0.40972273
H       -2.01943540      -1.48823712       1.57353500
H       -2.33595981      -1.27650660      -0.15190346
H        0.71213845       0.19792128      -1.73653800
H        0.63768929      -1.20587592      -0.76324759
H        2.74520977       0.44339361      -0.63837921
H        2.15555533      -0.38293025       0.81799904
H        1.05536862       1.53496633       1.30712741
H       -1.56696258       0.52945408      -1.32963798
H       -0.36971934       1.86019800      -0.89094767
17
Frame=3 idx=007594 GeodesicLength=0.21680580098017482 rxn_smarts="[C:1]([C@@:2]1([C:3]([C:4]([O:5][H:15])([H:13])[H:14])([H:11])[H:12])[C:6]([H:16])([H:17])[O:7]1)([H:8])([H:9])[H:10]>>[C:1]([C-:2]=[O+:7][C:6]([C:3]([C:4]([O:5][H:15])([H:13])[H:14])([H:11])[H:12])([H:16])[H:17])([H:8])([H:9])[H:10]"
C       -1.54192748      -1.40722575       0.61331134
C       -0.58947675      -0.24497146       0.71325009
C        0.66331286      -0.10788070      -0.69957138
C        1.90261265       0.34968560       0.06282151
O        1.73980733       1.62237458       0.64341652
C       -0.86564647       0.93708101      -0.63000423
O       -1.31373870       0.96675931       0.66361932
H       -1.01411097      -2.34132471       0.41541678
H       -1.98410253      -1.49637094       1.60921968
H       -2.35745738      -1.28659198      -0.10789367
H        0.74331858       0.23109760      -1.74482629
H        0.64555797      -1.19301322      -0.80674486
H        2.75993022       0.42439109      -0.61083730
H        2.13176269      -0.40005125       0.82765039
H        1.04163590       1.53032583       1.30307831
H       -1.57943819       0.54540525      -1.35162922
H       -0.38203973       1.87030974      -0.90027699
17
Frame=4 idx=007594 GeodesicLength=0.28876728024474674 rxn_smarts="[C:1]([C@@:2]1([C:3]([C:4]([O:5][H:15])([H:13])[H:14])([H:11])[H:12])[C:6]([H:16])([H:17])[O:7]1)([H:8])([H:9])[H:10]>>[C:1]([C-:2]=[O+:7][C:6]([C:3]([C:4]([O:5][H:15])([H:13])[H:14])([H:11])[H:12])([H:16])[H:17])([H:8])([H:9])[H:10]"
C       -1.54039186      -1.41093595       0.63384137
C       -0.59624422      -0.24131734       0.69435379
C        0.67094396      -0.09669638      -0.71687084
C        1.90144611       0.33975295       0.07234576
O        1.74356946       1.61077504       0.65749946
C       -0.86972476       0.93870152      -0.65313030
O       -1.32204728       0.96199144       0.64258542
H       -1.01344113      -2.34237061       0.42123666
H       -1.94661771      -1.50345290       1.64468647
H       -2.37825760      -1.29658642      -0.06196592
H        0.77492556       0.26489348      -1.75193904
H        0.65424921      -1.17920309      -0.85083327
H        2.77361292       0.40485501      -0.58283210
H        2.10710700      -0.41785972       0.83651487
H        1.02736419       1.52515519       1.29894193
H       -1.59186686       0.56210162      -1.37445794
H       -0.39462698       1.88019617      -0.90997633
17
Frame=5 idx=007594 GeodesicLength=0.3606148487587819 rxn_smarts="[C:1]([C@@:2]1([C:3]([C:4]([O:5][H:15])([H:13])[H:14])([H:11])[H:12])[C:6]([H:16])([H:17])[O:7]1)([H:8])([H:9])[H:10]>>[C:1]([C-:2]=[O+:7][C:6]([C:3]([C:4]([O:5][H:15])([H:13])[H:14])([H:11])[H:12])([H:16])[H:17])([H:8])([H:9])[H:10]"
C       -1.53827282      -1.41437523       0.65489824
C       -0.60347182      -0.23795767       0.67472697
C        0.67883348      -0.08524740      -0.73423037
C        1.89968891       0.32931692       0.08197326
O        1.74672960       1.59822675       0.67256937
C       -0.87376057       0.94013553      -0.67699710
O       -1.33084922       0.95690587       0.62061606
H       -1.01314214      -2.34335897       0.42721555
H       -1.90686710      -1.50939084       1.67987074
H       -2.39830630      -1.30640493      -0.01397475
H        0.80694243       0.29932180      -1.75779865
H        0.66387572      -1.16439087      -0.89552327
H        2.78621563       0.38481160      -0.55437997
H        2.08157768      -0.43638432       0.84452743
H        1.01250202       1.51940084       1.29473078
H       -1.60420972       0.57956251      -1.39816020
H       -0.40748578       1.88982841      -0.92006408
17
Frame=6 idx=007594 GeodesicLength=0.43237453420052036 rxn_smarts="[C:1]([C@@:2]1([C:3]([C:4]([O:5][H:15])([H:13])[H:14])([H:11])[H:12])[C:6]([H:16])([H:17])[O:7]1)([H:8])([H:9])[H:10]>>[C:1]([C-:2]=[O+:7][C:6]([C:3]([C:4]([O:5][H:15])([H:13])[H:14])([H:11])[H:12])([H:16])[H:17])([H:8])([H:9])[H:10]"
C       -1.53553929      -1.41750401       0.67651100
C       -0.61117700      -0.23495857       0.65430094
C        0.68699848      -0.07352327      -0.75164466
C        1.89730504       0.31836204       0.09169287
O        1.74918541       1.58465440       0.68869641
C       -0.87774486       0.94136045      -0.70164346
O       -1.34015246       0.95144152       0.59766147
H       -1.01330867      -2.34431078       0.43342401
H       -1.86475631      -1.51406838       1.71468527
H       -2.41751869      -1.31595664       0.03622189
H        0.83934515       0.33440443      -1.76232046
H        0.67455526      -1.14851163      -0.94083009
H        2.79769332       0.36429156      -0.52550433
H        2.05516822      -0.45566213       0.85160955
H        0.99699418       1.51299691       1.29046215
H       -1.61642444       0.59780658      -1.42277042
H       -0.42062334       1.89917753      -0.93055212
17
Frame=7 idx=007594 GeodesicLength=0.5040822626131494 rxn_smarts="[C:1]([C@@:2]1([C:3]([C:4]([O:5][H:15])([H:13])[H:14])([H:11])[H:12])[C:6]([H:16])([H:17])[O:7]1)([H:8])([H:9])[H:10]>>[C:1]([C-:2]=[O+:7][C:6]([C:3]([C:4]([O:5][H:15])([H:13])[H:14])([H:11])[H:12])([H:16])[H:17])([H:8])([H:9])[H:10]"
C       -1.53215221      -1.42027539       0.69871195
C       -0.61938158      -0.23239222       0.63299454
C        0.69545534      -0.06150975      -0.76911061
C        1.89425229       0.30686687       0.10149474
O        1.75081918       1.56997021       0.70595607
C       -0.88166910       0.94235403      -0.72711585
O       -1.34996843       0.94553226       0.57366171
H       -1.01404199      -2.34524629       0.43993953
H       -1.82016037      -1.51736640       1.74903544
H       -2.43579866      -1.32512840       0.08879113
H        0.87210740       0.37017297      -1.76541266
H        0.68641199      -1.13148833      -0.98677529
H        2.80800178       0.34332139      -0.49622014
H        2.02786164      -0.47574102       0.85767744
H        0.98077394       1.50586748       1.28615483
H       -1.62846416       0.61684913      -1.44832812
H       -0.43404707       1.90821347      -0.94145472
17
Frame=8 idx=007594 GeodesicLength=0.575782433437091 rxn_smarts="[C:1]([C@@:2]1([C:3]([C:4]([O:5][H:15])([H:13])[H:14])([H:11])[H:12])[C:6]([H:16])([H:17])[O:7]1)([H:8])([H:9])[H:10]>>[C:1]([C-:2]=[O+:7][C:6]([C:3]([C:4]([O:5][H:15])([H:13])[H:14])([H:11])[H:12])([H:16])[H:17])([H:8])([H:9])[H:10]"
C       -1.52806079      -1.42263520       0.72153658
C       -0.62811096      -0.23033928       0.61071352
C        0.70421833      -0.04918776      -0.78662671
C        1.89048210       0.29480208       0.11136806
O        1.75149740       1.55406958       0.72442893
C       -0.88552610       0.94309505      -0.75346584
O       -1.36031248       0.93910388       0.54854848
H       -1.01544218      -2.34618852       0.44686809
H       -1.77294302      -1.51914594       1.78280847
H       -2.45302193      -1.33379055       0.14391117
H        0.90519675       0.40667155      -1.76697237
H        0.69957364      -1.11322681      -1.03338853
H        2.81709454       0.32192239      -0.46653859
H        1.99963432      -0.49668142       0.86263665
H        0.96376452       1.49792290       1.28183071
H       -1.64027715       0.63670169      -1.47487645
H       -0.44776699       1.91690637      -0.95278217
17
Frame=9 idx=007594 GeodesicLength=0.6475416828753073 rxn_smarts="[C:1]([C@@:2]1([C:3]([C:4]([O:5][H:15])([H:13])[H:14])([H:11])[H:12])[C:6]([H:16])([H:17])[O:7]1)([H:8])([H:9])[H:10]>>[C:1]([C-:2]=[O+:7][C:6]([C:3]([C:4]([O:5][H:15])([H:13])[H:14])([H:11])[H:12])([H:16])[H:17])([H:8])([H:9])[H:10]"
C       -1.52320099      -1.42451762       0.74502510
C       -0.63740062      -0.22888810       0.58734392
C        0.71330082      -0.03653290      -0.80419340
C        1.88593361       0.28212846       0.12130503
O        1.75106225       1.53682775       0.74420432
C       -0.88930795       0.94356478      -0.78075772
O       -1.37120738       0.93207639       0.52223561
H       -1.01762062      -2.34715607       0.45431879
H       -1.72290583      -1.51926788       1.81588100
H       -2.46904831      -1.34177872       0.20180303
H        0.93858033       0.44395635      -1.76688331
H        0.71417781      -1.09361550      -1.08070337
H        2.82492077       0.30010716      -0.43645587
H        1.97044263      -0.51855987       0.86638410
H        0.94586896       1.48905698       1.27751366
H       -1.65180409       0.65737256      -1.50246999
H       -0.46179137       1.92522624      -0.96455090
17
Frame=10 idx=007594 GeodesicLength=0.7194346487814351 rxn_smarts="[C:1]([C@@:2]1([C:3]([C:4]([O:5][H:15])([H:13])[H:14])([H:11])[H:12])[C:6]([H:16])([H:17])[O:7]1)([H:8])([H:9])[H:10]>>[C:1]([C-:2]=[O+:7][C:6]([C:3]([C:4]([O:5][H:15])([H:13])[H:14])([H:11])[H:12])([H:16])[H:17])([H:8])([H:9])[H:10]"
C       -1.51748773      -1.42584631       0.76922066
C       -0.64728816      -0.22814183       0.56275801
C        0.72271052      -0.02351506      -0.82181139
C        1.88053971       0.26879655       0.13128844
O        1.74933563       1.51809271       0.76537761
C       -0.89300874       0.94374823      -0.80905413
O       -1.38267916       0.92435605       0.49463362
H       -1.02066255      -2.34817602       0.46249007
H       -1.66989999      -1.51753899       1.84808569
H       -2.48366878      -1.34892051       0.26266000
H        0.97220712       0.48209581      -1.76501180
H        0.73036405      -1.07251809      -1.12875889
H        2.83142050       0.27788991      -0.40598095
H        1.94024820      -0.54147176       0.86878677
H        0.92698330       1.47913351       1.27323971
H       -1.66298043       0.67886979      -1.53116256
H       -0.47613349       1.93314601      -0.97676087
17
Frame=11 idx=007594 GeodesicLength=0.7915712943973461 rxn_smarts="[C:1]([C@@:2]1([C:3]([C:4]([O:5][H:15])([H:13])[H:14])([H:11])[H:12])[C:6]([H:16])([H:17])[O:7]1)([H:8])([H:9])[H:10]>>[C:1]([C-:2]=[O+:7][C:6]([C:3]([C:4]([O:5][H:15])([H:13])[H:14])([H:11])[H:12])([H:16])[H:17])([H:8])([H:9])[H:10]"
C       -1.51081329      -1.42652609       0.79417077
C       -0.65782417      -0.22821756       0.53679982
C        0.73245257      -0.01009647      -0.83948295
C        1.87421667       0.25474063       0.14130348
O        1.74610588       1.49767881       0.78805656
C       -0.89662274       0.94363457      -0.83843207
O       -1.39476433       0.91583817       0.46563089
H       -1.02465193      -2.34926850       0.47160389
H       -1.61371086      -1.51374750       1.87923528
H       -2.49664052      -1.35499799       0.32671354
H        1.00602064       0.52117339      -1.76120209
H        0.74828118      -1.04976971      -1.17759881
H        2.83652473       0.25527090      -0.37510621
H        1.90899093      -0.56553612       0.86969480
H        0.90697543       1.46798836       1.26905087
H       -1.67373183       0.70119578      -1.56102414
H       -0.49080835       1.94063932      -0.98941365
17
Frame=12 idx=007594 GeodesicLength=0.8641084936144419 rxn_smarts="[C:1]([C@@:2]1([C:3]([C:4]([O:5][H:15])([H:13])[H:14])([H:11])[H:12])[C:6]([H:16])([H:17])[O:7]1)([H:8])([H:9])[H:10]>>[C:1]([C-:2]=[O+:7][C:6]([C:3]([C:4]([O:5][H:15])([H:13])[H:14])([H:11])[H:12])([H:16])[H:17])([H:8])([H:9])[H:10]"
C       -1.50303954      -1.42643836       0.81992737
C       -0.66907340      -0.22925168       0.50928080
C        0.74252796       0.00377076      -0.85721236
C        1.86686426       0.23987294       0.15133358
O        1.74112517       1.47535393       0.81236616
C       -0.90014709       0.94322006      -0.86898086
O       -1.40751484       0.90640191       0.43509430
H       -1.02964644      -2.35044883       0.48194903
H       -1.55408867      -1.50763374       1.90911178
H       -2.50766499      -1.35975046       0.39420644
H        1.03995176       0.56129297      -1.75527009
H        0.76808573      -1.02516729      -1.22727664
H        2.84015361       0.23223385      -0.34381345
H        1.87659659      -0.59090417       0.86892873
H        0.88568318       1.45541816       1.26499972
H       -1.68397488       0.72434584      -1.59214235
H       -0.50583840       1.94768410      -1.00250216
17
Frame=13 idx=007594 GeodesicLength=0.9372767253259272 rxn_smarts="[C:1]([C@@:2]1([C:3]([C:4]([O:5][H:15])([H:13])[H:14])([H:11])[H:12])[C:6]([H:16])([H:17])[O:7]1)([H:8])([H:9])[H:10]>>[C:1]([C-:2]=[O+:7][C:6]([C:3]([C:4]([O:5][H:15])([H:13])[H:14])([H:11])[H:12])([H:16])[H:17])([H:8])([H:9])[H:10]"
C       -1.49398035      -1.42543730       0.84655358
C       -0.68112802      -0.23140311       0.47995711
C        0.75292841       0.01814562      -0.87500466
C        1.85834205       0.22408046       0.16136046
O        1.73407740       1.45082676       0.83844071
C       -0.90356873       0.94251657      -0.90081149
O       -1.42099120       0.89591071       0.40284688
H       -1.03568919      -2.35171906       0.49388580
H       -1.49069479      -1.49888928       1.93744360
H       -2.51635239      -1.36287876       0.46544325
H        1.07392592       0.60257286      -1.74699175
H        0.78994792      -0.99846696      -1.27783617
H        2.84219136       0.20874947      -0.31206412
H        1.84293549      -0.61776415       0.86626985
H        0.86289921       1.44114543       1.26116042
H       -1.69360976       0.74834348      -1.62463033
H       -0.52123332       1.95426728      -1.01602313
17
Frame=14 idx=007594 GeodesicLength=1.0113900511999074 rxn_smarts="[C:1]([C@@:2]1([C:3]([C:4]([O:5][H:15])([H:13])[H:14])([H:11])[H:12])[C:6]([H:16])([H:17])[O:7]1)([H:8])([H:9])[H:10]>>[C:1]([C-:2]=[O+:7][C:6]([C:3]([C:4]([O:5][H:15])([H:13])[H:14])([H:11])[H:12])([H:16])[H:17])([H:8])([H:9])[H:10]"
C       -1.48340161      -1.42332756       0.87410758
C       -0.69409279      -0.23487286       0.44854628
C        0.76363942       0.03309958      -0.89286364
C        1.84849810       0.20721173       0.17135691
O        1.72460259       1.42372617       0.86644483
C       -0.90688908       0.94153981      -0.93403755
O       -1.43527882       0.88419332       0.36870121
H       -1.04272573      -2.35306978       0.50791910
H       -1.42321965      -1.48708444       1.96390952
H       -2.52222234      -1.36400348       0.54065994
H        1.10783088       0.64515620      -1.73609623
H        0.81404319      -0.96936148      -1.32934494
H        2.84251340       0.18475976      -0.27982219
H        1.80789601      -0.64635412       0.86144432
H        0.83837300       1.42483304       1.25762762
H       -1.70252939       0.77317830      -1.65861805
H       -0.53703718       1.96037583      -1.02993471
17
Frame=15 idx=007594 GeodesicLength=1.0869478876827445 rxn_smarts="[C:1]([C@@:2]1([C:3]([C:4]([O:5][H:15])([H:13])[H:14])([H:11])[H:12])[C:6]([H:16])([H:17])[O:7]1)([H:8])([H:9])[H:10]>>[C:1]([C-:2]=[O+:7][C:6]([C:3]([C:4]([O:5][H:15])([H:13])[H:14])([H:11])[H:12])([H:16])[H:17])([H:8])([H:9])[H:10]"
C       -1.47098132      -1.41985720       0.90265891
C       -0.70812502      -0.23990921       0.41465774
C        0.77463669       0.04871666      -0.91079277
C        1.83711421       0.18906914       0.18130429
O        1.71221549       1.39358063       0.89657018
C       -0.91009896       0.94032661      -0.96881992
O       -1.45048710       0.87105162       0.33238473
H       -1.05068942      -2.35446007       0.52462116
H       -1.35112693      -1.47170376       1.98809681
H       -2.52467245      -1.36263992       0.62024901
H        1.14155194       0.68920039      -1.72224187
H        0.84058090      -0.93748493      -1.38185331
H        2.84094018       0.16018090      -0.24699662
H        1.77128105      -0.67697656       0.85412027
H        0.81175526       1.40600979       1.25454524
H       -1.71060748       0.79888668      -1.69429738
H       -0.55328702       1.96600921      -1.04420649
17
Frame=16 idx=007594 GeodesicLength=1.1647015298319077 rxn_smarts="[C:1]([C@@:2]1([C:3]([C:4]([O:5][H:15])([H:13])[H:14])([H:11])[H:12])[C:6]([H:16])([H:17])[O:7]1)([H:8])([H:9])[H:10]>>[C:1]([C-:2]=[O+:7][C:6]([C:3]([C:4]([O:5][H:15])([H:13])[H:14])([H:11])[H:12])([H:16])[H:17])([H:8])([H:9])[H:10]"
C       -1.45628536      -1.41467534       0.93228383
C       -0.72343179      -0.24682488       0.37780904
C        0.78587535       0.06511193      -0.92878399
C        1.82390079       0.16937365       0.19117204
O        1.69631916       1.35974273       0.92904159
C       -0.91318672       0.93893412      -1.00533441
O       -1.46676377       0.85622588       0.29356973
H       -1.05931648      -2.35577421       0.54480113
H       -1.27382374      -1.45204194       2.00950322
H       -2.52290447      -1.35819627       0.70453801
H        1.17493043       0.73490719      -1.70498385
H        0.86976985      -0.90234672      -1.43542050
H        2.83722328       0.13485258      -0.21347251
H        1.73282751      -0.71002628       0.84386900
H        0.78258710       1.38406443       1.25206133
H       -1.71768239       0.82550517      -1.73189256
H       -0.57003875       1.97116797      -1.05876110
