12
Frame=0 idx=002009 GeodesicLength=0.0 rxn_smarts="[C:1]([C:2]#[C:3][C:4]([C:5](=[O:6])[H:12])([H:10])[H:11])([H:7])([H:8])[H:9]>>[C:1]([C:2](=[C:3])[C:4]([C:5](=[O:6])[H:12])([H:10])[H:11])([H:7])([H:8])[H:9]"
C        1.73961903      -0.26056233       0.53823441
C        0.77120908       0.61443801      -0.12673936
C        0.16221279       1.41803139      -0.87778863
C       -0.96997564       0.46654226       0.15542427
C       -1.63622566      -0.44410451      -0.83867888
O       -1.55713821      -1.64075249      -0.77816599
H        1.77573642      -0.08327916       1.61405567
H        2.72419530      -0.05459513       0.11855448
H        1.49890268      -1.30885121       0.35363588
H       -1.57353844       1.32722027       0.43031916
H       -0.75745312      -0.09653951       1.06950576
H       -2.17754422       0.06245245      -1.65835678
12
Frame=1 idx=002009 GeodesicLength=0.05443853922275834 rxn_smarts="[C:1]([C:2]#[C:3][C:4]([C:5](=[O:6])[H:12])([H:10])[H:11])([H:7])([H:8])[H:9]>>[C:1]([C:2](=[C:3])[C:4]([C:5](=[O:6])[H:12])([H:10])[H:11])([H:7])([H:8])[H:9]"
C        1.75226284      -0.26350036       0.53070744
C        0.77324511       0.61522736      -0.11370637
C        0.16556572       1.43123911      -0.84956331
C       -0.98126826       0.47048925       0.15694419
C       -1.63701740      -0.44815324      -0.83788853
O       -1.59449782      -1.64437002      -0.74514324
H        1.79309340      -0.10151418       1.60877996
H        2.73320555      -0.04560587       0.10851461
H        1.51640288      -1.31049024       0.33299927
H       -1.59629380       1.32897731       0.41545086
H       -0.78696815      -0.08222942       1.08123299
H       -2.13773007       0.04993030      -1.68832786
12
Frame=2 idx=002009 GeodesicLength=0.10910576442845302 rxn_smarts="[C:1]([C:2]#[C:3][C:4]([C:5](=[O:6])[H:12])([H:10])[H:11])([H:7])([H:8])[H:9]>>[C:1]([C:2](=[C:3])[C:4]([C:5](=[O:6])[H:12])([H:10])[H:11])([H:7])([H:8])[H:9]"
C        1.76522726      -0.26636024       0.52284880
C        0.77517208       0.61574342      -0.09997720
C        0.16894830       1.44408171      -0.82036764
C       -0.99282760       0.47453036       0.15851603
C       -1.63767750      -0.45252557      -0.83676832
O       -1.63441789      -1.64637420      -0.71219711
H        1.81060671      -0.12080061       1.60309032
H        2.74236290      -0.03551656       0.09868978
H        1.53472622      -1.31175177       0.31094073
H       -1.61901069       1.33092606       0.39946916
H       -0.81775761      -0.06725294       1.09295105
H       -2.09535218       0.03530035      -1.71719559
12
Frame=3 idx=002009 GeodesicLength=0.1640078825369988 rxn_smarts="[C:1]([C:2]#[C:3][C:4]([C:5](=[O:6])[H:12])([H:10])[H:11])([H:7])([H:8])[H:9]>>[C:1]([C:2](=[C:3])[C:4]([C:5](=[O:6])[H:12])([H:10])[H:11])([H:7])([H:8])[H:9]"
C        1.77853267      -0.26911685       0.51466383
C        0.77699379       0.61593291      -0.08551851
C        0.17236571       1.45645214      -0.79022535
C       -1.00465023       0.47865229       0.16012952
C       -1.63823730      -0.45725545      -0.83526759
O       -1.67693482      -1.64659772      -0.67960493
H        1.82829722      -0.14116247       1.59694960
H        2.75167461      -0.02426905       0.08916526
H        1.55392599      -1.31255622       0.28742293
H       -1.64158807       1.33308507       0.38229571
H       -0.84988880      -0.05158256       1.10460636
H       -2.05049078       0.01841791      -1.74461684
12
Frame=4 idx=002009 GeodesicLength=0.21919634135710064 rxn_smarts="[C:1]([C:2]#[C:3][C:4]([C:5](=[O:6])[H:12])([H:10])[H:11])([H:7])([H:8])[H:9]>>[C:1]([C:2](=[C:3])[C:4]([C:5](=[O:6])[H:12])([H:10])[H:11])([H:7])([H:8])[H:9]"
C        1.79223371      -0.27173239       0.50619034
C        0.77873181       0.61572429      -0.07031799
C        0.17583483       1.46824167      -0.75919013
C       -1.01672245       0.48281455       0.16176824
C       -1.63875393      -0.46238576      -0.83337822
O       -1.72212345      -1.64491604      -0.64774585
H        1.84626237      -0.16252632       1.59035403
H        2.76117430      -0.01181605       0.08001579
H        1.57406532      -1.31283949       0.26252632
H       -1.66389679       1.33545651       0.36386013
H       -0.88341626      -0.03525225       1.11613372
H       -2.00338947      -0.00076870      -1.77021638
12
Frame=5 idx=002009 GeodesicLength=0.2745017977216307 rxn_smarts="[C:1]([C:2]#[C:3][C:4]([C:5](=[O:6])[H:12])([H:10])[H:11])([H:7])([H:8])[H:9]>>[C:1]([C:2](=[C:3])[C:4]([C:5](=[O:6])[H:12])([H:10])[H:11])([H:7])([H:8])[H:9]"
C        1.80622593      -0.27422876       0.49732093
C        0.78033541       0.61512888      -0.05423120
C        0.17933740       1.47934024      -0.72722445
C       -1.02906935       0.48710544       0.16345633
C       -1.63917372      -0.46794198      -0.83087116
O       -1.76969186      -1.64108501      -0.61660928
H        1.86427760      -0.18530907       1.58312832
H        2.77076140       0.00193326       0.07139774
H        1.59514208      -1.31241922       0.23576004
H       -1.68589313       1.33812660       0.34403482
H       -0.91847299      -0.01796247       1.12751645
H       -1.95377876      -0.02268791      -1.79367855
12
Frame=6 idx=002009 GeodesicLength=0.330059236222517 rxn_smarts="[C:1]([C:2]#[C:3][C:4]([C:5](=[O:6])[H:12])([H:10])[H:11])([H:7])([H:8])[H:9]>>[C:1]([C:2](=[C:3])[C:4]([C:5](=[O:6])[H:12])([H:10])[H:11])([H:7])([H:8])[H:9]"
C        1.82063874      -0.27653388       0.48817077
C        0.78185794       0.61399658      -0.03733044
C        0.18290444       1.48964850      -0.69443002
C       -1.04165078       0.49141289       0.16516786
C       -1.63964345      -0.47396616      -0.82784254
O       -1.81981966      -1.63506942      -0.58682481
H        1.88263445      -0.20913690       1.57533364
H        2.78051560       0.01696415       0.06333342
H        1.61723923      -1.31127207       0.20754788
H       -1.70736137       1.34105057       0.32282997
H       -0.95506268       0.00008089       1.13864924
H       -1.90225246      -0.04717514      -1.81460497
12
Frame=7 idx=002009 GeodesicLength=0.38580710900495196 rxn_smarts="[C:1]([C:2]#[C:3][C:4]([C:5](=[O:6])[H:12])([H:10])[H:11])([H:7])([H:8])[H:9]>>[C:1]([C:2](=[C:3])[C:4]([C:5](=[O:6])[H:12])([H:10])[H:11])([H:7])([H:8])[H:9]"
C        1.83549864      -0.27860241       0.47876631
C        0.78329869       0.61217456      -0.01962535
C        0.18653403       1.49897868      -0.66080052
C       -1.05445193       0.49566323       0.16688251
C       -1.64019540      -0.48046108      -0.82424524
O       -1.87242227      -1.62667639      -0.55880421
H        1.90144184      -0.23382926       1.56688418
H        2.79041347       0.03323513       0.05584241
H        1.64039149      -1.30928145       0.17807024
H       -1.72816169       1.34414539       0.30020551
H       -0.99324648       0.01885295       1.14937464
H       -1.84910040      -0.07419937      -1.83255048
12
Frame=8 idx=002009 GeodesicLength=0.44177696882917467 rxn_smarts="[C:1]([C:2]#[C:3][C:4]([C:5](=[O:6])[H:12])([H:10])[H:11])([H:7])([H:8])[H:9]>>[C:1]([C:2](=[C:3])[C:4]([C:5](=[O:6])[H:12])([H:10])[H:11])([H:7])([H:8])[H:9]"
C        1.85086431      -0.28039486       0.46915693
C        0.78468639       0.60956065      -0.00111471
C        0.19024119       1.50723424      -0.62635892
C       -1.06745966       0.49979874       0.16859465
C       -1.64091057      -0.48746772      -0.82006471
O       -1.92740862      -1.61584105      -0.53298411
H        1.92090396      -0.25920980       1.55777410
H        2.80046922       0.05070657       0.04891496
H        1.66459678      -1.30638750       0.14753769
H       -1.74814897       1.34736865       0.27612685
H       -1.03306874       0.03832374       1.15959696
H       -1.79476528      -0.10369164      -1.84717969
12
Frame=9 idx=002009 GeodesicLength=0.4977405818049134 rxn_smarts="[C:1]([C:2]#[C:3][C:4]([C:5](=[O:6])[H:12])([H:10])[H:11])([H:7])([H:8])[H:9]>>[C:1]([C:2](=[C:3])[C:4]([C:5](=[O:6])[H:12])([H:10])[H:11])([H:7])([H:8])[H:9]"
C        1.86654128      -0.28198056       0.45914729
C        0.78594387       0.60623571       0.01840749
C        0.19402467       1.51438538      -0.59115171
C       -1.08068302       0.50405588       0.17035089
C       -1.64171895      -0.49507948      -0.81491095
O       -1.98428550      -1.60244004      -0.50897069
H        1.94035289      -0.28641480       1.54772484
H        2.81056009       0.06977286       0.04320782
H        1.69003586      -1.30223446       0.11464896
H       -1.76722025       1.35099400       0.25036218
H       -1.07466628       0.05915149       1.16938482
H       -1.73888467      -0.13644598      -1.85820094
12
Frame=10 idx=002009 GeodesicLength=0.5538197192127325 rxn_smarts="[C:1]([C:2]#[C:3][C:4]([C:5](=[O:6])[H:12])([H:10])[H:11])([H:7])([H:8])[H:9]>>[C:1]([C:2](=[C:3])[C:4]([C:5](=[O:6])[H:12])([H:10])[H:11])([H:7])([H:8])[H:9]"
C        1.88272819      -0.28323465       0.44896663
C        0.78716016       0.60189376       0.03873883
C        0.19790291       1.52028234      -0.55512221
C       -1.09407027       0.50814075       0.17212318
C       -1.64283291      -0.50325577      -0.80904356
O       -2.04307630      -1.58648837      -0.48786974
H        1.96065876      -0.31413604       1.53686553
H        2.82071721       0.08994840       0.03815005
H        1.71649637      -1.29695678       0.08087967
H       -1.78513331       1.35469653       0.22311580
H       -1.11796831       0.08078496       1.17845806
H       -1.68258250      -0.17167513      -1.86526226
12
Frame=11 idx=002009 GeodesicLength=0.6099165855876486 rxn_smarts="[C:1]([C:2]#[C:3][C:4]([C:5](=[O:6])[H:12])([H:10])[H:11])([H:7])([H:8])[H:9]>>[C:1]([C:2](=[C:3])[C:4]([C:5](=[O:6])[H:12])([H:10])[H:11])([H:7])([H:8])[H:9]"
C        1.89940147      -0.28414482       0.43859505
C        0.78831604       0.59641411       0.05989419
C        0.20183961       1.52479627      -0.51820865
C       -1.10762014       0.51203583       0.17392216
C       -1.64426926      -0.51200600      -0.80232631
O       -2.10346594      -1.56787376      -0.46989978
H        1.98185304      -0.34238512       1.52506883
H        2.83087302       0.11120885       0.03380121
H        1.74397771      -1.29042169       0.04619862
H       -1.80177047       1.35841872       0.19433414
H       -1.16302600       0.10335572       1.18666313
H       -1.62610907      -0.20939811      -1.86804259
12
Frame=12 idx=002009 GeodesicLength=0.6661004156578834 rxn_smarts="[C:1]([C:2]#[C:3][C:4]([C:5](=[O:6])[H:12])([H:10])[H:11])([H:7])([H:8])[H:9]>>[C:1]([C:2](=[C:3])[C:4]([C:5](=[O:6])[H:12])([H:10])[H:11])([H:7])([H:8])[H:9]"
C        1.91661562      -0.28466129       0.42810703
C        0.78946888       0.58967305       0.08182694
C        0.20587192       1.52792536      -0.48032179
C       -1.12130737       0.51564910       0.17579424
C       -1.64614875      -0.52137287      -0.79481359
O       -2.16525000      -1.54669798      -0.45557300
H        2.00433092      -0.37064979       1.51241157
H        2.84100703       0.13335008       0.02985535
H        1.77229759      -1.28270141       0.01114680
H       -1.81694561       1.36206004       0.16412846
H       -1.20983230       0.12675161       1.19392113
H       -1.57010794      -0.24932590      -1.86648315
12
Frame=13 idx=002009 GeodesicLength=0.7220603402051912 rxn_smarts="[C:1]([C:2]#[C:3][C:4]([C:5](=[O:6])[H:12])([H:10])[H:11])([H:7])([H:8])[H:9]>>[C:1]([C:2](=[C:3])[C:4]([C:5](=[O:6])[H:12])([H:10])[H:11])([H:7])([H:8])[H:9]"
C        1.93404495      -0.28491856       0.41712544
C        0.79049661       0.58178924       0.10468160
C        0.20999693       1.52953554      -0.44182268
C       -1.13512055       0.51947419       0.17767104
C       -1.64842223      -0.53155013      -0.78562626
O       -2.22774191      -1.52282806      -0.44346762
H        2.02611880      -0.40201351       1.49814382
H        2.85111104       0.15765540       0.02879799
H        1.80241935      -1.27261778      -0.02764139
H       -1.83046234       1.36609560       0.13175198
H       -1.25848344       0.15246898       1.20019653
H       -1.51395721      -0.29309091      -1.85981046
12
Frame=14 idx=002009 GeodesicLength=0.7780458602328691 rxn_smarts="[C:1]([C:2]#[C:3][C:4]([C:5](=[O:6])[H:12])([H:10])[H:11])([H:7])([H:8])[H:9]>>[C:1]([C:2](=[C:3])[C:4]([C:5](=[O:6])[H:12])([H:10])[H:11])([H:7])([H:8])[H:9]"
C        1.95196660      -0.28473432       0.40605201
C        0.79156780       0.57239476       0.12816166
C        0.21423176       1.52967628      -0.40219942
C       -1.14901529       0.52296265       0.17967933
C       -1.65139981      -0.54235108      -0.77548793
O       -2.29088766      -1.49654786      -0.43552280
H        2.04936086      -0.43315633       1.48281319
H        2.86106992       0.18263566       0.02824456
H        1.83322616      -1.26107788      -0.06657689
H       -1.84209605       1.36989452       0.09802939
H       -1.30880713       0.17918766       1.20522337
H       -1.45921717      -0.33888405      -1.84841648
12
Frame=15 idx=002009 GeodesicLength=0.8338800379663849 rxn_smarts="[C:1]([C:2]#[C:3][C:4]([C:5](=[O:6])[H:12])([H:10])[H:11])([H:7])([H:8])[H:9]>>[C:1]([C:2](=[C:3])[C:4]([C:5](=[O:6])[H:12])([H:10])[H:11])([H:7])([H:8])[H:9]"
C        1.97026261      -0.28413064       0.39478800
C        0.79262543       0.56139321       0.15223667
C        0.21845787       1.52820835      -0.36135096
C       -1.16299513       0.52617225       0.18182530
C       -1.65508732      -0.55374855      -0.76410814
O       -2.35412098      -1.46777789      -0.43160395
H        2.07374574      -0.46451988       1.46614485
H        2.87077008       0.20840547       0.02859412
H        1.86479454      -1.24778728      -0.10617675
H       -1.85171448       1.37340146       0.06282672
H       -1.36079919       0.20728130       1.20874953
H       -1.40593916      -0.38689780      -1.83192539
12
Frame=16 idx=002009 GeodesicLength=0.8893907097467397 rxn_smarts="[C:1]([C:2]#[C:3][C:4]([C:5](=[O:6])[H:12])([H:10])[H:11])([H:7])([H:8])[H:9]>>[C:1]([C:2](=[C:3])[C:4]([C:5](=[O:6])[H:12])([H:10])[H:11])([H:7])([H:8])[H:9]"
C        1.98886340      -0.28308356       0.38336507
C        0.79364063       0.54863592       0.17682346
C        0.22252372       1.52509017      -0.31895422
C       -1.17702339       0.52898234       0.18417960
C       -1.65946616      -0.56567441      -0.75150539
O       -2.41694344      -1.43652789      -0.43219080
H        2.09972093      -0.49530561       1.44815254
H        2.87996638       0.23456050       0.02917570
H        1.89672055      -1.23298492      -0.14563219
H       -1.85913755       1.37640216       0.02635949
H       -1.41434329       0.23658542       1.21051311
H       -1.35452178      -0.43668013      -1.81028638
