8
Frame=0 idx=001239 GeodesicLength=0.0 rxn_smarts="[n:1]1([H:6])[c:2]([H:7])[n:3][n:4][c:5]1[H:8]>>[n+:1]1([H:6])[c-:2][n:3]([H:7])[n:4][c:5]1[H:8]"
N       -0.03069345       0.84892964      -0.12925798
C        1.14163581       0.20469402      -0.41027761
N        0.83697984      -1.11969240      -0.24779351
N       -0.49633999      -1.27977854       0.11679233
C       -0.98709089      -0.08566015       0.11627319
H       -0.16205971       1.84413475      -0.16018049
H        1.72736725      -0.56081669       0.44387103
H       -2.02979886       0.14818936       0.27057304
8
Frame=1 idx=001239 GeodesicLength=0.03095825071953142 rxn_smarts="[n:1]1([H:6])[c:2]([H:7])[n:3][n:4][c:5]1[H:8]>>[n+:1]1([H:6])[c-:2][n:3]([H:7])[n:4][c:5]1[H:8]"
N       -0.03233306       0.84934718      -0.12704063
C        1.13766457       0.20314326      -0.41125835
N        0.83401916      -1.11734809      -0.24503363
N       -0.49621342      -1.27797788       0.12479080
C       -0.99009074      -0.08491962       0.11604877
H       -0.16188355       1.84478332      -0.15570867
H        1.74323219      -0.56492358       0.43812020
H       -2.03439515       0.14789541       0.26008151
8
Frame=2 idx=001239 GeodesicLength=0.06190786358994772 rxn_smarts="[n:1]1([H:6])[c:2]([H:7])[n:3][n:4][c:5]1[H:8]>>[n+:1]1([H:6])[c-:2][n:3]([H:7])[n:4][c:5]1[H:8]"
N       -0.03403349       0.84977606      -0.12482512
C        1.13357871       0.20156133      -0.41228239
N        0.83098498      -1.11500814      -0.24198110
N       -0.49605790      -1.27604293       0.13341089
C       -0.99312894      -0.08413963       0.11600127
H       -0.16163051       1.84546203      -0.15077176
H        1.75937086      -0.56910156       0.43169322
H       -2.03908370       0.14749285       0.24875500
8
Frame=3 idx=001239 GeodesicLength=0.09286052983920136 rxn_smarts="[n:1]1([H:6])[c:2]([H:7])[n:3][n:4][c:5]1[H:8]>>[n+:1]1([H:6])[c-:2][n:3]([H:7])[n:4][c:5]1[H:8]"
N       -0.03579208       0.85022134      -0.12273943
C        1.12955227       0.20002973      -0.41299531
N        0.82799819      -1.11262696      -0.23867018
N       -0.49595265      -1.27403147       0.14190141
C       -0.99627260      -0.08338020       0.11549886
H       -0.16143021       1.84614763      -0.14589912
H        1.77555349      -0.57342249       0.42509147
H       -2.04365642       0.14706241       0.23781231
8
Frame=4 idx=001239 GeodesicLength=0.12381191442370393 rxn_smarts="[n:1]1([H:6])[c:2]([H:7])[n:3][n:4][c:5]1[H:8]>>[n+:1]1([H:6])[c-:2][n:3]([H:7])[n:4][c:5]1[H:8]"
N       -0.03761455       0.85067891      -0.12086679
C        1.12565009       0.19857575      -0.41327845
N        0.82510786      -1.11019035      -0.23510717
N       -0.49592806      -1.27197489       0.14997251
C       -0.99952757      -0.08266893       0.11433146
H       -0.16132602       1.84682835      -0.14126065
H        1.79169506      -0.57789884       0.41850888
H       -2.04805681       0.14664999       0.22770021
8
Frame=5 idx=001239 GeodesicLength=0.1547703634462749 rxn_smarts="[n:1]1([H:6])[c:2]([H:7])[n:3][n:4][c:5]1[H:8]>>[n+:1]1([H:6])[c-:2][n:3]([H:7])[n:4][c:5]1[H:8]"
N       -0.03950320       0.85114459      -0.11926146
C        1.12192236       0.19722122      -0.41305164
N        0.82235063      -1.10768701      -0.23130363
N       -0.49601047      -1.26990221       0.15741009
C       -1.00289334      -0.08203174       0.11237969
H       -0.16135289       1.84749579      -0.13698379
H        1.80774886      -0.58253997       0.41208725
H       -2.05226195       0.14629933       0.21872348
8
Frame=6 idx=001239 GeodesicLength=0.1856902497525191 rxn_smarts="[n:1]1([H:6])[c:2]([H:7])[n:3][n:4][c:5]1[H:8]>>[n+:1]1([H:6])[c-:2][n:3]([H:7])[n:4][c:5]1[H:8]"
N       -0.04146442       0.85161823      -0.11793684
C        1.11837443       0.19596931      -0.41230967
N        0.81973518      -1.10511717      -0.22726381
N       -0.49619479      -1.26782600       0.16419784
C       -1.00633835      -0.08145621       0.10970142
H       -0.16152106       1.84815033      -0.13307338
H        1.82370972      -0.58735710       0.40582398
H       -2.05630071       0.14601862       0.21086045
8
Frame=7 idx=001239 GeodesicLength=0.21660192311379156 rxn_smarts="[n:1]1([H:6])[c:2]([H:7])[n:3][n:4][c:5]1[H:8]>>[n+:1]1([H:6])[c-:2][n:3]([H:7])[n:4][c:5]1[H:8]"
N       -0.04347711       0.85211053      -0.11667602
C        1.11489739       0.19478919      -0.41122836
N        0.81716510      -1.10248963      -0.22297907
N       -0.49644654      -1.26569120       0.17083986
C       -1.00982313      -0.08091991       0.10676342
H       -0.16178889       1.84880810      -0.12928819
H        1.83975221      -0.59235528       0.39932732
H       -2.06027903       0.14574821       0.20324104
8
Frame=8 idx=001239 GeodesicLength=0.24753478272383858 rxn_smarts="[n:1]1([H:6])[c:2]([H:7])[n:3][n:4][c:5]1[H:8]>>[n+:1]1([H:6])[c-:2][n:3]([H:7])[n:4][c:5]1[H:8]"
N       -0.04555749       0.85261289      -0.11565381
C        1.11160149       0.19371941      -0.40963799
N        0.81473547      -1.09978994      -0.21846329
N       -0.49680562      -1.26356181       0.17685633
C       -1.01337153      -0.08044598       0.10318240
H       -0.16221575       1.84945115      -0.12587708
H        1.85575465      -0.59754985       0.39295094
H       -2.06414121       0.14556414       0.19664250
8
Frame=9 idx=001239 GeodesicLength=0.2784454911642301 rxn_smarts="[n:1]1([H:6])[c:2]([H:7])[n:3][n:4][c:5]1[H:8]>>[n+:1]1([H:6])[c-:2][n:3]([H:7])[n:4][c:5]1[H:8]"
N       -0.04771796       0.85310999      -0.11498378
C        1.10854584       0.19277370      -0.40746182
N        0.81249627      -1.09701522      -0.21371567
N       -0.49729613      -1.26147743       0.18200135
C       -1.01700442      -0.08009163       0.09864252
H       -0.16282643       1.85006903      -0.12293885
H        1.87163134      -0.60291101       0.38690653
H       -2.06782851       0.14554257       0.19154973
8
Frame=10 idx=001239 GeodesicLength=0.30932018006427103 rxn_smarts="[n:1]1([H:6])[c:2]([H:7])[n:3][n:4][c:5]1[H:8]>>[n+:1]1([H:6])[c-:2][n:3]([H:7])[n:4][c:5]1[H:8]"
N       -0.04996805       0.85359873      -0.11471002
C        1.10571446       0.19197229      -0.40465781
N        0.81041666      -1.09414716      -0.20872534
N       -0.49793745      -1.25943453       0.18627927
C       -1.02073563      -0.07984152       0.09313326
H       -0.16362624       1.85065895      -0.12046357
H        1.88738296      -0.60845693       0.38117779
H       -2.07124669       0.14565017       0.18796641
8
Frame=11 idx=001239 GeodesicLength=0.3401624875884962 rxn_smarts="[n:1]1([H:6])[c:2]([H:7])[n:3][n:4][c:5]1[H:8]>>[n+:1]1([H:6])[c-:2][n:3]([H:7])[n:4][c:5]1[H:8]"
N       -0.05228614       0.85409599      -0.11460373
C        1.10302463       0.19126883      -0.40141091
N        0.80844754      -1.09121391      -0.20348679
N       -0.49867060      -1.25739515       0.19012464
C       -1.02450258      -0.07966543       0.08710120
H       -0.16457963       1.85124212      -0.11825361
H        1.90315491      -0.61418946       0.37542374
H       -2.07458813       0.14585703       0.18510545
8
Frame=12 idx=001239 GeodesicLength=0.3709966781370543 rxn_smarts="[n:1]1([H:6])[c:2]([H:7])[n:3][n:4][c:5]1[H:8]>>[n+:1]1([H:6])[c-:2][n:3]([H:7])[n:4][c:5]1[H:8]"
N       -0.05466428       0.85461973      -0.11452353
C        1.10038443       0.19064337      -0.39783807
N        0.80650588      -1.08821733      -0.19797138
N       -0.49946591      -1.25530214       0.19395490
C       -1.02826188      -0.07949946       0.08101648
H       -0.16564976       1.85183609      -0.11610485
H        1.91907611      -0.62014319       0.36928149
H       -2.07792458       0.14606293       0.18218497
8
Frame=13 idx=001239 GeodesicLength=0.4018473900717063 rxn_smarts="[n:1]1([H:6])[c:2]([H:7])[n:3][n:4][c:5]1[H:8]>>[n+:1]1([H:6])[c-:2][n:3]([H:7])[n:4][c:5]1[H:8]"
N       -0.05710538       0.85517348      -0.11444410
C        1.09774899       0.19007792      -0.39399152
N        0.80456901      -1.08516152      -0.19212723
N       -0.50030113      -1.25313077       0.19796689
C       -1.03201519      -0.07932952       0.07501422
H       -0.16679960       1.85245562      -0.11388512
H        1.93520686      -0.62631988       0.36257638
H       -2.08130356       0.14623468       0.17889048
8
Frame=14 idx=001239 GeodesicLength=0.43269503631355233 rxn_smarts="[n:1]1([H:6])[c:2]([H:7])[n:3][n:4][c:5]1[H:8]>>[n+:1]1([H:6])[c-:2][n:3]([H:7])[n:4][c:5]1[H:8]"
N       -0.05962659       0.85575222      -0.11445875
C        1.09511318       0.18955831      -0.38990843
N        0.80263413      -1.08204712      -0.18588699
N       -0.50117055      -1.25085470       0.20228290
C       -1.03576424      -0.07915585       0.06905947
H       -0.16800004       1.85309196      -0.11143966
H        1.95155819      -0.63270476       0.35522641
H       -2.08474409       0.14635994       0.17512503
8
Frame=15 idx=001239 GeodesicLength=0.4635323624099287 rxn_smarts="[n:1]1([H:6])[c:2]([H:7])[n:3][n:4][c:5]1[H:8]>>[n+:1]1([H:6])[c-:2][n:3]([H:7])[n:4][c:5]1[H:8]"
N       -0.06222552       0.85635425      -0.11459990
C        1.09254538       0.18912824      -0.38541969
N        0.80074648      -1.07885243      -0.17928037
N       -0.50210788      -1.24851993       0.20656260
C       -1.03952112      -0.07901262       0.06291509
H       -0.16931779       1.85373858      -0.10901742
H        1.96804044      -0.63932754       0.34743857
H       -2.08815998       0.14649145       0.17140113
8
Frame=16 idx=001239 GeodesicLength=0.494367921579562 rxn_smarts="[n:1]1([H:6])[c:2]([H:7])[n:3][n:4][c:5]1[H:8]>>[n+:1]1([H:6])[c-:2][n:3]([H:7])[n:4][c:5]1[H:8]"
N       -0.06489934       0.85699275      -0.11479928
C        1.08999489       0.18876990      -0.38059674
N        0.79887141      -1.07557988      -0.17224339
N       -0.50308490      -1.24608496       0.21110607
C       -1.04326489      -0.07886704       0.05684298
H       -0.17071943       1.85441187      -0.10644917
H        1.98473385      -0.64621265       0.33893640
H       -2.09163159       0.14657002       0.16720313
