12
Frame=0 idx=003863 GeodesicLength=0.0 rxn_smarts="[O:1]([C@@:2]1([H:8])[C:3]([H:9])([H:10])[C:4]([H:11])([H:12])[C:5]1=[O:6])[H:7]>>[O:1]([C:2]1=[C:5]([O:6][H:8])[C:4]([H:11])([H:12])[C:3]1([H:9])[H:10])[H:7]"
O        1.98996232      -0.38679160       0.74653103
C        0.75536724      -0.15385284       0.32754852
C       -0.55833892      -0.46564362       0.96974291
C       -1.21005232       0.31050954      -0.21808077
C        0.20281989       0.43774632      -0.80120399
O        0.73164180       1.01094333      -1.89234246
H        2.60303880       0.10155981       0.18312462
H        0.56030299      -0.37304647      -1.57396500
H       -0.81787073      -1.52186154       1.05266938
H       -0.68911693       0.01270756       1.94285182
H       -1.63613268       1.26705886       0.08397039
H       -1.93162141      -0.23932940      -0.82084645
12
Frame=1 idx=003863 GeodesicLength=0.08944491418657288 rxn_smarts="[O:1]([C@@:2]1([H:8])[C:3]([H:9])([H:10])[C:4]([H:11])([H:12])[C:5]1=[O:6])[H:7]>>[O:1]([C:2]1=[C:5]([O:6][H:8])[C:4]([H:11])([H:12])[C:3]1([H:9])[H:10])[H:7]"
O        1.99256484      -0.38593727       0.74345264
C        0.75512169      -0.18529425       0.30910664
C       -0.55885027      -0.46852971       0.96659420
C       -1.21169089       0.31511563      -0.21519969
C        0.19927199       0.44949782      -0.79608096
O        0.73581121       1.00493578      -1.88695339
H        2.59750622       0.12702088       0.19365022
H        0.56879383      -0.38640235      -1.57874764
H       -0.83351291      -1.52028826       1.05598180
H       -0.67253433       0.01560333       1.93889526
H       -1.64096825       1.26949401       0.08922808
H       -1.93151313      -0.23521560      -0.81992716
12
Frame=2 idx=003863 GeodesicLength=0.17889151305809967 rxn_smarts="[O:1]([C@@:2]1([H:8])[C:3]([H:9])([H:10])[C:4]([H:11])([H:12])[C:5]1=[O:6])[H:7]>>[O:1]([C:2]1=[C:5]([O:6][H:8])[C:4]([H:11])([H:12])[C:3]1([H:9])[H:10])[H:7]"
O        1.99408537      -0.38603439       0.73977274
C        0.75472169      -0.21471862       0.29071885
C       -0.55875360      -0.47105294       0.96339326
C       -1.21311377       0.31977026      -0.21230512
C        0.19623290       0.46195486      -0.79017804
O        0.73934883       0.99868358      -1.88164328
H        2.59071275       0.15119114       0.20465647
H        0.57751915      -0.40002845      -1.58362646
H       -0.84778667      -1.51829156       1.05918064
H       -0.65593862       0.01832677       1.93476389
H       -1.64628930       1.27166574       0.09440714
H       -1.93073872      -0.23146639      -0.81914008
12
Frame=3 idx=003863 GeodesicLength=0.2683342068198495 rxn_smarts="[O:1]([C@@:2]1([H:8])[C:3]([H:9])([H:10])[C:4]([H:11])([H:12])[C:5]1=[O:6])[H:7]>>[O:1]([C:2]1=[C:5]([O:6][H:8])[C:4]([H:11])([H:12])[C:3]1([H:9])[H:10])[H:7]"
O        1.99476558      -0.38705087       0.73552407
C        0.75417052      -0.24148127       0.27274335
C       -0.55816716      -0.47314046       0.96017962
C       -1.21443521       0.32446639      -0.20942807
C        0.19360268       0.47536686      -0.78341614
O        0.74217388       0.99219501      -1.87641050
H        2.58310466       0.17330796       0.21559260
H        0.58666442      -0.41388801      -1.58830715
H       -0.86047782      -1.51594239       1.06214189
H       -0.63973901       0.02088290       1.93054611
H       -1.65240119       1.27348796       0.09941792
H       -1.92926136      -0.22820409      -0.81858370
12
Frame=4 idx=003863 GeodesicLength=0.35776648680874146 rxn_smarts="[O:1]([C@@:2]1([H:8])[C:3]([H:9])([H:10])[C:4]([H:11])([H:12])[C:5]1=[O:6])[H:7]>>[O:1]([C:2]1=[C:5]([O:6][H:8])[C:4]([H:11])([H:12])[C:3]1([H:9])[H:10])[H:7]"
O        1.99483734      -0.38876345       0.73084934
C        0.75347650      -0.26542010       0.25534253
C       -0.55722379      -0.47480282       0.95696912
C       -1.21572851       0.32922543      -0.20657988
C        0.19130669       0.48984409      -0.77576079
O        0.74422187       0.98542111      -1.87124549
H        2.57509842       0.19306644       0.22607934
H        0.59632462      -0.42802703      -1.59265792
H       -0.87160933      -1.51334548       1.06476091
H       -0.62417660       0.02324460       1.92631109
H       -1.65941078       1.27495143       0.10424762
H       -1.92711642      -0.22539420      -0.81831587
12
Frame=5 idx=003863 GeodesicLength=0.44719304758179323 rxn_smarts="[O:1]([C@@:2]1([H:8])[C:3]([H:9])([H:10])[C:4]([H:11])([H:12])[C:5]1=[O:6])[H:7]>>[O:1]([C:2]1=[C:5]([O:6][H:8])[C:4]([H:11])([H:12])[C:3]1([H:9])[H:10])[H:7]"
O        1.99446085      -0.39085991       0.72593803
C        0.75265198      -0.28662836       0.23855888
C       -0.55603586      -0.47608852       0.95375046
C       -1.21702463       0.33408477      -0.20375491
C        0.18929775       0.50542037      -0.76718905
O        0.74542008       0.97827581      -1.86611108
H        2.56702197       0.21041023       0.23582805
H        0.60655906      -0.44254525      -1.59662063
H       -0.88129991      -1.51060454       1.06693816
H       -0.60939962       0.02536801       1.92208749
H       -1.66730849       1.27608664       0.10893419
H       -1.92434318      -0.22291927      -0.81835960
12
Frame=6 idx=003863 GeodesicLength=0.536583153925917 rxn_smarts="[O:1]([C@@:2]1([H:8])[C:3]([H:9])([H:10])[C:4]([H:11])([H:12])[C:5]1=[O:6])[H:7]>>[O:1]([C:2]1=[C:5]([O:6][H:8])[C:4]([H:11])([H:12])[C:3]1([H:9])[H:10])[H:7]"
O        1.99372082      -0.39311137       0.72093951
C        0.75168182      -0.30529988       0.22236668
C       -0.55469365      -0.47704028       0.95051727
C       -1.21832784       0.33906395      -0.20095068
C        0.18754088       0.52208090      -0.75768038
O        0.74569519       0.97069001      -1.86095472
H        2.55910987       0.22544393       0.24469158
H        0.61742352      -0.45751560      -1.60023761
H       -0.88972709      -1.50777793       1.06860915
H       -0.59542218       0.02723696       1.91791569
H       -1.67601540       1.27691407       0.11351158
H       -1.92098594      -0.22068475      -0.81872806
12
Frame=7 idx=003863 GeodesicLength=0.6259579777703779 rxn_smarts="[O:1]([C@@:2]1([H:8])[C:3]([H:9])([H:10])[C:4]([H:11])([H:12])[C:5]1=[O:6])[H:7]>>[O:1]([C:2]1=[C:5]([O:6][H:8])[C:4]([H:11])([H:12])[C:3]1([H:9])[H:10])[H:7]"
O        1.99273156      -0.39534266       0.71594001
C        0.75061072      -0.32169602       0.20668145
C       -0.55325754      -0.47775275       0.94723777
C       -1.21962665       0.34424871      -0.19814349
C        0.18602604       0.53976988      -0.74727226
O        0.74495688       0.96246558      -1.85582536
H        2.55147888       0.23860339       0.25276225
H        0.62892509      -0.47315684      -1.60355545
H       -0.89708473      -1.50497911       1.06967516
H       -0.58223756       0.02873370       1.91381870
H       -1.68537443       1.27754410       0.11807261
H       -1.91714828      -0.21843797      -0.81939138
12
Frame=8 idx=003863 GeodesicLength=0.7153339500098774 rxn_smarts="[O:1]([C@@:2]1([H:8])[C:3]([H:9])([H:10])[C:4]([H:11])([H:12])[C:5]1=[O:6])[H:7]>>[O:1]([C:2]1=[C:5]([O:6][H:8])[C:4]([H:11])([H:12])[C:3]1([H:9])[H:10])[H:7]"
O        1.99152720      -0.39737768       0.71104952
C        0.74943946      -0.33599952       0.19145369
C       -0.55178208      -0.47826500       0.94389256
C       -1.22091462       0.34966790      -0.19532244
C        0.18474164       0.55847651      -0.73594882
O        0.74310131       0.95353145      -1.85065498
H        2.54426823       0.25002499       0.25993170
H        0.64117420      -0.48957361      -1.60660810
H       -0.90352248      -1.50225615       1.07007941
H       -0.56985401       0.02983873       1.90980474
H       -1.69530831       1.27801392       0.12266334
H       -1.91287054      -0.21608154      -0.82034061
12
Frame=9 idx=003863 GeodesicLength=0.8046235109716692 rxn_smarts="[O:1]([C@@:2]1([H:8])[C:3]([H:9])([H:10])[C:4]([H:11])([H:12])[C:5]1=[O:6])[H:7]>>[O:1]([C:2]1=[C:5]([O:6][H:8])[C:4]([H:11])([H:12])[C:3]1([H:9])[H:10])[H:7]"
O        1.99009432      -0.39908192       0.70635043
C        0.74815487      -0.34836426       0.17662594
C       -0.55031279      -0.47860704       0.94047701
C       -1.22218347       0.35534392      -0.19247667
C        0.18367574       0.57816769      -0.72370095
O        0.74003323       0.94381049      -1.84538218
H        2.53755552       0.25982344       0.26609246
H        0.65434804      -0.50681005      -1.60944621
H       -0.90916379      -1.49962697       1.06979794
H       -0.55826842       0.03052158       1.90589902
H       -1.70575024       1.27834588       0.12731333
H       -1.90818303      -0.21352276      -0.82155012
12
Frame=10 idx=003863 GeodesicLength=0.8939073981820241 rxn_smarts="[O:1]([C@@:2]1([H:8])[C:3]([H:9])([H:10])[C:4]([H:11])([H:12])[C:5]1=[O:6])[H:7]>>[O:1]([C:2]1=[C:5]([O:6][H:8])[C:4]([H:11])([H:12])[C:3]1([H:9])[H:10])[H:7]"
O        1.98849563      -0.40040479       0.70185221
C        0.74678722      -0.35897383       0.16210836
C       -0.54887025      -0.47883778       0.93695030
C       -1.22341846       0.36134887      -0.18958407
C        0.18281981       0.59880513      -0.71057589
O        0.73559956       0.93313628      -1.84001252
H        2.53134944       0.26839351       0.27141486
H        0.66855692      -0.52507762      -1.61212275
H       -0.91415475      -1.49715720       1.06873946
H       -0.54742128       0.03070742       1.90210272
H       -1.71655058       1.27863683       0.13211164
H       -1.90319326      -0.21057682      -0.82298432
12
Frame=11 idx=003863 GeodesicLength=0.9831767683360046 rxn_smarts="[O:1]([C@@:2]1([H:8])[C:3]([H:9])([H:10])[C:4]([H:11])([H:12])[C:5]1=[O:6])[H:7]>>[O:1]([C:2]1=[C:5]([O:6][H:8])[C:4]([H:11])([H:12])[C:3]1([H:9])[H:10])[H:7]"
O        1.98668917      -0.40136427       0.69747271
C        0.74530880      -0.36799197       0.14778331
C       -0.54745606      -0.47897755       0.93326973
C       -1.22458018       0.36772742      -0.18661409
C        0.18215085       0.62031073      -0.69658797
O        0.72967233       0.92136141      -1.83447138
H        2.52551066       0.27605672       0.27607002
H        0.68400925      -0.54448475      -1.61471441
H       -0.91858752      -1.49484138       1.06684695
H       -0.53720575       0.03037808       1.89838287
H       -1.72758277       1.27895589       0.13711136
H       -1.89792877      -0.20713032      -0.82454909
12
Frame=12 idx=003863 GeodesicLength=1.072428608340345 rxn_smarts="[O:1]([C@@:2]1([H:8])[C:3]([H:9])([H:10])[C:4]([H:11])([H:12])[C:5]1=[O:6])[H:7]>>[O:1]([C:2]1=[C:5]([O:6][H:8])[C:4]([H:11])([H:12])[C:3]1([H:9])[H:10])[H:7]"
O        1.98465188      -0.40185202       0.69326171
C        0.74371529      -0.37551179       0.13358909
C       -0.54608897      -0.47905460       0.92939508
C       -1.22566750       0.37452128      -0.18353678
C        0.18163973       0.64263299      -0.68180102
O        0.72207427       0.90836143      -1.82868612
H        2.52002826       0.28293800       0.28001291
H        0.70102133      -0.56512678      -1.61720885
H       -0.92253560      -1.49270079       1.06404511
H       -0.52762279       0.02948370       1.89472230
H       -1.73872970       1.27936864       0.14239484
H       -1.89248620      -0.20306006      -0.82618827
12
Frame=13 idx=003863 GeodesicLength=1.1616496161850656 rxn_smarts="[O:1]([C@@:2]1([H:8])[C:3]([H:9])([H:10])[C:4]([H:11])([H:12])[C:5]1=[O:6])[H:7]>>[O:1]([C:2]1=[C:5]([O:6][H:8])[C:4]([H:11])([H:12])[C:3]1([H:9])[H:10])[H:7]"
O        1.98241111      -0.40191481       0.68915720
C        0.74199610      -0.38168089       0.11941587
C       -0.54478764      -0.47909890       0.92532326
C       -1.22670508       0.38177703      -0.18032941
C        0.18125880       0.66568512      -0.66630963
O        0.71269999       0.89402938      -1.82264917
H        2.51484364       0.28931130       0.28342375
H        0.71992560      -0.58704782      -1.61972042
H       -0.92612928      -1.49075158       1.06035042
H       -0.51856763       0.02799374       1.89114318
H       -1.74991870       1.27996368       0.14800417
H       -1.88702691      -0.19826624      -0.82780921
12
Frame=14 idx=003863 GeodesicLength=1.2508575718106854 rxn_smarts="[O:1]([C@@:2]1([H:8])[C:3]([H:9])([H:10])[C:4]([H:11])([H:12])[C:5]1=[O:6])[H:7]>>[O:1]([C:2]1=[C:5]([O:6][H:8])[C:4]([H:11])([H:12])[C:3]1([H:9])[H:10])[H:7]"
O        1.97991646      -0.40154246       0.68511137
C        0.74012198      -0.38662640       0.10515423
C       -0.54355242      -0.47913003       0.92100752
C       -1.22769337       0.38953837      -0.17694636
C        0.18095918       0.68935004      -0.65023230
O        0.70139419       0.87821374      -1.81628728
H        2.50981438       0.29538597       0.28640641
H        0.74113456      -0.61027995      -1.62226611
H       -0.92944344      -1.48898696       1.05570947
H       -0.50996231       0.02588595       1.88760027
H       -1.76101251       1.28083419       0.15403273
H       -1.88167671      -0.19264246      -0.82928996
12
Frame=15 idx=003863 GeodesicLength=1.3400680702668402 rxn_smarts="[O:1]([C@@:2]1([H:8])[C:3]([H:9])([H:10])[C:4]([H:11])([H:12])[C:5]1=[O:6])[H:7]>>[O:1]([C:2]1=[C:5]([O:6][H:8])[C:4]([H:11])([H:12])[C:3]1([H:9])[H:10])[H:7]"
O        1.97711027      -0.40075333       0.68105099
C        0.73804844      -0.39049676       0.09068539
C       -0.54238733      -0.47916729       0.91640581
C       -1.22864782       0.39784317      -0.17333542
C        0.18068010       0.71346528      -0.63373244
O        0.68804188       0.86077331      -1.80953904
H        2.50476921       0.30137475       0.28909234
H        0.76512703      -0.63478446      -1.62486627
H       -0.93256062      -1.48739800       1.05009645
H       -0.50170207       0.02315190       1.88404082
H       -1.77187250       1.28209485       0.16056992
H       -1.87660659      -0.18610342      -0.83046855
12
Frame=16 idx=003863 GeodesicLength=1.429286078409102 rxn_smarts="[O:1]([C@@:2]1([H:8])[C:3]([H:9])([H:10])[C:4]([H:11])([H:12])[C:5]1=[O:6])[H:7]>>[O:1]([C:2]1=[C:5]([O:6][H:8])[C:4]([H:11])([H:12])[C:3]1([H:9])[H:10])[H:7]"
O        1.97394422      -0.39957907       0.67691503
C        0.73573328      -0.39346053       0.07588979
C       -0.54129985      -0.47923196       0.91149251
C       -1.22960661       0.40671667      -0.16944019
C        0.18035401       0.73782423      -0.61703770
O        0.67256452       0.84157886      -1.80237807
H        2.49954301       0.30746283       0.29161314
H        0.79242445      -0.66042179      -1.62754280
H       -0.93557605      -1.48596870       1.04352452
H       -0.49368399       0.01979050       1.88042772
H       -1.78236027       1.28386627       0.16770940
H       -1.87203673      -0.17857730      -0.83117337
