16
Frame=0 idx=011342 GeodesicLength=0.0 rxn_smarts="[C:1]([c:2]1[c:3]([C:4]([H:11])([H:12])[H:13])[c:5]([H:14])[c:6]([H:15])[n:7]1[H:16])([H:8])([H:9])[H:10]>>[C:1]([C:2](=[C:3]=[C:5]([C:4]([H:11])([H:12])[H:13])[H:14])[N:7]([C:6][H:15])[H:16])([H:8])([H:9])[H:10]"
C       -1.14356914       1.33447750      -0.20381358
C        0.13970807       0.58363583      -0.05295564
C        0.32951889      -0.72763280       0.00946990
C       -0.97066686      -1.85974082       0.39011162
C        0.78429810      -1.93767082       0.25608311
C        2.48501975       1.02629403      -0.50044891
N        1.32634391       1.38606844      -0.01969419
H       -2.00996426       0.69336611      -0.05300401
H       -1.22880648       1.79127901      -1.19396027
H       -1.20913696       2.14028197       0.53494220
H       -1.01006186      -2.91548756       0.12656380
H       -1.64605182      -1.37107217      -0.32014959
H       -1.27201968      -1.70203352       1.41819156
H        1.06747866      -2.56549625      -0.58660130
H        3.18183636       1.84942039      -0.25976322
H        1.17607334       2.27431071       0.45502855
16
Frame=1 idx=011342 GeodesicLength=0.10700229539132868 rxn_smarts="[C:1]([c:2]1[c:3]([C:4]([H:11])([H:12])[H:13])[c:5]([H:14])[c:6]([H:15])[n:7]1[H:16])([H:8])([H:9])[H:10]>>[C:1]([C:2](=[C:3]=[C:5]([C:4]([H:11])([H:12])[H:13])[H:14])[N:7]([C:6][H:15])[H:16])([H:8])([H:9])[H:10]"
C       -1.16236119       1.35903426      -0.21446643
C        0.11859869       0.60008588      -0.09622606
C        0.29709722      -0.71445838      -0.08030607
C       -0.95432679      -1.86955544       0.40157456
C        0.81027115      -1.88797592       0.22950981
C        2.48780542       0.96064696      -0.42711087
N        1.31448393       1.38329548      -0.03433602
H       -2.02897627       0.71416875      -0.08189269
H       -1.24773162       1.85153369      -1.18738948
H       -1.22413201       2.13874067       0.55196655
H       -0.98188987      -2.92538076       0.13622926
H       -1.68525083      -1.39383414      -0.26053283
H       -1.21501873      -1.72529893       1.44334835
H        1.10133910      -2.55573348      -0.57879212
H        3.19868275       1.77795049      -0.21304495
H        1.17140904       2.28678088       0.41146900
16
Frame=2 idx=011342 GeodesicLength=0.21433365855689454 rxn_smarts="[C:1]([c:2]1[c:3]([C:4]([H:11])([H:12])[H:13])[c:5]([H:14])[c:6]([H:15])[n:7]1[H:16])([H:8])([H:9])[H:10]>>[C:1]([C:2](=[C:3]=[C:5]([C:4]([H:11])([H:12])[H:13])[H:14])[N:7]([C:6][H:15])[H:16])([H:8])([H:9])[H:10]"
C       -1.17931095       1.38245087      -0.22536445
C        0.09818942       0.61493982      -0.13616726
C        0.26421680      -0.70195252      -0.15459981
C       -0.93747834      -1.87867705       0.41309042
C        0.83363153      -1.83790519       0.20281593
C        2.48158910       0.89756419      -0.35705183
N        1.30293629       1.37834528      -0.04776917
H       -2.04708704       0.73571853      -0.11044902
H       -1.26295401       1.90642551      -1.18189690
H       -1.23737878       2.13765180       0.56535450
H       -0.95524356      -2.93291015       0.13993441
H       -1.71757721      -1.41359511      -0.19811371
H       -1.15851378      -1.75266104       1.46701650
H        1.13487699      -2.53693879      -0.57439682
H        3.21112152       1.70289939      -0.16600869
H        1.16898202       2.29864446       0.36360590
16
Frame=3 idx=011342 GeodesicLength=0.32198559802717674 rxn_smarts="[C:1]([c:2]1[c:3]([C:4]([H:11])([H:12])[H:13])[c:5]([H:14])[c:6]([H:15])[n:7]1[H:16])([H:8])([H:9])[H:10]>>[C:1]([C:2](=[C:3]=[C:5]([C:4]([H:11])([H:12])[H:13])[H:14])[N:7]([C:6][H:15])[H:16])([H:8])([H:9])[H:10]"
C       -1.19447912       1.40495297      -0.23615342
C        0.07872695       0.62877675      -0.17136825
C        0.23222858      -0.68999874      -0.21416141
C       -0.92052871      -1.88782997       0.42440222
C        0.85443265      -1.78937385       0.17708624
C        2.46805224       0.83841309      -0.29133724
N        1.29175851       1.37245404      -0.06009538
H       -2.06408459       0.75797058      -0.13734980
H       -1.27483991       1.95537981      -1.17803017
H       -1.24913630       2.13847890       0.57478985
H       -0.93144486      -2.93865579       0.13725599
H       -1.74359001      -1.43046744      -0.13349662
H       -1.10270895      -1.78527682       1.48893410
H        1.16713996      -2.51199879      -0.57322962
H        3.21927644       1.62642195      -0.11773764
H        1.16919714       2.31075330       0.31049114
16
Frame=4 idx=011342 GeodesicLength=0.429862563300347 rxn_smarts="[C:1]([c:2]1[c:3]([C:4]([H:11])([H:12])[H:13])[c:5]([H:14])[c:6]([H:15])[n:7]1[H:16])([H:8])([H:9])[H:10]>>[C:1]([C:2](=[C:3]=[C:5]([C:4]([H:11])([H:12])[H:13])[H:14])[N:7]([C:6][H:15])[H:16])([H:8])([H:9])[H:10]"
C       -1.20793329       1.42679668      -0.24696915
C        0.06029586       0.64178741      -0.20177283
C        0.20159524      -0.67866782      -0.26166339
C       -0.90373943      -1.89737509       0.43550991
C        0.87286104      -1.74319505       0.15275988
C        2.44895503       0.78379923      -0.22938875
N        1.28096389       1.36614012      -0.07067745
H       -2.07991632       0.78086007      -0.16310912
H       -1.28332740       1.99931103      -1.17602858
H       -1.25982011       2.14148682       0.58063965
H       -0.91135395      -2.94298035       0.12893588
H       -1.76420362      -1.44488820      -0.06662120
H       -1.04717634      -1.82315125       1.50896422
H        1.19759766      -2.48348746      -0.57454569
H        3.22303033       1.55119935      -0.06970089
H        1.17217140       2.32236450       0.25366751
16
Frame=5 idx=011342 GeodesicLength=0.5379772812051069 rxn_smarts="[C:1]([c:2]1[c:3]([C:4]([H:11])([H:12])[H:13])[c:5]([H:14])[c:6]([H:15])[n:7]1[H:16])([H:8])([H:9])[H:10]>>[C:1]([C:2](=[C:3]=[C:5]([C:4]([H:11])([H:12])[H:13])[H:14])[N:7]([C:6][H:15])[H:16])([H:8])([H:9])[H:10]"
C       -1.22002394       1.44821892      -0.25852273
C        0.04268767       0.65417789      -0.22799236
C        0.17221628      -0.66785128      -0.29980394
C       -0.88680128      -1.90731974       0.44708768
C        0.88932269      -1.69949076       0.12895741
C        2.42538043       0.73407048      -0.17274099
N        1.27030474       1.35979512      -0.07943871
H       -2.09477290       0.80427941      -0.18895899
H       -1.28858426       2.03912810      -1.17655143
H       -1.27017935       2.14672677       0.58273011
H       -0.89544446      -2.94577691       0.11627517
H       -1.78006291      -1.45691184       0.00448999
H       -0.98986914      -1.86607971       1.52761357
H        1.22555464      -2.45294563      -0.57902891
H        3.22253496       1.47753933      -0.01929787
H        1.17773683       2.33243985       0.19518200
16
Frame=6 idx=011342 GeodesicLength=0.6461979654241191 rxn_smarts="[C:1]([c:2]1[c:3]([C:4]([H:11])([H:12])[H:13])[c:5]([H:14])[c:6]([H:15])[n:7]1[H:16])([H:8])([H:9])[H:10]>>[C:1]([C:2](=[C:3]=[C:5]([C:4]([H:11])([H:12])[H:13])[H:14])[N:7]([C:6][H:15])[H:16])([H:8])([H:9])[H:10]"
C       -1.23083966       1.46929901      -0.27044396
C        0.02593824       0.66597826      -0.25047814
C        0.14413396      -0.65758546      -0.33019813
C       -0.87008712      -1.91778447       0.45863527
C        0.90392524      -1.65810195       0.10667516
C        2.39872824       0.68874764      -0.11955585
N        1.25978660       1.35352624      -0.08592108
H       -2.10865794       0.82811799      -0.21503791
H       -1.29086125       2.07587871      -1.17881995
H       -1.28036462       2.15367621       0.58221992
H       -0.88399683      -2.94712660       0.09978423
H       -1.79130052      -1.46721857       0.07858326
H       -0.93180451      -1.91363003       1.54377492
H        1.25155269      -2.42140580      -0.58474956
H        3.21816526       1.40712530       0.03001281
H        1.18568221       2.34050352       0.13551901
16
Frame=7 idx=011342 GeodesicLength=0.7544067452578176 rxn_smarts="[C:1]([c:2]1[c:3]([C:4]([H:11])([H:12])[H:13])[c:5]([H:14])[c:6]([H:15])[n:7]1[H:16])([H:8])([H:9])[H:10]>>[C:1]([C:2](=[C:3]=[C:5]([C:4]([H:11])([H:12])[H:13])[H:14])[N:7]([C:6][H:15])[H:16])([H:8])([H:9])[H:10]"
C       -1.24047295       1.49007439      -0.28286049
C        0.01006437       0.67728357      -0.26902065
C        0.11742553      -0.64777581      -0.35366749
C       -0.85393167      -1.92890619       0.46987275
C        0.91679774      -1.61885780       0.08676627
C        2.36976129       0.64749387      -0.06717869
N        1.24924489       1.34746738      -0.08816821
H       -2.12156418       0.85220882      -0.24257769
H       -1.28967956       2.11034425      -1.18261996
H       -1.29124094       2.16184179       0.57954247
H       -0.87727254      -2.94695479       0.07976696
H       -1.79809150      -1.47625153       0.15495805
H       -0.87383086      -1.96581857       1.55666315
H        1.27603647      -2.38932029      -0.59032875
H        3.21110780       1.34112692       0.07187507
H        1.19564610       2.34604398       0.07697720
16
Frame=8 idx=011342 GeodesicLength=0.86268163975058 rxn_smarts="[C:1]([c:2]1[c:3]([C:4]([H:11])([H:12])[H:13])[c:5]([H:14])[c:6]([H:15])[n:7]1[H:16])([H:8])([H:9])[H:10]>>[C:1]([C:2](=[C:3]=[C:5]([C:4]([H:11])([H:12])[H:13])[H:14])[N:7]([C:6][H:15])[H:16])([H:8])([H:9])[H:10]"
C       -1.24937993       1.51060645      -0.29578338
C       -0.00523445       0.68829194      -0.28517652
C        0.09172949      -0.63825914      -0.37208528
C       -0.83780401      -1.94035458       0.48130852
C        0.92833114      -1.58119132       0.06808099
C        2.33908827       0.61017388      -0.01988731
N        1.23843346       1.34193656      -0.08820340
H       -2.13375123       0.87643101      -0.27122047
H       -1.28636661       2.14313380      -1.18757897
H       -1.30271457       2.17085030       0.57516586
H       -0.87504093      -2.94496945       0.05801894
H       -1.80016232      -1.48434828       0.23457414
H       -0.81452326      -2.02143749       1.56634384
H        1.29878741      -2.35693563      -0.59652812
H        3.20119259       1.27729599       0.11476027
H        1.20741495       2.34877598       0.01821089
16
Frame=9 idx=011342 GeodesicLength=0.9709725404817594 rxn_smarts="[C:1]([c:2]1[c:3]([C:4]([H:11])([H:12])[H:13])[c:5]([H:14])[c:6]([H:15])[n:7]1[H:16])([H:8])([H:9])[H:10]>>[C:1]([C:2](=[C:3]=[C:5]([C:4]([H:11])([H:12])[H:13])[H:14])[N:7]([C:6][H:15])[H:16])([H:8])([H:9])[H:10]"
C       -1.25767363       1.53087659      -0.30971806
C       -0.02002854       0.69902544      -0.29969934
C        0.06680979      -0.62903011      -0.38632123
C       -0.82151537      -1.95192635       0.49338277
C        0.93863516      -1.54500341       0.05007981
C        2.30736151       0.57618496       0.02237844
N        1.22741557       1.33703576      -0.08741799
H       -2.14523362       0.90068289      -0.30168384
H       -1.28107826       2.17458450      -1.19395569
H       -1.31500591       2.18039181       0.56885650
H       -0.87788691      -2.94059760       0.03529198
H       -1.79709028      -1.49129061       0.31877265
H       -0.75306797      -2.08058448       1.57260954
H        1.31947857      -2.32461124      -0.60376331
H        3.18849132       1.21613840       0.15935093
H        1.22038856       2.34812344      -0.03816316
16
Frame=10 idx=011342 GeodesicLength=1.0792602256766304 rxn_smarts="[C:1]([c:2]1[c:3]([C:4]([H:11])([H:12])[H:13])[c:5]([H:14])[c:6]([H:15])[n:7]1[H:16])([H:8])([H:9])[H:10]>>[C:1]([C:2](=[C:3]=[C:5]([C:4]([H:11])([H:12])[H:13])[H:14])[N:7]([C:6][H:15])[H:16])([H:8])([H:9])[H:10]"
C       -1.26542680       1.55085257      -0.32433793
C       -0.03430221       0.70958145      -0.31202587
C        0.04273384      -0.61995976      -0.39661867
C       -0.80529994      -1.96376622       0.50562566
C        0.94778505      -1.51009823       0.03329495
C        2.27500641       0.54517955       0.06126294
N        1.21593282       1.33283530      -0.08329826
H       -2.15596264       0.92482957      -0.33418081
H       -1.27362156       2.20491209      -1.20123569
H       -1.32866121       2.19023935       0.56108335
H       -0.88575664      -2.93394940       0.01220477
H       -1.78859326      -1.49775456       0.40617682
H       -0.69062734      -2.14264027       1.57445780
H        1.33858983      -2.29231434      -0.61121136
H        3.17366717       1.15767853       0.20225353
H        1.23453650       2.34437438      -0.09345122
16
Frame=11 idx=011342 GeodesicLength=1.187355833809717 rxn_smarts="[C:1]([c:2]1[c:3]([C:4]([H:11])([H:12])[H:13])[c:5]([H:14])[c:6]([H:15])[n:7]1[H:16])([H:8])([H:9])[H:10]>>[C:1]([C:2](=[C:3]=[C:5]([C:4]([H:11])([H:12])[H:13])[H:14])[N:7]([C:6][H:15])[H:16])([H:8])([H:9])[H:10]"
C       -1.27265331       1.57048897      -0.33927727
C       -0.04807392       0.71990386      -0.32309786
C        0.01938319      -0.61112738      -0.40370303
C       -0.78927672      -1.97575800       0.51796300
C        0.95581843      -1.47620101       0.01796744
C        2.24257372       0.51679373       0.09577428
N        1.20439200       1.32939299      -0.07915366
H       -2.16590774       0.94886677      -0.36790459
H       -1.26479977       2.23441080      -1.20875047
H       -1.34297151       2.20001132       0.55250861
H       -0.89832536      -2.92510783      -0.01000698
H       -1.77458088      -1.50447131       0.49543742
H       -0.62820946      -2.20660637       1.57148067
H        1.35636007      -2.26020768      -0.61806946
H        3.15693564       1.10219938       0.24546533
H        1.24933565       2.33741175      -0.14663344
16
Frame=12 idx=011342 GeodesicLength=1.29551593130248 rxn_smarts="[C:1]([c:2]1[c:3]([C:4]([H:11])([H:12])[H:13])[c:5]([H:14])[c:6]([H:15])[n:7]1[H:16])([H:8])([H:9])[H:10]>>[C:1]([C:2](=[C:3]=[C:5]([C:4]([H:11])([H:12])[H:13])[H:14])[N:7]([C:6][H:15])[H:16])([H:8])([H:9])[H:10]"
C       -1.27945328       1.58995590      -0.35425546
C       -0.06158610       0.72996101      -0.33401832
C       -0.00377454      -0.60255637      -0.40879141
C       -0.77273553      -1.98779090       0.53070527
C        0.96280765      -1.44341995       0.00175061
C        2.20987575       0.49053559       0.12673147
N        1.19310735       1.32650891      -0.07812241
H       -2.17528419       0.97307488      -0.40073030
H       -1.25599063       2.26270214      -1.21665157
H       -1.35648158       2.21049916       0.54310974
H       -0.91596606      -2.91385848      -0.03012226
H       -1.75388635      -1.51133772       0.58835143
H       -0.56380566      -2.27205214       1.56331192
H        1.37200953      -2.22838986      -0.62729480
H        3.13593073       1.04911359       0.29876945
H        1.26523291       2.32705424      -0.20274335
16
Frame=13 idx=011342 GeodesicLength=1.4037044874211022 rxn_smarts="[C:1]([c:2]1[c:3]([C:4]([H:11])([H:12])[H:13])[c:5]([H:14])[c:6]([H:15])[n:7]1[H:16])([H:8])([H:9])[H:10]>>[C:1]([C:2](=[C:3]=[C:5]([C:4]([H:11])([H:12])[H:13])[H:14])[N:7]([C:6][H:15])[H:16])([H:8])([H:9])[H:10]"
C       -1.28582335       1.60909999      -0.36974777
C       -0.07471037       0.73985465      -0.34343457
C       -0.02627537      -0.59409488      -0.41093229
C       -0.75636773      -2.00016066       0.54332919
C        0.96881932      -1.41145768      -0.01289625
C        2.17664249       0.46654517       0.15831117
N        1.18175874       1.32433057      -0.07632628
H       -2.18384983       0.99710432      -0.43528747
H       -1.24565675       2.29019406      -1.22496199
H       -1.37106382       2.22095882       0.53268193
H       -0.93888397      -2.89994441      -0.04866091
H       -1.72654311      -1.51878430       0.68328562
H       -0.50001472      -2.33963550       1.54900422
H        1.38682416      -2.19643725      -0.63585382
H        3.11360158       0.99882338       0.34799405
H        1.28154272       2.31360372      -0.25650484
16
Frame=14 idx=011342 GeodesicLength=1.5118240361610071 rxn_smarts="[C:1]([c:2]1[c:3]([C:4]([H:11])([H:12])[H:13])[c:5]([H:14])[c:6]([H:15])[n:7]1[H:16])([H:8])([H:9])[H:10]>>[C:1]([C:2](=[C:3]=[C:5]([C:4]([H:11])([H:12])[H:13])[H:14])[N:7]([C:6][H:15])[H:16])([H:8])([H:9])[H:10]"
C       -1.29176815       1.62794132      -0.38550902
C       -0.08747773       0.74959638      -0.35133488
C       -0.04812108      -0.58572470      -0.41023183
C       -0.74048750      -2.01294599       0.55554938
C        0.97388581      -1.38003408      -0.02519082
C        2.14283185       0.44480296       0.19119791
N        1.17046405       1.32280551      -0.07404565
H       -2.19152655       1.02099514      -0.47153055
H       -1.23384870       2.31712280      -1.23321187
H       -1.38670891       2.23120154       0.52159095
H       -0.96605340      -2.88393059      -0.06463553
H       -1.69313671      -1.52804723       0.77795647
H       -0.43847865      -2.40815978       1.52845903
H        1.40134587      -2.16411008      -0.64259500
H        3.09123751       0.95098507       0.39034059
H        1.29784231       2.29750173      -0.30680917
16
Frame=15 idx=011342 GeodesicLength=1.6199823739660761 rxn_smarts="[C:1]([c:2]1[c:3]([C:4]([H:11])([H:12])[H:13])[c:5]([H:14])[c:6]([H:15])[n:7]1[H:16])([H:8])([H:9])[H:10]>>[C:1]([C:2](=[C:3]=[C:5]([C:4]([H:11])([H:12])[H:13])[H:14])[N:7]([C:6][H:15])[H:16])([H:8])([H:9])[H:10]"
C       -1.29733863       1.64657058      -0.40155039
C       -0.10004302       0.75915382      -0.35846890
C       -0.06969444      -0.57747415      -0.40740839
C       -0.72464080      -2.02602378       0.56765785
C        0.97802714      -1.34917215      -0.03656525
C        2.10851160       0.42492687       0.22379086
N        1.15932050       1.32167914      -0.07252916
H       -2.19838823       1.04491044      -0.50886968
H       -1.22109047       2.34352467      -1.24143303
H       -1.40285868       2.24138661       0.50981067
H       -0.99757451      -2.86576447      -0.07671635
H       -1.65272549      -1.53917544       0.87321601
H       -0.37819936      -2.47690754       1.50160315
H        1.41501761      -2.13148077      -0.64926739
H        3.06743149       0.90515772       0.43209338
H        1.31424530       2.27868844      -0.35536340
16
Frame=16 idx=011342 GeodesicLength=1.7282078109379109 rxn_smarts="[C:1]([c:2]1[c:3]([C:4]([H:11])([H:12])[H:13])[c:5]([H:14])[c:6]([H:15])[n:7]1[H:16])([H:8])([H:9])[H:10]>>[C:1]([C:2](=[C:3]=[C:5]([C:4]([H:11])([H:12])[H:13])[H:14])[N:7]([C:6][H:15])[H:16])([H:8])([H:9])[H:10]"
C       -1.30254028       1.66503173      -0.41797367
C       -0.11246857       0.76854273      -0.36484009
C       -0.09113892      -0.56930796      -0.40253618
C       -0.70878676      -2.03939570       0.57969943
C        0.98123810      -1.31879041      -0.04716758
C        2.07378244       0.40669715       0.25570279
N        1.14832581       1.32083090      -0.07158623
H       -2.20437387       1.06890495      -0.54749546
H       -1.20730576       2.36943646      -1.24968650
H       -1.41959505       2.25157346       0.49719862
H       -1.03317990      -2.84555368      -0.08400733
H       -1.60496286      -1.55264147       0.96863693
H       -0.31949715      -2.54535931       1.46831527
H        1.42777526      -2.09846559      -0.65607033
H        3.04219514       0.86107988       0.47347955
H        1.33053237       2.25741685      -0.40166925
