15
Frame=0 idx=006683 GeodesicLength=0.0 rxn_smarts="[C:1]([C@@:2]1([O:3][H:11])[C:4]([H:12])([H:13])[C:5]([H:14])([H:15])[C:6]1=[O:7])([H:8])([H:9])[H:10]>>[C:1](/[C:2]([O:3][H:11])=[C:4](\[C:5]([C:6](=[O:7])[H:13])([H:14])[H:15])[H:12])([H:8])([H:9])[H:10]"
C       -1.84009354      -0.44265838      -0.01829136
C       -0.53369929       0.30240183       0.02467919
O       -0.81218538       1.61918602      -0.27889191
C        0.56304182       0.16489745       1.01094698
C        1.79456042      -0.03273773       0.15760509
C        0.78937781      -0.63051014      -0.84087735
O        0.87002532      -0.97147232      -1.99042727
H       -2.57553712       0.07742499       0.59901734
H       -2.21244153      -0.46164883      -1.04344916
H       -1.73096559      -1.46363860       0.33956112
H        0.00421214       2.12213261      -0.33824090
H        0.57721609       0.80545911       1.90026510
H        0.26884184      -1.25803503       0.13574692
H        2.28088079       0.89561159      -0.17199177
H        2.55676627      -0.72641262       0.51434798
15
Frame=1 idx=006683 GeodesicLength=0.0934942979181387 rxn_smarts="[C:1]([C@@:2]1([O:3][H:11])[C:4]([H:12])([H:13])[C:5]([H:14])([H:15])[C:6]1=[O:7])([H:8])([H:9])[H:10]>>[C:1](/[C:2]([O:3][H:11])=[C:4](\[C:5]([C:6](=[O:7])[H:13])([H:14])[H:15])[H:12])([H:8])([H:9])[H:10]"
C       -1.84222953      -0.44156673      -0.00843294
C       -0.53805671       0.30887086       0.02104107
O       -0.82794340       1.62664983      -0.26935443
C        0.55531323       0.16259716       1.00492872
C        1.79430217      -0.04129838       0.16334194
C        0.80272087      -0.62491148      -0.85481112
O        0.90629254      -0.94153526      -2.00923071
H       -2.57342952       0.06884285       0.62185430
H       -2.22919400      -0.45706240      -1.02826273
H       -1.72533265      -1.46389926       0.34344710
H       -0.01471928       2.12711765      -0.37323353
H        0.57898009       0.82376201       1.87850471
H        0.27644290      -1.27375238       0.13203289
H        2.30226161       0.87851477      -0.15420166
H        2.53459167      -0.75232923       0.53237638
15
Frame=2 idx=006683 GeodesicLength=0.18671126919338543 rxn_smarts="[C:1]([C@@:2]1([O:3][H:11])[C:4]([H:12])([H:13])[C:5]([H:14])([H:15])[C:6]1=[O:7])([H:8])([H:9])[H:10]>>[C:1](/[C:2]([O:3][H:11])=[C:4](\[C:5]([C:6](=[O:7])[H:13])([H:14])[H:15])[H:12])([H:8])([H:9])[H:10]"
C       -1.84425843      -0.44017862       0.00133965
C       -0.54244816       0.31560283       0.01754795
O       -0.84323823       1.63426997      -0.25972979
C        0.54773516       0.16033408       0.99880303
C        1.79396575      -0.04992767       0.16889768
C        0.81635022      -0.61932512      -0.86857814
O        0.94305812      -0.91147992      -2.02690711
H       -2.57102513       0.06063706       0.64432210
H       -2.24558855      -0.45228475      -1.01301031
H       -1.71976568      -1.46380711       0.34719431
H       -0.03545627       2.13181664      -0.40861862
H        0.58114874       0.84108915       1.85656873
H        0.28419827      -1.28980961       0.12896605
H        2.32332624       0.86090553      -0.13613256
H        2.51199796      -0.77784245       0.54933704
15
Frame=3 idx=006683 GeodesicLength=0.2796697303776377 rxn_smarts="[C:1]([C@@:2]1([O:3][H:11])[C:4]([H:12])([H:13])[C:5]([H:14])([H:15])[C:6]1=[O:7])([H:8])([H:9])[H:10]>>[C:1](/[C:2]([O:3][H:11])=[C:4](\[C:5]([C:6](=[O:7])[H:13])([H:14])[H:15])[H:12])([H:8])([H:9])[H:10]"
C       -1.84618336      -0.43848665       0.01102560
C       -0.54686830       0.32260166       0.01419761
O       -0.85805923       1.64205565      -0.25005350
C        0.54031271       0.15810192       0.99255543
C        1.79356115      -0.05863289       0.17426282
C        0.83028112      -0.61374659      -0.88219843
O        0.98032070      -0.88132159      -2.04346272
H       -2.56833191       0.05282112       0.66642629
H       -2.26163399      -0.44730259      -0.99769955
H       -1.71426400      -1.46335798       0.35079999
H       -0.05807963       2.13621048      -0.44433256
H        0.58371007       0.85747378       1.83446783
H        0.29211373      -1.30622630       0.12656725
H        2.34408227       0.84276407      -0.11778854
H        2.48903868      -0.80295409       0.56523249
15
Frame=4 idx=006683 GeodesicLength=0.3723880862386163 rxn_smarts="[C:1]([C@@:2]1([O:3][H:11])[C:4]([H:12])([H:13])[C:5]([H:14])([H:15])[C:6]1=[O:7])([H:8])([H:9])[H:10]>>[C:1](/[C:2]([O:3][H:11])=[C:4](\[C:5]([C:6](=[O:7])[H:13])([H:14])[H:15])[H:12])([H:8])([H:9])[H:10]"
C       -1.84800629      -0.43648261       0.02062303
C       -0.55131100       0.32987221       0.01098612
O       -0.87239623       1.65001913      -0.24035571
C        0.53305068       0.15589546       0.98617031
C        1.79309775      -0.06742059       0.17942780
C        0.84453044      -0.60816843      -0.89569263
O        1.01808246      -0.85108207      -2.05890267
H       -2.56535306       0.04540448       0.68817778
H       -2.27734282      -0.44209517      -0.98233672
H       -1.70882535      -1.46254898       0.35425367
H       -0.08267315       2.14027653      -0.48031754
H        0.58665161       0.87294662       1.81221026
H        0.30019422      -1.32302102       0.12485952
H        2.36453630       0.82407022      -0.09917237
H        2.46576446      -0.82766579       0.58006915
15
Frame=5 idx=006683 GeodesicLength=0.4648824899459895 rxn_smarts="[C:1]([C@@:2]1([O:3][H:11])[C:4]([H:12])([H:13])[C:5]([H:14])([H:15])[C:6]1=[O:7])([H:8])([H:9])[H:10]>>[C:1](/[C:2]([O:3][H:11])=[C:4](\[C:5]([C:6](=[O:7])[H:13])([H:14])[H:15])[H:12])([H:8])([H:9])[H:10]"
C       -1.84972950      -0.43415761       0.03012954
C       -0.55577015       0.33741926       0.00791104
O       -0.88623750       1.65817313      -0.23066489
C        0.52595365       0.15370965       0.97963270
C        1.79258506      -0.07629771       0.18438383
C        0.85911700      -0.60258256      -0.90907963
O        1.05634528      -0.82077744      -2.07323250
H       -2.56209301       0.03839804       0.70958465
H       -2.29272491      -0.43664097      -0.96692866
H       -1.70344856      -1.46137594       0.35754349
H       -0.10932294       2.14398231      -0.51651740
H        0.58996328       0.88753819       1.78980116
H        0.30844388      -1.34021194       0.12387052
H        2.38469121       0.80480331      -0.08028540
H        2.44222721      -0.85197972       0.59385156
15
Frame=6 idx=006683 GeodesicLength=0.5571689901834826 rxn_smarts="[C:1]([C@@:2]1([O:3][H:11])[C:4]([H:12])([H:13])[C:5]([H:14])([H:15])[C:6]1=[O:7])([H:8])([H:9])[H:10]>>[C:1](/[C:2]([O:3][H:11])=[C:4](\[C:5]([C:6](=[O:7])[H:13])([H:14])[H:15])[H:12])([H:8])([H:9])[H:10]"
C       -1.85135454      -0.43150172       0.03954055
C       -0.56023831       0.34524835       0.00496793
O       -0.89956922       1.66653309      -0.22100835
C        0.51902689       0.15153988       0.97292652
C        1.79203245      -0.08526975       0.18912082
C        0.87406097      -0.59697978      -0.92237886
O        1.09511323      -0.79043476      -2.08645731
H       -2.55855303       0.03181185       0.73065513
H       -2.30779155      -0.43091408      -0.95148337
H       -1.69813273      -1.45983490       0.36065272
H       -0.13812121       2.14729518      -0.55286805
H        0.59363572       0.90127569       1.76724457
H        0.31686552      -1.35781733       0.12363223
H        2.40454707       0.78494432      -0.06113149
H        2.41847874      -0.87589605       0.60658695
15
Frame=7 idx=006683 GeodesicLength=0.6492621270173182 rxn_smarts="[C:1]([C@@:2]1([O:3][H:11])[C:4]([H:12])([H:13])[C:5]([H:14])([H:15])[C:6]1=[O:7])([H:8])([H:9])[H:10]>>[C:1](/[C:2]([O:3][H:11])=[C:4](\[C:5]([C:6](=[O:7])[H:13])([H:14])[H:15])[H:12])([H:8])([H:9])[H:10]"
C       -1.85288282      -0.42850409       0.04885054
C       -0.56470742       0.35336484       0.00215225
O       -0.91237465       1.67511464      -0.21141589
C        0.51227541       0.14938163       0.96603510
C        1.79144904      -0.09434217       0.19362815
C        0.88938456      -0.59135124      -0.93560869
O        1.13439139      -0.76007987      -2.09858287
H       -2.55473457       0.02565835       0.75139423
H       -2.32255156      -0.42488793      -0.93600970
H       -1.69287797      -1.45792031       0.36356362
H       -0.16916401       2.15017583      -0.58929668
H        0.59766060       0.91418513       1.74454176
H        0.32546073      -1.37585529       0.12418257
H        2.42409922       0.76447504      -0.04171587
H        2.39457206      -0.89941455       0.61828149
15
Frame=8 idx=006683 GeodesicLength=0.7411852020711093 rxn_smarts="[C:1]([C@@:2]1([O:3][H:11])[C:4]([H:12])([H:13])[C:5]([H:14])([H:15])[C:6]1=[O:7])([H:8])([H:9])[H:10]>>[C:1](/[C:2]([O:3][H:11])=[C:4](\[C:5]([C:6](=[O:7])[H:13])([H:14])[H:15])[H:12])([H:8])([H:9])[H:10]"
C       -1.85431621      -0.42515401       0.05805272
C       -0.56916891       0.36177506      -0.00054269
O       -0.92463700       1.68393710      -0.20192148
C        0.50570377       0.14723163       0.95894027
C        1.79084499      -0.10352047       0.19789272
C        0.90511367      -0.58568889      -0.94878896
O        1.17418903      -0.72974741      -2.10961809
H       -2.55064166       0.01995131       0.77180439
H       -2.33701201      -0.41853710      -0.92051856
H       -1.68768558      -1.45562800       0.36625901
H       -0.20255196       2.15259110      -0.62571029
H        0.60202905       0.92629407       1.72169058
H        0.33423027      -1.39434549       0.12556579
H        2.44334217       0.74337840      -0.02204759
H        2.37056038      -0.92253728       0.62894218
15
Frame=9 idx=006683 GeodesicLength=0.8329234038803056 rxn_smarts="[C:1]([C@@:2]1([O:3][H:11])[C:4]([H:12])([H:13])[C:5]([H:14])([H:15])[C:6]1=[O:7])([H:8])([H:9])[H:10]>>[C:1](/[C:2]([O:3][H:11])=[C:4](\[C:5]([C:6](=[O:7])[H:13])([H:14])[H:15])[H:12])([H:8])([H:9])[H:10]"
C       -1.85565423      -0.42143564       0.06713606
C       -0.57361356       0.37048334      -0.00312773
O       -0.93633085       1.69300883      -0.19256510
C        0.49931706       0.14508586       0.95161904
C        1.79022393      -0.11280400       0.20190280
C        0.92126676      -0.57997902      -0.96193490
O        1.21451684      -0.69947432      -2.11956163
H       -2.54625921       0.01470257       0.79189146
H       -2.35119075      -0.41182346      -0.90501673
H       -1.68255452      -1.45294365       0.36870363
H       -0.23837934       2.15446971      -0.66200565
H        0.60673381       0.93761507       1.69868868
H        0.34317029      -1.41329907       0.12783105
H        2.46225531       0.72163958      -0.00214144
H        2.34649845      -0.94524581       0.63858047
15
Frame=10 idx=006683 GeodesicLength=0.924518681214994 rxn_smarts="[C:1]([C@@:2]1([O:3][H:11])[C:4]([H:12])([H:13])[C:5]([H:14])([H:15])[C:6]1=[O:7])([H:8])([H:9])[H:10]>>[C:1](/[C:2]([O:3][H:11])=[C:4](\[C:5]([C:6](=[O:7])[H:13])([H:14])[H:15])[H:12])([H:8])([H:9])[H:10]"
C       -1.85689996      -0.41734230       0.07609269
C       -0.57803268       0.37949465      -0.00562043
O       -0.94744513       1.70235122      -0.18340576
C        0.49311654       0.14294383       0.94404569
C        1.78959647      -0.12219989       0.20563745
C        0.93787741      -0.57422172      -0.97507197
O        1.25539481      -0.66931082      -2.12843218
H       -2.54160057       0.00993565       0.81164475
H       -2.36508843      -0.40474028      -0.88951898
H       -1.67748986      -1.44986581       0.37089871
H       -0.27673593       2.15581424      -0.69801741
H        0.61176031       0.94818264       1.67552209
H        0.35227903      -1.43274041       0.13103881
H        2.48082681       0.69924875       0.01798844
H        2.32244119      -0.96754976       0.64719811
15
Frame=11 idx=006683 GeodesicLength=1.0159762133616763 rxn_smarts="[C:1]([C@@:2]1([O:3][H:11])[C:4]([H:12])([H:13])[C:5]([H:14])([H:15])[C:6]1=[O:7])([H:8])([H:9])[H:10]>>[C:1](/[C:2]([O:3][H:11])=[C:4](\[C:5]([C:6](=[O:7])[H:13])([H:14])[H:15])[H:12])([H:8])([H:9])[H:10]"
C       -1.85805506      -0.41286091       0.08491177
C       -0.58241793       0.38881104      -0.00804106
O       -0.95796096       1.71197348      -0.17450302
C        0.48710298       0.14080355       0.93619000
C        1.78896663      -0.13171089       0.20907941
C        0.95497353      -0.56841103      -0.98821912
O        1.29684724      -0.63929005      -2.13623683
H       -2.53665826       0.00566969       0.83106385
H       -2.37872070      -0.39726147      -0.87403236
H       -1.67249366      -1.44638236       0.37282096
H       -0.31770486       2.15657234      -0.73359281
H        0.61709549       0.95801566       1.65217543
H        0.36154958      -1.45268353       0.13525613
H        2.49903096       0.67619438       0.03832456
H        2.29844502      -0.98943989       0.65480309
15
Frame=12 idx=006683 GeodesicLength=1.1073129479741706 rxn_smarts="[C:1]([C@@:2]1([O:3][H:11])[C:4]([H:12])([H:13])[C:5]([H:14])([H:15])[C:6]1=[O:7])([H:8])([H:9])[H:10]>>[C:1](/[C:2]([O:3][H:11])=[C:4](\[C:5]([C:6](=[O:7])[H:13])([H:14])[H:15])[H:12])([H:8])([H:9])[H:10]"
C       -1.85912143      -0.40798219       0.09357858
C       -0.58676143       0.39843549      -0.01041602
O       -0.96786478       1.72188926      -0.16592167
C        0.48127598       0.13866589       0.92801759
C        1.78833784      -0.14133775       0.21220590
C        0.97258445      -0.56254429      -1.00139892
O        1.33890028      -0.60946910      -2.14298731
H       -2.53142841       0.00192142       0.85014205
H       -2.39210039      -0.38936807      -0.85856948
H       -1.66756885      -1.44248696       0.37444816
H       -0.36135541       2.15671787      -0.76853666
H        0.62272460       0.96713770       1.62862866
H        0.37097306      -1.47314459       0.14056358
H        2.51683846       0.65247266       0.05884059
H        2.27456604      -1.01090733       0.66140495
15
Frame=13 idx=006683 GeodesicLength=1.1985460686033436 rxn_smarts="[C:1]([C@@:2]1([O:3][H:11])[C:4]([H:12])([H:13])[C:5]([H:14])([H:15])[C:6]1=[O:7])([H:8])([H:9])[H:10]>>[C:1](/[C:2]([O:3][H:11])=[C:4](\[C:5]([C:6](=[O:7])[H:13])([H:14])[H:15])[H:12])([H:8])([H:9])[H:10]"
C       -1.86010093      -0.40269835       0.10207558
C       -0.59105664       0.40836946      -0.01277618
O       -0.97714737       1.73210919      -0.15773048
C        0.47563272       0.13653352       0.91948938
C        1.78771134      -0.15108030       0.21499038
C        0.99074063      -0.55662328      -1.01463438
O        1.38158166      -0.57990962      -2.14869702
H       -2.52590833      -0.00129361       0.86886847
H       -2.40523855      -0.38104429      -0.84314519
H       -1.66271817      -1.43817311       0.37575565
H       -0.40773881       2.15623003      -0.80262556
H        0.62863004       0.97557299       1.60485627
H        0.38053848      -1.49413703       0.14705750
H        2.53421247       0.62808457       0.07950276
H        2.25086144      -1.03194018       0.66701283
15
Frame=14 idx=006683 GeodesicLength=1.2896972719958735 rxn_smarts="[C:1]([C@@:2]1([O:3][H:11])[C:4]([H:12])([H:13])[C:5]([H:14])([H:15])[C:6]1=[O:7])([H:8])([H:9])[H:10]>>[C:1](/[C:2]([O:3][H:11])=[C:4](\[C:5]([C:6](=[O:7])[H:13])([H:14])[H:15])[H:12])([H:8])([H:9])[H:10]"
C       -1.86099729      -0.39700544       0.11037912
C       -0.59529827       0.41861440      -0.01515787
O       -0.98580536       1.74264487      -0.14999679
C        0.47017033       0.13441060       0.91056285
C        1.78708827      -0.16093541       0.21740216
C        1.00947139      -0.55065485      -1.02794979
O        1.42491618      -0.55069075      -2.15338443
H       -2.52009980      -0.00396559       0.88722458
H       -2.41814611      -0.37227934      -0.82778294
H       -1.65794663      -1.43343879       0.37671510
H       -0.45688536       2.15510885      -0.83560362
H        0.63479572       0.98334586       1.58083051
H        0.39023210      -1.51567368       0.15485627
H        2.55111189       0.60304142       0.10026472
H        2.22739294      -1.05252216       0.67164012
15
Frame=15 idx=006683 GeodesicLength=1.3807857649370288 rxn_smarts="[C:1]([C@@:2]1([O:3][H:11])[C:4]([H:12])([H:13])[C:5]([H:14])([H:15])[C:6]1=[O:7])([H:8])([H:9])[H:10]>>[C:1](/[C:2]([O:3][H:11])=[C:4](\[C:5]([C:6](=[O:7])[H:13])([H:14])[H:15])[H:12])([H:8])([H:9])[H:10]"
C       -1.86181315      -0.39090155       0.11846070
C       -0.59948287       0.42917065      -0.01760286
O       -0.99383994       1.75350548      -0.14278609
C        0.46488269       0.13230253       0.90118940
C        1.78646542      -0.17089741       0.21940596
C        1.02880439      -0.54465178      -1.04136983
O        1.46893024      -0.52190372      -2.15706855
H       -2.51400038      -0.00609178       0.90519072
H       -2.43083531      -0.36306042      -0.81250744
H       -1.65325696      -1.42828411       0.37728605
H       -0.50880084       2.15336264      -0.86719014
H        0.64120063       0.99047881       1.55651985
H        0.40003854      -1.53776293       0.16410050
H        2.56748464       0.57736481       0.12107028
H        2.20422291      -1.07263122       0.67530147
15
Frame=16 idx=006683 GeodesicLength=1.471834352168657 rxn_smarts="[C:1]([C@@:2]1([O:3][H:11])[C:4]([H:12])([H:13])[C:5]([H:14])([H:15])[C:6]1=[O:7])([H:8])([H:9])[H:10]>>[C:1](/[C:2]([O:3][H:11])=[C:4](\[C:5]([C:6](=[O:7])[H:13])([H:14])[H:15])[H:12])([H:8])([H:9])[H:10]"
C       -1.86255111      -0.38438962       0.12628428
C       -0.60360953       0.44003809      -0.02015899
O       -1.00126405       1.76469841      -0.13615748
C        0.45976174       0.13021656       0.89131463
C        1.78583826      -0.18095956       0.22096061
C        1.04876590      -0.53863648      -1.05491978
O        1.51364412      -0.49365745      -2.15977361
H       -2.50761411      -0.00767664       0.92273534
H       -2.44331306      -0.35338240      -0.79735367
H       -1.64865022      -1.42271275       0.37742422
H       -0.56346310       2.15103063      -0.89706694
H        0.64782246       0.99699582       1.53188601
H        0.40994267      -1.56040881       0.17496299
H        2.58327235       0.55108694       0.14184832
H        2.18141769      -1.09224273       0.67801407
