11
Frame=0 idx=002179 GeodesicLength=0.0 rxn_smarts="[N:1]([c:2]1[c:3]([H:9])[c:4]([H:10])[c:5]([H:11])[o:6]1)([H:7])[H:8]>>[N:1]([C:2]#[C:3][C:4]([C:5](=[O:6])[H:11])([H:9])[H:10])([H:7])[H:8]"
N        2.10609907      -0.23884657       0.17844248
C        0.75589968       0.02485364      -0.00232321
C        0.06391444       1.17131750      -0.26855616
C       -1.35539947       0.63172872      -0.15431014
C       -1.28438919      -0.76993141       0.00884965
O       -0.03943980      -1.11525397       0.15090189
H        2.48175493      -0.92727650      -0.45811774
H        2.62831255       0.62164541       0.12392127
H       -1.09040613       1.01914379       0.88790054
H       -2.24310555       1.13901201      -0.50752046
H       -2.02324054      -1.55639259       0.04081185
11
Frame=1 idx=002179 GeodesicLength=0.11512620008041471 rxn_smarts="[N:1]([c:2]1[c:3]([H:9])[c:4]([H:10])[c:5]([H:11])[o:6]1)([H:7])[H:8]>>[N:1]([C:2]#[C:3][C:4]([C:5](=[O:6])[H:11])([H:9])[H:10])([H:7])[H:8]"
N        2.11545267      -0.23449452       0.17374997
C        0.76521370       0.02306315      -0.00711534
C        0.05937691       1.15786977      -0.25931550
C       -1.35816894       0.62617685      -0.15271867
C       -1.29512802      -0.77662269       0.01183399
O       -0.05348677      -1.13541148       0.14065020
H        2.49695605      -0.91153194      -0.47123643
H        2.63710748       0.62733650       0.14171372
H       -1.08067161       1.04217391       0.89324399
H       -2.23986082       1.13293430      -0.52148538
H       -2.04679065      -1.55149385       0.05067945
11
Frame=2 idx=002179 GeodesicLength=0.23019151674806237 rxn_smarts="[N:1]([c:2]1[c:3]([H:9])[c:4]([H:10])[c:5]([H:11])[o:6]1)([H:7])[H:8]>>[N:1]([C:2]#[C:3][C:4]([C:5](=[O:6])[H:11])([H:9])[H:10])([H:7])[H:8]"
N        2.12497926      -0.22985553       0.16900082
C        0.77470081       0.02146994      -0.01179423
C        0.05479400       1.14408596      -0.24990637
C       -1.36101306       0.62046650      -0.15073858
C       -1.30604609      -0.78354369       0.01434289
O       -0.06809098      -1.15594989       0.13041123
H        2.51218420      -0.89536803      -0.48427155
H        2.64592720       0.63281539       0.15937780
H       -1.07070882       1.06568819       0.89841692
H       -2.23627481       1.12662768      -0.53542764
H       -2.07045173      -1.54643653       0.06058870
11
Frame=3 idx=002179 GeodesicLength=0.34523681394999844 rxn_smarts="[N:1]([c:2]1[c:3]([H:9])[c:4]([H:10])[c:5]([H:11])[o:6]1)([H:7])[H:8]>>[N:1]([C:2]#[C:3][C:4]([C:5](=[O:6])[H:11])([H:9])[H:10])([H:7])[H:8]"
N        2.13468872      -0.22490498       0.16419209
C        0.78436506       0.02009183      -0.01631701
C        0.05015721       1.12993927      -0.24024534
C       -1.36393096       0.61458113      -0.14836220
C       -1.31716547      -0.79071050       0.01639746
O       -0.08328284      -1.17689033       0.12023583
H        2.52741767      -0.87881721      -0.49719822
H        2.65478675       0.63810994       0.17680826
H       -1.06050863       1.08976099       0.90339646
H       -2.23231785       1.12008077      -0.54933400
H       -2.09420966      -1.54124090       0.07042667
11
Frame=4 idx=002179 GeodesicLength=0.46022245468808 rxn_smarts="[N:1]([c:2]1[c:3]([H:9])[c:4]([H:10])[c:5]([H:11])[o:6]1)([H:7])[H:8]>>[N:1]([C:2]#[C:3][C:4]([C:5](=[O:6])[H:11])([H:9])[H:10])([H:7])[H:8]"
N        2.14457983      -0.21963935       0.15930776
C        0.79420494       0.01892061      -0.02069864
C        0.04547331       1.11539464      -0.23028044
C       -1.36692910       0.60850256      -0.14558783
C       -1.32851269      -0.79814010       0.01800733
O       -0.09910491      -1.19825442       0.11007998
H        2.54266204      -0.86179555      -0.51005334
H        2.66369106       0.64317256       0.19407132
H       -1.05004946       1.11447195       0.90811709
H       -2.22796729       1.11327579      -0.56320096
H       -2.11804772      -1.53590868       0.08023772
11
Frame=5 idx=002179 GeodesicLength=0.5753023470634535 rxn_smarts="[N:1]([c:2]1[c:3]([H:9])[c:4]([H:10])[c:5]([H:11])[o:6]1)([H:7])[H:8]>>[N:1]([C:2]#[C:3][C:4]([C:5](=[O:6])[H:11])([H:9])[H:10])([H:7])[H:8]"
N        2.15468756      -0.21400441       0.15436895
C        0.80423958       0.01800196      -0.02481021
C        0.04073100       1.10041597      -0.21986897
C       -1.37000026       0.60220476      -0.14239185
C       -1.34012239      -0.80585053       0.01920339
O       -0.11556715      -1.22010312       0.10017824
H        2.55785913      -0.84446915      -0.52278684
H        2.67273206       0.64818700       0.21084871
H       -1.03934419       1.13987941       0.91258380
H       -2.22317014       1.10621264      -0.57699962
H       -2.14204521      -1.53047453       0.08967440
11
Frame=6 idx=002179 GeodesicLength=0.6903458820130468 rxn_smarts="[N:1]([c:2]1[c:3]([H:9])[c:4]([H:10])[c:5]([H:11])[o:6]1)([H:7])[H:8]>>[N:1]([C:2]#[C:3][C:4]([C:5](=[O:6])[H:11])([H:9])[H:10])([H:7])[H:8]"
N        2.16498605      -0.20802960       0.14935075
C        0.81445959       0.01730453      -0.02877400
C        0.03593317       1.08496776      -0.20898577
C       -1.37315524       0.59567043      -0.13878509
C       -1.35201258      -0.81386084       0.01997283
O       -0.13275111      -1.24244000       0.09025871
H        2.57306017      -0.82663263      -0.53547271
H        2.68185331       0.65298964       0.22744920
H       -1.02833901       1.16609101       0.91665384
H       -2.21791883       1.09886905      -0.59071914
H       -2.16611551      -1.52492934       0.09905138
11
Frame=7 idx=002179 GeodesicLength=0.8053548231592429 rxn_smarts="[N:1]([c:2]1[c:3]([H:9])[c:4]([H:10])[c:5]([H:11])[o:6]1)([H:7])[H:8]>>[N:1]([C:2]#[C:3][C:4]([C:5](=[O:6])[H:11])([H:9])[H:10])([H:7])[H:8]"
N        2.17548412      -0.20170543       0.14425882
C        0.82487196       0.01682377      -0.03256600
C        0.03108325       1.06899300      -0.19754169
C       -1.37639720       0.58887058      -0.13475008
C       -1.36422879      -0.82219355       0.02031428
O       -0.15069776      -1.26532235       0.08028680
H        2.58826489      -0.80824596      -0.54817206
H        2.69108731       0.65762457       0.24391094
H       -1.01700214       1.19319903       0.92021584
H       -2.21216673       1.09123603      -0.60433748
H       -2.19029889      -1.51927969       0.10838063
11
Frame=8 idx=002179 GeodesicLength=0.9205129557920447 rxn_smarts="[N:1]([c:2]1[c:3]([H:9])[c:4]([H:10])[c:5]([H:11])[o:6]1)([H:7])[H:8]>>[N:1]([C:2]#[C:3][C:4]([C:5](=[O:6])[H:11])([H:9])[H:10])([H:7])[H:8]"
N        2.18622387      -0.19496669       0.13911715
C        0.83551231       0.01662025      -0.03610357
C        0.02616406       1.05246821      -0.18536702
C       -1.37972481       0.58177033      -0.13025225
C       -1.37680510      -0.83087088       0.02028009
O       -0.16943508      -1.28883686       0.07039235
H        2.60344459      -0.78946943      -0.56078656
H        2.70052820       0.66226063       0.25993035
H       -1.00533027       1.22127194       0.92323474
H       -2.20587295       1.08331372      -0.61779306
H       -2.21470482      -1.51356122       0.11734778
11
Frame=9 idx=002179 GeodesicLength=1.0356348358138499 rxn_smarts="[N:1]([c:2]1[c:3]([H:9])[c:4]([H:10])[c:5]([H:11])[o:6]1)([H:7])[H:8]>>[N:1]([C:2]#[C:3][C:4]([C:5](=[O:6])[H:11])([H:9])[H:10])([H:7])[H:8]"
N        2.19728709      -0.18774620       0.13398083
C        0.84645434       0.01667957      -0.03927535
C        0.02119206       1.03533306      -0.17239646
C       -1.38318729       0.57432025      -0.12501902
C       -1.38983567      -0.83990111       0.01998077
O       -0.18903840      -1.31310968       0.06034373
H        2.61865524      -0.77029411      -0.57324316
H        2.71027179       0.66701512       0.27541622
H       -0.99322377       1.25047260       0.92535897
H       -2.19902291       1.07500542      -0.63093694
H       -2.23955247      -1.50777493       0.12579041
11
Frame=10 idx=002179 GeodesicLength=1.150726046126973 rxn_smarts="[N:1]([c:2]1[c:3]([H:9])[c:4]([H:10])[c:5]([H:11])[o:6]1)([H:7])[H:8]>>[N:1]([C:2]#[C:3][C:4]([C:5](=[O:6])[H:11])([H:9])[H:10])([H:7])[H:8]"
N        2.20857282      -0.18013902       0.12876094
C        0.85762494       0.01698709      -0.04230333
C        0.01616464       1.01749310      -0.15846704
C       -1.38674170       0.56651470      -0.11925721
C       -1.40330406      -0.84930225       0.01941981
O       -0.20960526      -1.33807846       0.04998790
H        2.63389558      -0.75040321      -0.58580973
H        2.72018916       0.67160854       0.29088417
H       -0.98069150       1.28090396       0.92648247
H       -2.19153940       1.06634514      -0.64387200
H       -2.26456523      -1.50192959       0.13417402
11
Frame=11 idx=002179 GeodesicLength=1.2658849201577418 rxn_smarts="[N:1]([c:2]1[c:3]([H:9])[c:4]([H:10])[c:5]([H:11])[o:6]1)([H:7])[H:8]>>[N:1]([C:2]#[C:3][C:4]([C:5](=[O:6])[H:11])([H:9])[H:10])([H:7])[H:8]"
N        2.22012451      -0.17207775       0.12346654
C        0.86905395       0.01758202      -0.04509323
C        0.01108596       0.99887524      -0.14336745
C       -1.39038220       0.55830904      -0.11292328
C       -1.41725181      -0.85908361       0.01872026
O       -0.23116452      -1.36383021       0.03940116
H        2.64914089      -0.72989830      -0.59843393
H        2.73035582       0.67620263       0.30607909
H       -0.96771644       1.31265705       0.92651832
H       -2.18335173       1.05731345      -0.65654357
H       -2.28989444      -1.49604956       0.14217610
11
Frame=12 idx=002179 GeodesicLength=1.3810083966824112 rxn_smarts="[N:1]([c:2]1[c:3]([H:9])[c:4]([H:10])[c:5]([H:11])[o:6]1)([H:7])[H:8]>>[N:1]([C:2]#[C:3][C:4]([C:5](=[O:6])[H:11])([H:9])[H:10])([H:7])[H:8]"
N        2.23192675      -0.16357837       0.11805200
C        0.88073538       0.01846470      -0.04769996
C        0.00595968       0.97937588      -0.12687580
C       -1.39410411       0.54967019      -0.10597291
C       -1.43169454      -0.86926882       0.01795223
O       -0.25383991      -1.39036662       0.02843978
H        2.66439129      -0.70855015      -0.61127757
H        2.74075728       0.68065141       0.32124541
H       -0.95426627       1.34588995       0.92516783
H       -2.17436741       1.04787265      -0.66896869
H       -2.31549814      -1.49016083       0.14993767
11
Frame=13 idx=002179 GeodesicLength=1.4961447702102981 rxn_smarts="[N:1]([c:2]1[c:3]([H:9])[c:4]([H:10])[c:5]([H:11])[o:6]1)([H:7])[H:8]>>[N:1]([C:2]#[C:3][C:4]([C:5](=[O:6])[H:11])([H:9])[H:10])([H:7])[H:8]"
N        2.24401638      -0.15457219       0.11250254
C        0.89269582       0.01968359      -0.05005293
C        0.00079170       0.95887766      -0.10863914
C       -1.39788421       0.54054922      -0.09835013
C       -1.44669351      -0.87987286       0.01722271
O       -0.27767120      -1.41779165       0.01716434
H        2.67961264      -0.68639973      -0.62435683
H        2.75146387       0.68510404       0.33618579
H       -0.94034291       1.38068515       0.92225185
H       -2.16444010       1.03800368      -0.68113008
H       -2.34154848      -1.48426691       0.15720188
11
Frame=14 idx=002179 GeodesicLength=1.6113034225361413 rxn_smarts="[N:1]([c:2]1[c:3]([H:9])[c:4]([H:10])[c:5]([H:11])[o:6]1)([H:7])[H:8]>>[N:1]([C:2]#[C:3][C:4]([C:5](=[O:6])[H:11])([H:9])[H:10])([H:7])[H:8]"
N        2.25640115      -0.14500199       0.10678049
C        0.90494196       0.02130662      -0.05211224
C       -0.00444462       0.93726894      -0.08810414
C       -1.40172450       0.53089631      -0.08999905
C       -1.46230178      -0.89092054       0.01656809
O       -0.30277988      -1.44613561       0.00563540
H        2.69473253      -0.66345977      -0.63772734
H        2.76256290       0.68966073       0.35072278
H       -0.92594291       1.41709318       0.91752837
H       -2.15334106       1.02768541      -0.69310097
H       -2.36810378      -1.47839328       0.16380859
11
Frame=15 idx=002179 GeodesicLength=1.72639103175118 rxn_smarts="[N:1]([c:2]1[c:3]([H:9])[c:4]([H:10])[c:5]([H:11])[o:6]1)([H:7])[H:8]>>[N:1]([C:2]#[C:3][C:4]([C:5](=[O:6])[H:11])([H:9])[H:10])([H:7])[H:8]"
N        2.26906722      -0.13487473       0.10075202
C        0.91746470       0.02336472      -0.05396246
C       -0.00972449       0.91433921      -0.06473708
C       -1.40562440       0.52065544      -0.08086090
C       -1.47856499      -0.90244476       0.01614462
O       -0.32929096      -1.47545152      -0.00619717
H        2.70973672      -0.63923051      -0.65175575
H        2.77403044       0.69402950       0.36525836
H       -0.91100751       1.45530238       0.91048187
H       -2.14083459       1.01683394      -0.70501683
H       -2.39525214      -1.47252366       0.16989330
11
Frame=16 idx=002179 GeodesicLength=1.8414113187103502 rxn_smarts="[N:1]([c:2]1[c:3]([H:9])[c:4]([H:10])[c:5]([H:11])[o:6]1)([H:7])[H:8]>>[N:1]([C:2]#[C:3][C:4]([C:5](=[O:6])[H:11])([H:9])[H:10])([H:7])[H:8]"
N        2.28202612      -0.12413488       0.09425087
C        0.93025356       0.02595614      -0.05546088
C       -0.01505407       0.88981905      -0.03761262
C       -1.40957654       0.50975308      -0.07083448
C       -1.49557505      -0.91448450       0.01613177
O       -0.35731582      -1.50585183      -0.01799656
H        2.72446047      -0.61339027      -0.66687365
H        2.78597637       0.69817279       0.37979705
H       -0.89550035       1.49544563       0.90060078
H       -2.12647608       1.00535873      -0.71709685
H       -2.42321860      -1.46664393       0.17509458
