12
Frame=0 idx=001420 GeodesicLength=0.0 rxn_smarts="[C:1]([C:2](=[O:3])[C:4]([C:5](=[O:6])[H:12])([H:10])[H:11])([H:7])([H:8])[H:9]>>[C:1]([C:2](=[O:3])[C:4]([O+:6]=[C-:5][H:12])([H:10])[H:11])([H:7])([H:8])[H:9]"
C        1.54887602       0.24054521      -0.74427738
C        0.45763493       0.66239447       0.19659132
O        0.33213505       1.77691999       0.62321808
C       -0.49248395      -0.45220739       0.69394111
C       -2.13425737      -0.76731881       0.15813030
O       -1.32010408      -0.46313447      -0.80346052
H        1.14473304      -0.37447872      -1.54809757
H        2.27400251      -0.36627578      -0.19509919
H        2.04940314       1.11847233      -1.14518449
H       -0.05078292      -1.43016086       0.82888139
H       -0.96124599      -0.02434946       1.59331618
H       -2.84791040       0.07959350       0.34204077
12
Frame=1 idx=001420 GeodesicLength=0.05482083758966434 rxn_smarts="[C:1]([C:2](=[O:3])[C:4]([C:5](=[O:6])[H:12])([H:10])[H:11])([H:7])([H:8])[H:9]>>[C:1]([C:2](=[O:3])[C:4]([O+:6]=[C-:5][H:12])([H:10])[H:11])([H:7])([H:8])[H:9]"
C        1.54464202       0.24707639      -0.74743962
C        0.45349165       0.65985761       0.19707977
O        0.33251972       1.77258935       0.63074413
C       -0.49045691      -0.45487070       0.70000224
C       -2.14412235      -0.75041056       0.17459646
O       -1.32288678      -0.53173215      -0.79859767
H        1.14000333      -0.34727020      -1.56648561
H        2.26551677      -0.37584350      -0.21102440
H        2.05389224       1.12776083      -1.13120311
H       -0.03948662      -1.42726248       0.84740145
H       -0.94739622      -0.03618447       1.60936852
H       -2.84571686       0.11628989       0.29555784
12
Frame=2 idx=001420 GeodesicLength=0.10945979629474487 rxn_smarts="[C:1]([C:2](=[O:3])[C:4]([C:5](=[O:6])[H:12])([H:10])[H:11])([H:7])([H:8])[H:9]>>[C:1]([C:2](=[O:3])[C:4]([O+:6]=[C-:5][H:12])([H:10])[H:11])([H:7])([H:8])[H:9]"
C        1.53918867       0.25361440      -0.75120007
C        0.44998265       0.65750776       0.19897324
O        0.33529457       1.76807378       0.64091023
C       -0.48824602      -0.45703740       0.70730269
C       -2.15249735      -0.73192126       0.18870670
O       -1.32513134      -0.60172114      -0.78976020
H        1.13190332      -0.31834000      -1.58483198
H        2.25572082      -0.38652969      -0.22964342
H        2.05756548       1.13647490      -1.11760027
H       -0.02777390      -1.42336158       0.86800061
H       -0.93470250      -0.04699181       1.62543908
H       -2.84130440       0.15023203       0.24370341
12
Frame=3 idx=001420 GeodesicLength=0.16411408066994707 rxn_smarts="[C:1]([C:2](=[O:3])[C:4]([C:5](=[O:6])[H:12])([H:10])[H:11])([H:7])([H:8])[H:9]>>[C:1]([C:2](=[O:3])[C:4]([O+:6]=[C-:5][H:12])([H:10])[H:11])([H:7])([H:8])[H:9]"
C        1.53208949       0.26025761      -0.75583448
C        0.44753018       0.65527294       0.20297524
O        0.34125252       1.76325316       0.65446819
C       -0.48575633      -0.45852172       0.71657010
C       -2.15903359      -0.71204038       0.20027161
O       -1.32607545      -0.67354342      -0.77613431
H        1.11919232      -0.28624304      -1.60375315
H        2.24373850      -0.39939493      -0.25244218
H        2.06063341       1.14453840      -1.10408440
H       -0.01546906      -1.41810036       0.89186531
H       -0.92370430      -0.05616512       1.64185631
H       -2.83439770       0.18068687       0.18424176
12
Frame=4 idx=001420 GeodesicLength=0.2187839509587555 rxn_smarts="[C:1]([C:2](=[O:3])[C:4]([C:5](=[O:6])[H:12])([H:10])[H:11])([H:7])([H:8])[H:9]>>[C:1]([C:2](=[O:3])[C:4]([O+:6]=[C-:5][H:12])([H:10])[H:11])([H:7])([H:8])[H:9]"
C        1.52355458       0.26696319      -0.76109398
C        0.44599822       0.65323515       0.20880671
O        0.35011670       1.75812657       0.67111835
C       -0.48304432      -0.45949604       0.72711740
C       -2.16385574      -0.69046361       0.20872533
O       -1.32652632      -0.74637500      -0.75793611
H        1.10243209      -0.25221826      -1.62215863
H        2.23000879      -0.41324239      -0.27837817
H        2.06278389       1.15182890      -1.09124540
H       -0.00283924      -1.41177800       0.91779107
H       -0.91424010      -0.06424853       1.65831787
H       -2.82438855       0.20766803       0.11893556
12
Frame=5 idx=001420 GeodesicLength=0.27315720715520003 rxn_smarts="[C:1]([C:2](=[O:3])[C:4]([C:5](=[O:6])[H:12])([H:10])[H:11])([H:7])([H:8])[H:9]>>[C:1]([C:2](=[O:3])[C:4]([O+:6]=[C-:5][H:12])([H:10])[H:11])([H:7])([H:8])[H:9]"
C        1.51341438       0.27369956      -0.76708188
C        0.44594853       0.65142960       0.21698745
O        0.36285566       1.75266453       0.69132065
C       -0.48012384      -0.45957146       0.73927280
C       -2.16661196      -0.66780551       0.21363807
O       -1.32613691      -0.81899717      -0.73487862
H        1.08097083      -0.21550994      -1.64013864
H        2.21383066      -0.42876078      -0.30827125
H        2.06436904       1.15801125      -1.07908164
H        0.00997591      -1.40399299       0.94622386
H       -0.90685838      -0.07053797       1.67483406
H       -2.81163391       0.22937087       0.04717513
12
Frame=6 idx=001420 GeodesicLength=0.32786620116009285 rxn_smarts="[C:1]([C:2](=[O:3])[C:4]([C:5](=[O:6])[H:12])([H:10])[H:11])([H:7])([H:8])[H:9]>>[C:1]([C:2](=[O:3])[C:4]([O+:6]=[C-:5][H:12])([H:10])[H:11])([H:7])([H:8])[H:9]"
C        1.50161765       0.28059283      -0.77364926
C        0.44719818       0.64974007       0.22741303
O        0.37897900       1.74665985       0.71488059
C       -0.47696839      -0.45915481       0.75268265
C       -2.16729102      -0.64345624       0.21463358
O       -1.32552816      -0.89198475      -0.70683764
H        1.05488458      -0.17677647      -1.65688403
H        2.19535524      -0.44491997      -0.34157772
H        2.06483233       1.16329911      -1.06801318
H        0.02289358      -1.39519770       0.97659220
H       -0.90136955      -0.07571349       1.69132015
H       -2.79460344       0.24691155      -0.03056035
12
Frame=7 idx=001420 GeodesicLength=0.3822889312287768 rxn_smarts="[C:1]([C:2](=[O:3])[C:4]([C:5](=[O:6])[H:12])([H:10])[H:11])([H:7])([H:8])[H:9]>>[C:1]([C:2](=[O:3])[C:4]([O+:6]=[C-:5][H:12])([H:10])[H:11])([H:7])([H:8])[H:9]"
C        1.48824788       0.28755214      -0.78072550
C        0.45021570       0.64825179       0.24021391
O        0.39919262       1.74014696       0.74171405
C       -0.47367616      -0.45780003       0.76732232
C       -2.16565306      -0.61844024       0.21137197
O       -1.32469514      -0.96314433      -0.67416074
H        1.02431117      -0.13572403      -1.67224016
H        2.17400719      -0.46211854      -0.37842446
H        2.06474446       1.16726337      -1.05801864
H        0.03553330      -1.38510414       1.00869874
H       -0.89814811      -0.07910237       1.70755388
H       -2.77407985       0.25821942      -0.11330536
12
Frame=8 idx=001420 GeodesicLength=0.4375660158870881 rxn_smarts="[C:1]([C:2](=[O:3])[C:4]([C:5](=[O:6])[H:12])([H:10])[H:11])([H:7])([H:8])[H:9]>>[C:1]([C:2](=[O:3])[C:4]([O+:6]=[C-:5][H:12])([H:10])[H:11])([H:7])([H:8])[H:9]"
C        1.47302035       0.29480176      -0.78823702
C        0.45490817       0.64666984       0.25546228
O        0.42300022       1.73274509       0.77168785
C       -0.47014594      -0.45602087       0.78306312
C       -2.16135454      -0.59187652       0.20348001
O       -1.32431111      -1.03380147      -0.63626396
H        0.98882362      -0.09259876      -1.68545919
H        2.14965892      -0.47943745      -0.41863409
H        2.06328918       1.17032260      -1.04946199
H        0.04790348      -1.37421456       1.04244074
H       -0.89701315      -0.08138494       1.72350983
H       -2.74777920       0.26479529      -0.20158757
12
Frame=9 idx=001420 GeodesicLength=0.49344432282699535 rxn_smarts="[C:1]([C:2](=[O:3])[C:4]([C:5](=[O:6])[H:12])([H:10])[H:11])([H:7])([H:8])[H:9]>>[C:1]([C:2](=[O:3])[C:4]([O+:6]=[C-:5][H:12])([H:10])[H:11])([H:7])([H:8])[H:9]"
C        1.45625819       0.30228474      -0.79603826
C        0.46151179       0.64507506       0.27291169
O        0.45070765       1.72450412       0.80446009
C       -0.46649900      -0.45351482       0.79960497
C       -2.15438284      -0.56477494       0.19087569
O       -1.32493206      -1.10195710      -0.59390102
H        0.94917157      -0.04761450      -1.69628471
H        2.12219148      -0.49679952      -0.46177057
H        2.06105083       1.17224196      -1.04233072
H        0.05961954      -1.36249473       1.07721717
H       -0.89805297      -0.08211256       1.73890499
H       -2.71664418       0.26516229      -0.29364931
12
Frame=10 idx=001420 GeodesicLength=0.5491834085325363 rxn_smarts="[C:1]([C:2](=[O:3])[C:4]([C:5](=[O:6])[H:12])([H:10])[H:11])([H:7])([H:8])[H:9]>>[C:1]([C:2](=[O:3])[C:4]([O+:6]=[C-:5][H:12])([H:10])[H:11])([H:7])([H:8])[H:9]"
C        1.43841343       0.30992176      -0.80380964
C        0.46989838       0.64346218       0.29183191
O        0.48197998       1.71533161       0.83899789
C       -0.46289827      -0.45012886       0.81637269
C       -2.14481487      -0.53809318       0.17398749
O       -1.32709128      -1.16543016      -0.54831103
H        0.90695109      -0.00156232      -1.70436549
H        2.09184432      -0.51364419      -0.50658620
H        2.05834244       1.17291975      -1.03663199
H        0.07012011      -1.35014134       1.11194001
H       -0.90094632      -0.08126009       1.75331998
H       -2.68179900       0.25862486      -0.38674562
12
Frame=11 idx=001420 GeodesicLength=0.6072070138342038 rxn_smarts="[C:1]([C:2](=[O:3])[C:4]([C:5](=[O:6])[H:12])([H:10])[H:11])([H:7])([H:8])[H:9]>>[C:1]([C:2](=[O:3])[C:4]([O+:6]=[C-:5][H:12])([H:10])[H:11])([H:7])([H:8])[H:9]"
C        1.41870093       0.31809382      -0.81172738
C        0.48030459       0.64122894       0.31287960
O        0.51657487       1.70466478       0.87562192
C       -0.45910497      -0.44646903       0.83383586
C       -2.13174082      -0.51047526       0.15211720
O       -1.33163379      -1.22695033      -0.49757634
H        0.86038050       0.04656310      -1.70921204
H        2.05773244      -0.52962755      -0.55410074
H        2.05400520       1.17299028      -1.03259452
H        0.07971354      -1.33757675       1.14760057
H       -0.90571811      -0.07922783       1.76700376
H       -2.63921436       0.24678584      -0.48384789
12
Frame=12 idx=001420 GeodesicLength=0.6655835985494003 rxn_smarts="[C:1]([C:2](=[O:3])[C:4]([C:5](=[O:6])[H:12])([H:10])[H:11])([H:7])([H:8])[H:9]>>[C:1]([C:2](=[O:3])[C:4]([O+:6]=[C-:5][H:12])([H:10])[H:11])([H:7])([H:8])[H:9]"
C        1.39858027       0.32648360      -0.81923920
C        0.49210141       0.63875086       0.33432964
O        0.55332616       1.69305641       0.91226738
C       -0.45545500      -0.44218565       0.85076913
C       -2.11621747      -0.48407562       0.12671336
O       -1.33945209      -1.28263383      -0.44469456
H        0.81327758       0.09492470      -1.71101370
H        2.02141421      -0.54411949      -0.60167054
H        2.04945447       1.17220976      -1.02974838
H        0.08772885      -1.32511230       1.18185743
H       -0.91158212      -0.07596857       1.77933817
H       -2.59317629       0.22867014      -0.57890872
12
Frame=13 idx=001420 GeodesicLength=0.7252536414131305 rxn_smarts="[C:1]([C:2](=[O:3])[C:4]([C:5](=[O:6])[H:12])([H:10])[H:11])([H:7])([H:8])[H:9]>>[C:1]([C:2](=[O:3])[C:4]([O+:6]=[C-:5][H:12])([H:10])[H:11])([H:7])([H:8])[H:9]"
C        1.37811243       0.33523610      -0.82634502
C        0.50535108       0.63577301       0.35612149
O        0.59219287       1.68017862       0.94889933
C       -0.45186138      -0.43745493       0.86709040
C       -2.09800331      -0.45829556       0.09796634
O       -1.35143461      -1.33292547      -0.38932484
H        0.76572918       0.14335516      -1.70962338
H        1.98328617      -0.55662261      -0.64907311
H        2.04429170       1.17106536      -1.02819726
H        0.09416470      -1.31308130       1.21457956
H       -0.91816132      -0.07167905       1.79037047
H       -2.54366751       0.20445066      -0.67246398
12
Frame=14 idx=001420 GeodesicLength=0.7864079082555594 rxn_smarts="[C:1]([C:2](=[O:3])[C:4]([C:5](=[O:6])[H:12])([H:10])[H:11])([H:7])([H:8])[H:9]>>[C:1]([C:2](=[O:3])[C:4]([O+:6]=[C-:5][H:12])([H:10])[H:11])([H:7])([H:8])[H:9]"
C        1.35741202       0.34444920      -0.83304417
C        0.51970351       0.63227855       0.37778529
O        0.63246948       1.66613398       0.98480901
C       -0.44840180      -0.43228250       0.88274639
C       -2.07717349      -0.43414273       0.06626988
O       -1.36774635      -1.37787136      -0.33162942
H        0.71828961       0.19305898      -1.70550832
H        1.94257545      -0.56763323      -0.69659828
H        2.03935990       1.16928764      -1.02712765
H        0.09905687      -1.30141308       1.24590578
H       -0.92536757      -0.06617154       1.80001810
H       -2.49017760       0.17430610      -0.76362660
12
Frame=15 idx=001420 GeodesicLength=0.8487083219940516 rxn_smarts="[C:1]([C:2](=[O:3])[C:4]([C:5](=[O:6])[H:12])([H:10])[H:11])([H:7])([H:8])[H:9]>>[C:1]([C:2](=[O:3])[C:4]([O+:6]=[C-:5][H:12])([H:10])[H:11])([H:7])([H:8])[H:9]"
C        1.33704266       0.35411242      -0.83922082
C        0.53478392       0.62836155       0.39869682
O        0.67360164       1.65102523       1.01940122
C       -0.44512751      -0.42668031       0.89735719
C       -2.05415201      -0.41208393       0.03236608
O       -1.38887289      -1.41679271      -0.27234674
H        0.67231891       0.24369200      -1.69896076
H        1.90000171      -0.57685699      -0.74346627
H        2.03514677       1.16693742      -1.02623950
H        0.10238781      -1.29031482       1.27512423
H       -0.93270532      -0.05962009       1.80823368
H       -2.43442571       0.13822023      -0.85094516
12
Frame=16 idx=001420 GeodesicLength=0.9123017333334135 rxn_smarts="[C:1]([C:2](=[O:3])[C:4]([C:5](=[O:6])[H:12])([H:10])[H:11])([H:7])([H:8])[H:9]>>[C:1]([C:2](=[O:3])[C:4]([O+:6]=[C-:5][H:12])([H:10])[H:11])([H:7])([H:8])[H:9]"
C        1.31717618       0.36429069      -0.84489296
C        0.55037905       0.62394291       0.41864997
O        0.71504240       1.63487611       1.05236331
C       -0.44204588      -0.42078181       0.91083760
C       -2.02904669      -0.39233656      -0.00335467
O       -1.41534321      -1.44958333      -0.21137626
H        0.62833204       0.29543790      -1.69021400
H        1.85575108      -0.58413548      -0.78958789
H        2.03176310       1.16411268      -1.02537255
H        0.10422695      -1.27997543       1.30201313
H       -0.93988753      -0.05221737       1.81511314
H       -2.37634748       0.09636969      -0.93417882
