10
Frame=0 idx=006023 GeodesicLength=0.0 rxn_smarts="[C:1]([O:2][C:3]([C:4]#[N:5])([H:9])[H:10])([H:6])([H:7])[H:8]>>[C:1]1([H:6])([H:7])[O:2][C:3]([H:9])([H:10])[C:4]1=[N:5][H:8]"
C       -0.78316878       0.85041146       0.17400118
O       -0.82045327       0.02528014      -0.97828114
C        0.35547870      -0.72975313      -0.87981896
C        0.67605930      -0.41285586       0.56466484
N        1.22060880      -0.57861362       1.62784807
H       -1.75168477       0.86384442       0.67846527
H       -0.43430887       1.86352016      -0.04744891
H        0.19662063       0.28557409       1.45681778
H        1.15664829      -0.37194917      -1.53780254
H        0.18419997      -1.79545848      -1.05844558
10
Frame=1 idx=006023 GeodesicLength=0.0969119178776507 rxn_smarts="[C:1]([O:2][C:3]([C:4]#[N:5])([H:9])[H:10])([H:6])([H:7])[H:8]>>[C:1]1([H:6])([H:7])[O:2][C:3]([H:9])([H:10])[C:4]1=[N:5][H:8]"
C       -0.78324324       0.84600632       0.17886927
O       -0.80966497       0.03859740      -0.98638809
C        0.35791247      -0.72967185      -0.88264626
C        0.69760068      -0.40026802       0.55249669
N        1.23219595      -0.56721850       1.62017692
H       -1.76098769       0.85765491       0.66503047
H       -0.42833605       1.86078130      -0.02521638
H        0.16856836       0.28019682       1.47394375
H        1.15646074      -0.39057655      -1.55299724
H        0.16949374      -1.79550183      -1.04326913
10
Frame=2 idx=006023 GeodesicLength=0.19336413571561073 rxn_smarts="[C:1]([O:2][C:3]([C:4]#[N:5])([H:9])[H:10])([H:6])([H:7])[H:8]>>[C:1]1([H:6])([H:7])[O:2][C:3]([H:9])([H:10])[C:4]1=[N:5][H:8]"
C       -0.78315246       0.84122365       0.18382957
O       -0.79828583       0.05245698      -0.99449204
C        0.36035106      -0.72945117      -0.88539031
C        0.71933265      -0.38742200       0.53995233
N        1.24323430      -0.55532141       1.61240528
H       -1.76980049       0.85129028       0.65130844
H       -0.42287569       1.85756043      -0.00260787
H        0.14073585       0.27422873       1.49051237
H        1.15595409      -0.40981179      -1.56802938
H        0.15450652      -1.79475370      -1.02748839
10
Frame=3 idx=006023 GeodesicLength=0.2899507851890332 rxn_smarts="[C:1]([O:2][C:3]([C:4]#[N:5])([H:9])[H:10])([H:6])([H:7])[H:8]>>[C:1]1([H:6])([H:7])[O:2][C:3]([H:9])([H:10])[C:4]1=[N:5][H:8]"
C       -0.78298192       0.83611356       0.18890114
O       -0.78643366       0.06677937      -1.00257013
C        0.36283445      -0.72919857      -0.88812665
C        0.74129091      -0.37450485       0.52701873
N        1.25380221      -0.54303572       1.60455297
H       -1.77830579       0.84488612       0.63733801
H       -0.41792359       1.85398256       0.02044260
H        0.11314903       0.26802451       1.50667455
H        1.15522118      -0.42964796      -1.58288745
H        0.13934718      -1.79339903      -1.01134378
10
Frame=4 idx=006023 GeodesicLength=0.38659538887578315 rxn_smarts="[C:1]([O:2][C:3]([C:4]#[N:5])([H:9])[H:10])([H:6])([H:7])[H:8]>>[C:1]1([H:6])([H:7])[O:2][C:3]([H:9])([H:10])[C:4]1=[N:5][H:8]"
C       -0.78266756       0.83061471       0.19407001
O       -0.77414498       0.08144192      -1.01051829
C        0.36534857      -0.72889013      -0.89086288
C        0.76345898      -0.36157923       0.51366354
N        1.26378512      -0.53039166       1.59659680
H       -1.78637670       0.83848635       0.62314919
H       -0.41338343       1.84992352       0.04378575
H        0.08571353       0.26170105       1.52258557
H        1.15413452      -0.44993826      -1.59758376
H        0.12413195      -1.79136827      -0.99488593
10
Frame=5 idx=006023 GeodesicLength=0.4832196518707533 rxn_smarts="[C:1]([O:2][C:3]([C:4]#[N:5])([H:9])[H:10])([H:6])([H:7])[H:8]>>[C:1]1([H:6])([H:7])[O:2][C:3]([H:9])([H:10])[C:4]1=[N:5][H:8]"
C       -0.78216989       0.82471463       0.19933769
O       -0.76145883       0.09639002      -1.01826273
C        0.36789825      -0.72852745      -0.89360996
C        0.78593116      -0.34861521       0.49983090
N        1.27320938      -0.51730224       1.58849750
H       -1.79396768       0.83219983       0.60872159
H       -0.40916703       1.84533592       0.06738208
H        0.05818110       0.25511888       1.53838886
H        1.15261237      -0.47065277      -1.61217860
H        0.10893115      -1.78866161      -0.97810733
10
Frame=6 idx=006023 GeodesicLength=0.5798706907283144 rxn_smarts="[C:1]([O:2][C:3]([C:4]#[N:5])([H:9])[H:10])([H:6])([H:7])[H:8]>>[C:1]1([H:6])([H:7])[O:2][C:3]([H:9])([H:10])[C:4]1=[N:5][H:8]"
C       -0.78145580       0.81838909       0.20471083
O       -0.74849430       0.11144763      -1.02569295
C        0.37049447      -0.72812422      -0.89639792
C        0.80871780      -0.33569716       0.48549099
N        1.28194578      -0.50383492       1.58025765
H       -1.80101645       0.82615400       0.59413495
H       -0.40517065       1.84016455       0.09108950
H        0.03046291       0.24844039       1.55423750
H        1.15058292      -0.49161770      -1.62670280
H        0.09393332      -1.78532166      -0.96112775
10
Frame=7 idx=006023 GeodesicLength=0.6764993283232412 rxn_smarts="[C:1]([O:2][C:3]([C:4]#[N:5])([H:9])[H:10])([H:6])([H:7])[H:8]>>[C:1]1([H:6])([H:7])[O:2][C:3]([H:9])([H:10])[C:4]1=[N:5][H:8]"
C       -0.78047954       0.81158880       0.21017220
O       -0.73537840       0.12641919      -1.03271521
C        0.37313029      -0.72765966      -0.89922080
C        0.83181452      -0.32293041       0.47063114
N        1.28986854      -0.49012624       1.57185251
H       -1.80742685       0.82044650       0.57942897
H       -0.40128912       1.83429928       0.11473527
H        0.00250426       0.24188645       1.57026254
H        1.14790886      -0.51261550      -1.64110557
H        0.07934745      -1.78130842      -0.94404105
10
Frame=8 idx=006023 GeodesicLength=0.7731306519449724 rxn_smarts="[C:1]([O:2][C:3]([C:4]#[N:5])([H:9])[H:10])([H:6])([H:7])[H:8]>>[C:1]1([H:6])([H:7])[O:2][C:3]([H:9])([H:10])[C:4]1=[N:5][H:8]"
C       -0.77920455       0.80432769       0.21577060
O       -0.72224244       0.14119312      -1.03921986
C        0.37584332      -0.72717918      -0.90211943
C        0.85534355      -0.31028140       0.45517039
N        1.29690599      -0.47605104       1.56324944
H       -1.81316700       0.81527659       0.56468813
H       -0.39739034       1.82776396       0.13825200
H       -0.02600008       0.23530798       1.58662922
H        1.14460113      -0.53356353      -1.65551610
H        0.06531042      -1.77679421      -0.92690439
10
Frame=9 idx=006023 GeodesicLength=0.8698164860090468 rxn_smarts="[C:1]([O:2][C:3]([C:4]#[N:5])([H:9])[H:10])([H:6])([H:7])[H:8]>>[C:1]1([H:6])([H:7])[O:2][C:3]([H:9])([H:10])[C:4]1=[N:5][H:8]"
C       -0.77758978       0.79655138       0.22151659
O       -0.70914111       0.15554999      -1.04515343
C        0.37864053      -0.72667497      -0.90512577
C        0.87925693      -0.29787183       0.43909249
N        1.30287703      -0.46180428       1.55444098
H       -1.81816248       0.81069025       0.55002693
H       -0.39337618       1.82046617       0.16150236
H       -0.05510709       0.22911860       1.60350623
H        1.14054731      -0.55426391      -1.66996953
H        0.05205484      -1.77176138      -0.90983686
10
Frame=10 idx=006023 GeodesicLength=0.9664508664250169 rxn_smarts="[C:1]([O:2][C:3]([C:4]#[N:5])([H:9])[H:10])([H:6])([H:7])[H:8]>>[C:1]1([H:6])([H:7])[O:2][C:3]([H:9])([H:10])[C:4]1=[N:5][H:8]"
C       -0.77559613       0.78825019       0.22744122
O       -0.69632800       0.16934450      -1.05039000
C        0.38155591      -0.72616330      -0.90824656
C        0.90365351      -0.28574316       0.42235157
N        1.30765111      -0.44736264       1.54538824
H       -1.82231943       0.80690845       0.53553144
H       -0.38911415       1.81237548       0.18432019
H       -0.08503956       0.22328644       1.62103462
H        1.13574335      -0.57451535      -1.68450306
H        0.03979339      -1.76638061      -0.89292766
10
Frame=11 idx=006023 GeodesicLength=1.062997639023792 rxn_smarts="[C:1]([O:2][C:3]([C:4]#[N:5])([H:9])[H:10])([H:6])([H:7])[H:8]>>[C:1]1([H:6])([H:7])[O:2][C:3]([H:9])([H:10])[C:4]1=[N:5][H:8]"
C       -0.77317312       0.77936645       0.23357750
O       -0.68387215       0.18244473      -1.05490646
C        0.38460126      -0.72564256      -0.91150347
C        0.92855516      -0.27393849       0.40491355
N        1.31109428      -0.43276101       1.53602998
H       -1.82555375       0.80397576       0.52128548
H       -0.38449519       1.80341766       0.20663191
H       -0.11596567       0.21802167       1.63937636
H        1.13014378      -0.59419465      -1.69914927
H        0.02866540      -1.76068956      -0.87625556
10
Frame=12 idx=006023 GeodesicLength=1.1595844073039587 rxn_smarts="[C:1]([O:2][C:3]([C:4]#[N:5])([H:9])[H:10])([H:6])([H:7])[H:8]>>[C:1]1([H:6])([H:7])[O:2][C:3]([H:9])([H:10])[C:4]1=[N:5][H:8]"
C       -0.77032183       0.76987936       0.23999025
O       -0.67184264       0.19473582      -1.05867287
C        0.38783090      -0.72515602      -0.91494282
C        0.95400361      -0.26257215       0.38673695
N        1.31308965      -0.41810709       1.52627613
H       -1.82788059       0.80194582       0.50743272
H       -0.37945383       1.79363076       0.22839159
H       -0.14805603       0.21367890       1.65872317
H        1.12380377      -0.61319318      -1.71397838
H        0.01882700      -1.75484221      -0.85995672
10
Frame=13 idx=006023 GeodesicLength=1.2561643941883667 rxn_smarts="[C:1]([O:2][C:3]([C:4]#[N:5])([H:9])[H:10])([H:6])([H:7])[H:8]>>[C:1]1([H:6])([H:7])[O:2][C:3]([H:9])([H:10])[C:4]1=[N:5][H:8]"
C       -0.76701452       0.75972174       0.24672971
O       -0.66027554       0.20617357      -1.06168206
C        0.39127144      -0.72470872      -0.91858838
C        0.98003318      -0.25171536       0.36779517
N        1.31353594      -0.40342551       1.51602890
H       -1.82923345       0.80080734       0.49404525
H       -0.37393086       1.78296162       0.24957949
H       -0.18148169       0.21053103       1.67923204
H        1.11673753      -0.63143507      -1.72902520
H        0.01035797      -1.74891065      -0.84411490
10
Frame=14 idx=006023 GeodesicLength=1.3527290327001964 rxn_smarts="[C:1]([O:2][C:3]([C:4]#[N:5])([H:9])[H:10])([H:6])([H:7])[H:8]>>[C:1]1([H:6])([H:7])[O:2][C:3]([H:9])([H:10])[C:4]1=[N:5][H:8]"
C       -0.76324408       0.74882246       0.25385365
O       -0.64918695       0.21673071      -1.06392734
C        0.39495717      -0.72431062      -0.92246857
C        1.00666262      -0.24147111       0.34807914
N        1.31236319      -0.38877612       1.50517485
H       -1.82957559       0.80051904       0.48120286
H       -0.36789015       1.77136779       0.27019409
H       -0.21639873       0.20894265       1.70104889
H        1.10899199      -0.64884836      -1.74431707
H        0.00332052      -1.74297643      -0.82884050
10
Frame=15 idx=006023 GeodesicLength=1.4492783898898893 rxn_smarts="[C:1]([O:2][C:3]([C:4]#[N:5])([H:9])[H:10])([H:6])([H:7])[H:8]>>[C:1]1([H:6])([H:7])[O:2][C:3]([H:9])([H:10])[C:4]1=[N:5][H:8]"
C       -0.75902079       0.73710145       0.26142260
O       -0.63857538       0.22639413      -1.06540379
C        0.39892308      -0.72396982      -0.92661385
C        1.03388008      -0.23197172       0.32761061
N        1.30954266      -0.37425509       1.49359555
H       -1.82888548       0.80100065       0.46898572
H       -0.36131848       1.75880319       0.29024410
H       -0.25293820       0.20936760       1.72429784
H        1.10063667      -0.66535190      -1.75986764
H       -0.00224416      -1.73711849      -0.81427114
10
Frame=16 idx=006023 GeodesicLength=1.5458135748221355 rxn_smarts="[C:1]([O:2][C:3]([C:4]#[N:5])([H:9])[H:10])([H:6])([H:7])[H:8]>>[C:1]1([H:6])([H:7])[O:2][C:3]([H:9])([H:10])[C:4]1=[N:5][H:8]"
C       -0.75437429       0.72447237       0.26949660
O       -0.62842579       0.23516814      -1.06610628
C        0.40320085      -0.72368980      -0.93105263
C        1.06163895      -0.22337161       0.30644926
N        1.30511052      -0.35998588       1.48117598
H       -1.82715707       0.80213748       0.45746924
H       -0.35422619       1.74521672       0.30974807
H       -0.29120655       0.21231656       1.74905598
H        1.09176190      -0.68085454      -1.77567256
H       -0.00632234      -1.73140943      -0.80056365
