21
Frame=0 idx=011537 GeodesicLength=0.0 rxn_smarts="[C:1]([C@@:2]1([H:11])[C:3]([H:12])([H:13])[C@:4]([C:5]([H:15])([H:16])[H:17])([H:14])[C@:6]1([C:7]([H:19])([H:20])[H:21])[H:18])([H:8])([H:9])[H:10]>>[C:1]([C:2]([C:3]([C@@:4]([C:5]([H:15])([H:16])[H:17])([C:6][C:7]([H:19])([H:20])[H:21])[H:14])([H:12])[H:13])([H:11])[H:18])([H:8])([H:9])[H:10]"
C        2.44847659      -0.23358662       0.06538289
C        1.19586495      -0.48783106      -0.73008589
C        0.03635221      -1.19413247      -0.02209271
C       -1.14019030      -0.39247562      -0.55856858
C       -2.37429083      -0.34360417       0.32584892
C       -0.43392642       0.95848458      -0.78693454
C       -0.20912494       1.74545038       0.46907051
H        2.23564442       0.37363175       0.94829160
H        2.86312013      -1.18300810       0.41848268
H        3.21546457       0.27136017      -0.52329435
H        1.40461561      -0.94381327      -1.70193187
H        0.00380369      -2.27312850      -0.20280544
H        0.12619755      -1.05194921       1.05852589
H       -1.43835190      -0.78787467      -1.53590688
H       -2.13732335      -0.00543689       1.33700648
H       -3.12884193       0.33033553      -0.08727774
H       -2.82562930      -1.33526283       0.40538071
H        0.76055555       0.55371320      -1.22664463
H        0.58572154       2.48220128       0.34577213
H       -0.05242007       1.19806823       1.41083718
H       -1.13571773       2.31885830       0.59094371
21
Frame=1 idx=011537 GeodesicLength=0.07086041856759638 rxn_smarts="[C:1]([C@@:2]1([H:11])[C:3]([H:12])([H:13])[C@:4]([C:5]([H:15])([H:16])[H:17])([H:14])[C@:6]1([C:7]([H:19])([H:20])[H:21])[H:18])([H:8])([H:9])[H:10]>>[C:1]([C:2]([C:3]([C@@:4]([C:5]([H:15])([H:16])[H:17])([C:6][C:7]([H:19])([H:20])[H:21])[H:14])([H:12])[H:13])([H:11])[H:18])([H:8])([H:9])[H:10]"
C        2.45747536      -0.24539256       0.05806013
C        1.19719080      -0.48644267      -0.73138836
C        0.04052811      -1.18935994      -0.01548302
C       -1.13779941      -0.38928947      -0.55541931
C       -2.37516269      -0.34691894       0.32456506
C       -0.42624301       0.95753729      -0.77508096
C       -0.22287779       1.75595381       0.47598183
H        2.25499228       0.35993783       0.94474257
H        2.86920040      -1.19864677       0.40396872
H        3.22440308       0.25664861      -0.53332351
H        1.39904493      -0.95426765      -1.69920754
H        0.00168087      -2.26891982      -0.18970633
H        0.13328891      -1.04229994       1.06434475
H       -1.42767955      -0.78316477      -1.53571081
H       -2.14340338      -0.01414082       1.33869331
H       -3.12935760       0.32819208      -0.08730564
H       -2.82483954      -1.33991936       0.39677610
H        0.77077891       0.56456802      -1.24703542
H        0.57390078       2.49206176       0.36170342
H       -0.08299066       1.21444307       1.42331238
H       -1.15213079       2.32942026       0.57751265
21
Frame=2 idx=011537 GeodesicLength=0.14170877805549598 rxn_smarts="[C:1]([C@@:2]1([H:11])[C:3]([H:12])([H:13])[C@:4]([C:5]([H:15])([H:16])[H:17])([H:14])[C@:6]1([C:7]([H:19])([H:20])[H:21])[H:18])([H:8])([H:9])[H:10]>>[C:1]([C:2]([C:3]([C@@:4]([C:5]([H:15])([H:16])[H:17])([C:6][C:7]([H:19])([H:20])[H:21])[H:14])([H:12])[H:13])([H:11])[H:18])([H:8])([H:9])[H:10]"
C        2.46665723      -0.25756495       0.05046687
C        1.19862084      -0.48505003      -0.73260393
C        0.04488383      -1.18450132      -0.00858673
C       -1.13520322      -0.38598690      -0.55208266
C       -2.37592795      -0.35024450       0.32324130
C       -0.41808233       0.95661341      -0.76279210
C       -0.23712577       1.76660066       0.48296147
H        2.27493880       0.34568060       0.94100394
H        2.87528744      -1.21473658       0.38894764
H        3.23340751       0.24156134      -0.54375790
H        1.39320133      -0.96435341      -1.69645007
H       -0.00028088      -2.26456100      -0.17622372
H        0.14064963      -1.03233163       1.07038105
H       -1.41671555      -0.77821363      -1.53532588
H       -2.14951140      -0.02301624       1.34035818
H       -3.12968513       0.32611760      -0.08739019
H       -2.82390028      -1.34456097       0.38793700
H        0.78077441       0.57535515      -1.26727138
H        0.56163973       2.50197926       0.37828131
H       -0.11491604       1.23115296       1.43571325
H       -1.16871218       2.34006016       0.56319257
21
Frame=3 idx=011537 GeodesicLength=0.21254012615893098 rxn_smarts="[C:1]([C@@:2]1([H:11])[C:3]([H:12])([H:13])[C@:4]([C:5]([H:15])([H:16])[H:17])([H:14])[C@:6]1([C:7]([H:19])([H:20])[H:21])[H:18])([H:8])([H:9])[H:10]>>[C:1]([C:2]([C:3]([C@@:4]([C:5]([H:15])([H:16])[H:17])([C:6][C:7]([H:19])([H:20])[H:21])[H:14])([H:12])[H:13])([H:11])[H:18])([H:8])([H:9])[H:10]"
C        2.47601754      -0.27012112       0.04260707
C        1.20016383      -0.48365771      -0.73372250
C        0.04942545      -1.17955043      -0.00140204
C       -1.13239253      -0.38255450      -0.54855102
C       -2.37657473      -0.35358335       0.32188432
C       -0.40945017       0.95572890      -0.75003674
C       -0.25188220       1.77739526       0.48999049
H        2.29548768       0.33081970       0.93707843
H        2.88136259      -1.23129437       0.37341247
H        3.24247315       0.22608487      -0.55458845
H        1.38709069      -0.97406637      -1.69365906
H       -0.00208167      -2.26004291      -0.16235960
H        0.14828843      -1.02204312       1.07663264
H       -1.40545659      -0.77299958      -1.53474255
H       -2.15563361      -0.03207011       1.34200394
H       -3.12982040       0.32410417      -0.08751549
H       -2.82278873      -1.34918988       0.37886553
H        0.79052923       0.58609732      -1.28734159
H        0.54888326       2.51198241       0.39551386
H       -0.14821171       1.24820510       1.44797363
H       -1.18542950       2.35075570       0.54795667
21
Frame=4 idx=011537 GeodesicLength=0.2833517179583818 rxn_smarts="[C:1]([C@@:2]1([H:11])[C:3]([H:12])([H:13])[C@:4]([C:5]([H:15])([H:16])[H:17])([H:14])[C@:6]1([C:7]([H:19])([H:20])[H:21])[H:18])([H:8])([H:9])[H:10]>>[C:1]([C:2]([C:3]([C@@:4]([C:5]([H:15])([H:16])[H:17])([C:6][C:7]([H:19])([H:20])[H:21])[H:14])([H:12])[H:13])([H:11])[H:18])([H:8])([H:9])[H:10]"
C        2.48554950      -0.28307749       0.03448499
C        1.20182776      -0.48226884      -0.73473341
C        0.05415889      -1.17450235       0.00607184
C       -1.12935833      -0.37897890      -0.54481617
C       -2.37709031      -0.35693790       0.32050204
C       -0.40035265       0.95489894      -0.73678277
C       -0.26715923       1.78834131       0.49704680
H        2.31663914       0.31531053       0.93297229
H        2.88740536      -1.24833769       0.35735600
H        3.25159344       0.21020925      -0.56580314
H        1.38072001      -0.98339993      -1.69083264
H       -0.00372107      -2.25535734      -0.14811906
H        0.15621393      -1.01143690       1.08309731
H       -1.39390054      -0.76750064      -1.53395104
H       -2.16175419      -0.04130981       1.34363380
H       -3.12975850       0.32214465      -0.08766300
H       -2.82148127      -1.35380738       0.36956546
H        0.80003047       0.59682065      -1.30723471
H        0.53557342       2.52210177       0.41340293
H       -0.18288997       1.26560615       1.46002178
H       -1.20224586       2.36148193       0.53178071
21
Frame=5 idx=011537 GeodesicLength=0.3541372888473663 rxn_smarts="[C:1]([C@@:2]1([H:11])[C:3]([H:12])([H:13])[C@:4]([C:5]([H:15])([H:16])[H:17])([H:14])[C@:6]1([C:7]([H:19])([H:20])[H:21])[H:18])([H:8])([H:9])[H:10]>>[C:1]([C:2]([C:3]([C@@:4]([C:5]([H:15])([H:16])[H:17])([C:6][C:7]([H:19])([H:20])[H:21])[H:14])([H:12])[H:13])([H:11])[H:18])([H:8])([H:9])[H:10]"
C        2.49524250      -0.29644864       0.02610916
C        1.20361922      -0.48088415      -0.73562583
C        0.05908934      -1.16935439       0.01383316
C       -1.12609270      -0.37524753      -0.54086986
C       -2.37746087      -0.36031125       0.31910558
C       -0.39079741       0.95413715      -0.72299808
C       -0.28296856       1.79944169       0.50410433
H        2.33838668       0.29910730       0.92869683
H        2.89339398      -1.26588157       0.34077149
H        3.26075759       0.19392952      -0.57738077
H        1.37409712      -0.99234469      -1.68796970
H       -0.00519879      -2.25049784      -0.13351409
H        0.16443344      -1.00052174       1.08977002
H       -1.38204785      -0.76169320      -1.53294223
H       -2.16785344      -0.05074270       1.34525359
H       -3.12949325       0.32023157      -0.08781009
H       -2.81995453      -1.35841473       0.36004365
H        0.80926352       0.60755370      -1.32693872
H        0.52165342       2.53236737       0.43194291
H       -0.21895075       1.28336114       1.47177980
H       -1.21911866       2.37221299       0.51463886
21
Frame=6 idx=011537 GeodesicLength=0.4248880208997885 rxn_smarts="[C:1]([C@@:2]1([H:11])[C:3]([H:12])([H:13])[C@:4]([C:5]([H:15])([H:16])[H:17])([H:14])[C@:6]1([C:7]([H:19])([H:20])[H:21])[H:18])([H:8])([H:9])[H:10]>>[C:1]([C:2]([C:3]([C@@:4]([C:5]([H:15])([H:16])[H:17])([C:6][C:7]([H:19])([H:20])[H:21])[H:14])([H:12])[H:13])([H:11])[H:18])([H:8])([H:9])[H:10]"
C        2.50508565      -0.31025016       0.01748980
C        1.20554560      -0.47950339      -0.73638697
C        0.06422283      -1.16410544       0.02188022
C       -1.12258661      -0.37134741      -0.53670243
C       -2.37767150      -0.36370467       0.31770596
C       -0.38078815       0.95345682      -0.70864832
C       -0.29931922       1.81069874       0.51113302
H        2.36072173       0.28215576       0.92426394
H        2.89930414      -1.28394041       0.32364662
H        3.26995489       0.17724409      -0.58930018
H        1.36723016      -1.00088883      -1.68506662
H       -0.00651378      -2.24545929      -0.11855924
H        0.17295476      -0.98931071       1.09664673
H       -1.36989871      -0.75555203      -1.53170561
H       -2.17390855      -0.06037349       1.34686897
H       -3.12901773       0.31836090      -0.08793316
H       -2.81818350      -1.36301109       0.35030911
H        0.81821427       0.61832738      -1.34643572
H        0.50705506       2.54281292       0.45111805
H       -0.25639898       1.30147484       1.48316348
H       -1.23600237       2.38291547       0.49651235
21
Frame=7 idx=011537 GeodesicLength=0.4955967067451614 rxn_smarts="[C:1]([C@@:2]1([H:11])[C:3]([H:12])([H:13])[C@:4]([C:5]([H:15])([H:16])[H:17])([H:14])[C@:6]1([C:7]([H:19])([H:20])[H:21])[H:18])([H:8])([H:9])[H:10]>>[C:1]([C:2]([C:3]([C@@:4]([C:5]([H:15])([H:16])[H:17])([C:6][C:7]([H:19])([H:20])[H:21])[H:14])([H:12])[H:13])([H:11])[H:18])([H:8])([H:9])[H:10]"
C        2.51506402      -0.32449386       0.00863853
C        1.20761203      -0.47812430      -0.73700478
C        0.06956394      -1.15875666       0.03020878
C       -1.11883251      -0.36726712      -0.53230366
C       -2.37770706      -0.36712040       0.31631748
C       -0.37033240       0.95286953      -0.69369937
C       -0.31621659       1.82211419       0.51809946
H        2.38362829       0.26440180       0.91968963
H        2.90511049      -1.30252559       0.30597310
H        3.27916931       0.16016083      -0.60153376
H        1.36012833      -1.00901767      -1.68211951
H       -0.00766493      -2.24023888      -0.10327471
H        0.18178390      -0.97782286       1.10372173
H       -1.35745580      -0.74905191      -1.53023070
H       -2.17989444      -0.07020779       1.34848808
H       -3.12832488       0.31652718      -0.08800544
H       -2.81614440      -1.36759659       0.34037271
H        0.82686759       0.62917616      -1.36570965
H        0.49172240       2.55346895       0.47090449
H       -0.29523434       1.31994780       1.49408414
H       -1.25284297       2.39355722       0.47738349
21
Frame=8 idx=011537 GeodesicLength=0.566251749133848 rxn_smarts="[C:1]([C@@:2]1([H:11])[C:3]([H:12])([H:13])[C@:4]([C:5]([H:15])([H:16])[H:17])([H:14])[C@:6]1([C:7]([H:19])([H:20])[H:21])[H:18])([H:8])([H:9])[H:10]>>[C:1]([C:2]([C:3]([C@@:4]([C:5]([H:15])([H:16])[H:17])([C:6][C:7]([H:19])([H:20])[H:21])[H:14])([H:12])[H:13])([H:11])[H:18])([H:8])([H:9])[H:10]"
C        2.52516235      -0.33919157      -0.00043122
C        1.20982468      -0.47674335      -0.73746458
C        0.07511824      -1.15331150       0.03881429
C       -1.11482243      -0.36299399      -0.52766289
C       -2.37755108      -0.37055814       0.31495527
C       -0.35943409       0.95238647      -0.67811512
C       -0.33366550       1.83368447       0.52496900
H        2.40709113       0.24578617       0.91499115
H        2.91078482      -1.32164739       0.28773495
H        3.28838522       0.14268998      -0.61404979
H        1.35280144      -1.01671543      -1.67912315
H       -0.00865120      -2.23483596      -0.08768427
H        0.19092829      -0.96608296       1.11099067
H       -1.34472371      -0.74216389      -1.52850836
H       -2.18578213      -0.08024704       1.35012001
H       -3.12740658       0.31473140      -0.08799811
H       -2.81381359      -1.37216915       0.33024870
H        0.83520809       0.64013578      -1.38473861
H        0.47557841       2.56437294       0.49127247
H       -0.33544912       1.33877652       1.50445044
H       -1.26958324       2.40409663       0.45722915
21
Frame=9 idx=011537 GeodesicLength=0.6368496141525446 rxn_smarts="[C:1]([C@@:2]1([H:11])[C:3]([H:12])([H:13])[C@:4]([C:5]([H:15])([H:16])[H:17])([H:14])[C@:6]1([C:7]([H:19])([H:20])[H:21])[H:18])([H:8])([H:9])[H:10]>>[C:1]([C:2]([C:3]([C@@:4]([C:5]([H:15])([H:16])[H:17])([C:6][C:7]([H:19])([H:20])[H:21])[H:14])([H:12])[H:13])([H:11])[H:18])([H:8])([H:9])[H:10]"
C        2.53537224      -0.35436671      -0.00972381
C        1.21218903      -0.47534504      -0.73774687
C        0.08089445      -1.14775823       0.04771046
C       -1.11054712      -0.35851751      -0.52276384
C       -2.37719321      -0.37401998       0.31362259
C       -0.34810090       0.95201491      -0.66185769
C       -0.35167501       1.84541196       0.53169450
H        2.43110889       0.22620485       0.91016399
H        2.91629934      -1.34133340       0.26888036
H        3.29759506       0.12483899      -0.62682261
H        1.34526087      -1.02394805      -1.67605124
H       -0.00946088      -2.22923670      -0.07177807
H        0.20039595      -0.95408259       1.11846853
H       -1.33168795      -0.73486011      -1.52652395
H       -2.19156034      -0.09048251       1.35175921
H       -3.12626533       0.31296600      -0.08790329
H       -2.81115844      -1.37673434       0.31994427
H        0.84323246       0.65125868      -1.40348555
H        0.45854210       2.57552986       0.51215405
H       -0.37706806       1.35796152       1.51416908
H       -1.28617315       2.41449840       0.43608989
21
Frame=10 idx=011537 GeodesicLength=0.7073766221112623 rxn_smarts="[C:1]([C@@:2]1([H:11])[C:3]([H:12])([H:13])[C@:4]([C:5]([H:15])([H:16])[H:17])([H:14])[C@:6]1([C:7]([H:19])([H:20])[H:21])[H:18])([H:8])([H:9])[H:10]>>[C:1]([C:2]([C:3]([C@@:4]([C:5]([H:15])([H:16])[H:17])([C:6][C:7]([H:19])([H:20])[H:21])[H:14])([H:12])[H:13])([H:11])[H:18])([H:8])([H:9])[H:10]"
C        2.54566441      -0.37001481      -0.01920729
C        1.21470744      -0.47392930      -0.73784016
C        0.08689304      -1.14212070       0.05687311
C       -1.10600227      -0.35382758      -0.51759745
C       -2.37661144      -0.37750737       0.31235151
C       -0.33633979       0.95176412      -0.64488469
C       -0.37023816       1.85728765       0.53824055
H        2.45563287       0.20563239       0.90525544
H        2.92162209      -1.36157398       0.24942410
H        3.30677140       0.10663510      -0.63980412
H        1.33751640      -1.03070016      -1.67292028
H       -0.01010125      -2.22345873      -0.05562445
H        0.21018961      -0.94189427       1.12613242
H       -1.31837176      -0.72711001      -1.52427000
H       -2.19718245      -0.10092413       1.35343199
H       -3.12488416       0.31122901      -0.08766552
H       -2.80816034      -1.38128480       0.30948733
H        0.85090804       0.66258198      -1.42193480
H        0.44056819       2.58699436       0.53353248
H       -0.42004671       1.37749561       1.52313476
H       -1.30253518       2.42472563       0.41388507
21
Frame=11 idx=011537 GeodesicLength=0.7778242804736601 rxn_smarts="[C:1]([C@@:2]1([H:11])[C:3]([H:12])([H:13])[C@:4]([C:5]([H:15])([H:16])[H:17])([H:14])[C@:6]1([C:7]([H:19])([H:20])[H:21])[H:18])([H:8])([H:9])[H:10]>>[C:1]([C:2]([C:3]([C@@:4]([C:5]([H:15])([H:16])[H:17])([C:6][C:7]([H:19])([H:20])[H:21])[H:14])([H:12])[H:13])([H:11])[H:18])([H:8])([H:9])[H:10]"
C        2.55601741      -0.38614484      -0.02886553
C        1.21738212      -0.47248543      -0.73772742
C        0.09311758      -1.13640796       0.06629645
C       -1.10118147      -0.34891616      -0.51214910
C       -2.37578986      -0.38102260       0.31116088
C       -0.32415971       0.95163812      -0.62715578
C       -0.38934697       1.86930496       0.54456345
H        2.48063522       0.18399621       0.90028884
H        2.92672197      -1.38237230       0.22933907
H        3.31589500       0.08810120      -0.65295334
H        1.32957788      -1.03694133      -1.66972442
H       -0.01057074      -2.21750741      -0.03925630
H        0.22031315      -0.92955805       1.13397851
H       -1.30477898      -0.71888511      -1.52173384
H       -2.20261968      -0.11156873       1.35514886
H       -3.12325612       0.30951183      -0.08725512
H       -2.80479366      -1.38581966       0.29890041
H        0.85821603       0.67415680      -1.44005385
H        0.42159537       2.59879738       0.55535999
H       -0.46436414       1.39737480       1.53124496
H       -1.31861042       2.43474828       0.39059324
21
Frame=12 idx=011537 GeodesicLength=0.8481870801353723 rxn_smarts="[C:1]([C@@:2]1([H:11])[C:3]([H:12])([H:13])[C@:4]([C:5]([H:15])([H:16])[H:17])([H:14])[C@:6]1([C:7]([H:19])([H:20])[H:21])[H:18])([H:8])([H:9])[H:10]>>[C:1]([C:2]([C:3]([C@@:4]([C:5]([H:15])([H:16])[H:17])([C:6][C:7]([H:19])([H:20])[H:21])[H:14])([H:12])[H:13])([H:11])[H:18])([H:8])([H:9])[H:10]"
C        2.56640891      -0.40276271      -0.03868350
C        1.22021469      -0.47099941      -0.73738916
C        0.09957149      -1.13063126       0.07597465
C       -1.09607950      -0.34377565      -0.50640310
C       -2.37471265      -0.38456705       0.31007232
C       -0.31157122       0.95164089      -0.60862652
C       -0.40899637       1.88145638       0.55061574
H        2.50608039       0.16122293       0.89529264
H        2.93156608      -1.40372861       0.20859461
H        3.32494648       0.06926680      -0.66622265
H        1.32145640      -1.04263667      -1.66645904
H       -0.01086652      -2.21139081      -0.02271199
H        0.23076994      -0.91712067       1.14200477
H       -1.29091659      -0.71015579      -1.51890274
H       -2.20784077      -0.12241115       1.35692422
H       -3.12137414       0.30781027      -0.08663832
H       -2.80103456      -1.39033698       0.28820797
H        0.86513469       0.68604110      -1.45780719
H        0.40156031       2.61096552       0.57757695
H       -0.50999492       1.41758990       1.53839287
H       -1.33432214       2.44452297       0.36618747
21
Frame=13 idx=011537 GeodesicLength=0.9184576021827976 rxn_smarts="[C:1]([C@@:2]1([H:11])[C:3]([H:12])([H:13])[C@:4]([C:5]([H:15])([H:16])[H:17])([H:14])[C@:6]1([C:7]([H:19])([H:20])[H:21])[H:18])([H:8])([H:9])[H:10]>>[C:1]([C:2]([C:3]([C@@:4]([C:5]([H:15])([H:16])[H:17])([C:6][C:7]([H:19])([H:20])[H:21])[H:14])([H:12])[H:13])([H:11])[H:18])([H:8])([H:9])[H:10]"
C        2.57681133      -0.41986906      -0.04864106
C        1.22320531      -0.46945416      -0.73680579
C        0.10625671      -1.12480464       0.08589917
C       -1.09069379      -0.33840044      -0.50034454
C       -2.37336477      -0.38814222       0.30910939
C       -0.29858959       0.95177344      -0.58925345
C       -0.42917412       1.89373013       0.55634673
H        2.53192872       0.13723503       0.89029781
H        2.93612134      -1.42564035       0.18715766
H        3.33390216       0.05017374      -0.67955851
H        1.31316355      -1.04774602      -1.66311949
H       -0.01098622      -2.20512046      -0.00603510
H        0.24156142      -0.90463561       1.15020958
H       -1.27679461      -0.70089416      -1.51576536
H       -2.21281359      -0.13344246       1.35877252
H       -3.11923081       0.30611791      -0.08577990
H       -2.79686074      -1.39483544       0.27744182
H        0.87164434       0.69829626      -1.47515644
H        0.38040655       2.62352168       0.60011493
H       -0.55690416       1.43812896       1.54446754
H       -1.34958904       2.45400787       0.34064249
21
Frame=14 idx=011537 GeodesicLength=0.9886248964320995 rxn_smarts="[C:1]([C@@:2]1([H:11])[C:3]([H:12])([H:13])[C@:4]([C:5]([H:15])([H:16])[H:17])([H:14])[C@:6]1([C:7]([H:19])([H:20])[H:21])[H:18])([H:8])([H:9])[H:10]>>[C:1]([C:2]([C:3]([C@@:4]([C:5]([H:15])([H:16])[H:17])([C:6][C:7]([H:19])([H:20])[H:21])[H:14])([H:12])[H:13])([H:11])[H:18])([H:8])([H:9])[H:10]"
C        2.58719841      -0.43746283      -0.05871967
C        1.22635444      -0.46783137      -0.73595390
C        0.11317533      -1.11894633       0.09606297
C       -1.08502105      -0.33278728      -0.49395566
C       -2.37173174      -0.39174949       0.30829612
C       -0.28522904       0.95203328      -0.56899125
C       -0.44985997       1.90611070       0.56170042
H        2.55813703       0.11195080       0.88533083
H        2.94035047      -1.44809658       0.16498861
H        3.34274045       0.03087142      -0.69290533
H        1.30471374      -1.05222615      -1.65969829
H       -0.01092689      -2.19871270       0.01072798
H        0.25268752      -0.89216487       1.15859444
H       -1.26242210      -0.69107155      -1.51230749
H       -2.21750625      -0.14464741       1.36070950
H       -3.11682221       0.30443089      -0.08464675
H       -2.79225067      -1.39931238       0.26663435
H        0.87772175       0.71098742      -1.49205547
H        0.35808174       2.63648732       0.62289029
H       -0.60506555       1.45897808       1.54934955
H       -1.36432543       2.46315902       0.31394876
21
Frame=15 idx=011537 GeodesicLength=1.0586773345053213 rxn_smarts="[C:1]([C@@:2]1([H:11])[C:3]([H:12])([H:13])[C@:4]([C:5]([H:15])([H:16])[H:17])([H:14])[C@:6]1([C:7]([H:19])([H:20])[H:21])[H:18])([H:8])([H:9])[H:10]>>[C:1]([C:2]([C:3]([C@@:4]([C:5]([H:15])([H:16])[H:17])([C:6][C:7]([H:19])([H:20])[H:21])[H:14])([H:12])[H:13])([H:11])[H:18])([H:8])([H:9])[H:10]"
C        2.59753919      -0.45553529      -0.06889903
C        1.22966059      -0.46610931      -0.73480939
C        0.12032704      -1.11307805       0.10645610
C       -1.07906094      -0.32693557      -0.48721841
C       -2.36980069      -0.39538926       0.30765903
C       -0.27150978       0.95241499      -0.54779363
C       -0.47102764       1.91857830       0.56661839
H        2.58465252       0.08529154       0.88042309
H        2.94421631      -1.47107950       0.14204747
H        3.35143771       0.01142033      -0.70619922
H        1.29612267      -1.05602740      -1.65618922
H       -0.01068668      -2.19218798       0.02752321
H        0.26414513      -0.87977916       1.16716142
H       -1.24781199      -0.68066023      -1.50851563
H       -2.22188687      -0.15600728       1.36275230
H       -3.11414391       0.30274449      -0.08320346
H       -2.78718595      -1.40376634       0.25582551
H        0.88334310       0.72418414      -1.50845641
H        0.33454539       2.64987286       0.64580677
H       -0.65443975       1.48011938       1.55291447
H       -1.37843545       2.47192937       0.28609665
21
Frame=16 idx=011537 GeodesicLength=1.12860625157417 rxn_smarts="[C:1]([C@@:2]1([H:11])[C:3]([H:12])([H:13])[C@:4]([C:5]([H:15])([H:16])[H:17])([H:14])[C@:6]1([C:7]([H:19])([H:20])[H:21])[H:18])([H:8])([H:9])[H:10]>>[C:1]([C:2]([C:3]([C@@:4]([C:5]([H:15])([H:16])[H:17])([C:6][C:7]([H:19])([H:20])[H:21])[H:14])([H:12])[H:13])([H:11])[H:18])([H:8])([H:9])[H:10]"
C        2.60780344      -0.47407272      -0.07915983
C        1.23312175      -0.46426504      -0.73334622
C        0.12771114      -1.10722562       0.11706941
C       -1.07281537      -0.32084792      -0.48011269
C       -2.36756173      -0.39906263       0.30722642
C       -0.25745343       0.95290900      -0.52561111
C       -0.49264172       1.93110946       0.57104052
H        2.61141445       0.05717968       0.87560159
H        2.94768285      -1.49456206       0.11828846
H        3.35997103      -0.00810701      -0.71937497
H        1.28740784      -1.05909767      -1.65258548
H       -0.01026317      -2.18557195       0.04429437
H        0.27592905      -0.86755588       1.17591693
H       -1.23297774      -0.66963180      -1.50437543
H       -2.22592713      -0.16749838       1.36492096
H       -3.11119684       0.30105664      -0.08141447
H       -2.78165076      -1.40819605       0.24505800
H        0.88848195       0.73795990      -1.52430749
H        0.30976670       2.66368019       0.66876075
H       -0.70499907       1.50153169       1.55503308
H       -1.39180326       2.48026818       0.25707721
