15
Frame=0 idx=002545 GeodesicLength=0.0 rxn_smarts="[C:1]([C:2]([N:3]([C:4](=[O:5])[C:6]([H:13])([H:14])[H:15])[H:12])([H:10])[H:11])([H:7])([H:8])[H:9]>>[C:1]([C:2]([N:3]([C@@:4]1([H:15])[O:5][C:6]1([H:13])[H:14])[H:12])([H:10])[H:11])([H:7])([H:8])[H:9]"
C       -1.92147988       0.57291908       0.17890947
C       -1.18543382      -0.52497001      -0.58010878
N        0.21163681      -0.23669624      -0.86696112
C        1.11136439      -0.38685850       0.21740323
O        1.28454246      -1.53213442       0.78318648
C        2.47959476       0.15499264       0.20996772
H       -2.96332247       0.29558896       0.35100405
H       -1.91331354       1.51253007      -0.37956402
H       -1.46269293       0.75397981       1.15402685
H       -1.20487121      -1.45962319      -0.01748442
H       -1.68485270      -0.72623281      -1.53058952
H        0.35635297       0.61648250      -1.38806770
H        2.69482822       1.15141391       0.58406093
H        3.28444167      -0.57128132       0.20292477
H        0.91320531       0.37988958       1.08129206
15
Frame=1 idx=002545 GeodesicLength=0.07042983020170777 rxn_smarts="[C:1]([C:2]([N:3]([C:4](=[O:5])[C:6]([H:13])([H:14])[H:15])[H:12])([H:10])[H:11])([H:7])([H:8])[H:9]>>[C:1]([C:2]([N:3]([C@@:4]1([H:15])[O:5][C:6]1([H:13])[H:14])[H:12])([H:10])[H:11])([H:7])([H:8])[H:9]"
C       -1.92954709       0.56891269       0.17633862
C       -1.18583831      -0.52397389      -0.58247310
N        0.21226870      -0.23173642      -0.85924264
C        1.10188617      -0.38134755       0.22919290
O        1.28927751      -1.52529341       0.79380635
C        2.47482485       0.14245165       0.22972719
H       -2.97176075       0.28805969       0.34032904
H       -1.91978678       1.51077744      -0.37823824
H       -1.47726726       0.74635242       1.15507240
H       -1.20729158      -1.46099030      -0.02373294
H       -1.67865682      -0.72213312      -1.53708971
H        0.36207515       0.61836694      -1.38332641
H        2.70863196       1.14754171       0.56663131
H        3.27891682      -0.58218004       0.17209806
H        0.94226744       0.40519219       1.10090718
15
Frame=2 idx=002545 GeodesicLength=0.1408402086237786 rxn_smarts="[C:1]([C:2]([N:3]([C:4](=[O:5])[C:6]([H:13])([H:14])[H:15])[H:12])([H:10])[H:11])([H:7])([H:8])[H:9]>>[C:1]([C:2]([N:3]([C@@:4]1([H:15])[O:5][C:6]1([H:13])[H:14])[H:12])([H:10])[H:11])([H:7])([H:8])[H:9]"
C       -1.93766268       0.56488014       0.17359561
C       -1.18599658      -0.52289589      -0.58477245
N        0.21318999      -0.22665791      -0.85075699
C        1.09234544      -0.37548771       0.24216558
O        1.29382068      -1.51864588       0.80444254
C        2.47016797       0.12979513       0.24994152
H       -2.98022184       0.28047451       0.32909576
H       -1.92619638       1.50902386      -0.37699969
H       -1.49222577       0.73864225       1.15604078
H       -1.20960892      -1.46230634      -0.03002044
H       -1.67178006      -0.71782816      -1.54369329
H        0.36830698       0.62023883      -1.37788125
H        2.72215891       1.14265950       0.54740249
H        3.27154066      -0.59176964       0.14024085
H        0.97216158       0.42987731       1.12119898
15
Frame=3 idx=002545 GeodesicLength=0.21125266922616115 rxn_smarts="[C:1]([C:2]([N:3]([C:4](=[O:5])[C:6]([H:13])([H:14])[H:15])[H:12])([H:10])[H:11])([H:7])([H:8])[H:9]>>[C:1]([C:2]([N:3]([C@@:4]1([H:15])[O:5][C:6]1([H:13])[H:14])[H:12])([H:10])[H:11])([H:7])([H:8])[H:9]"
C       -1.94579907       0.56082949       0.17069955
C       -1.18591636      -0.52173859      -0.58698790
N        0.21435504      -0.22145942      -0.84158247
C        1.08280876      -0.36927816       0.25612868
O        1.29818527      -1.51214364       0.81501548
C        2.46566227       0.11708075       0.27036526
H       -2.98866014       0.27284290       0.31738051
H       -1.93254876       1.50726695      -0.37584548
H       -1.50749764       0.73087326       1.15691831
H       -1.21178793      -1.46355860      -0.03630513
H       -1.66428344      -0.71335270      -1.55033443
H        0.37496988       0.62207603      -1.37184790
H        2.73527585       1.13653592       0.52661840
H        3.26224992      -0.59990331       0.10778365
H        1.00298636       0.45392912       1.14199347
15
Frame=4 idx=002545 GeodesicLength=0.2816913902761263 rxn_smarts="[C:1]([C:2]([N:3]([C:4](=[O:5])[C:6]([H:13])([H:14])[H:15])[H:12])([H:10])[H:11])([H:7])([H:8])[H:9]>>[C:1]([C:2]([N:3]([C@@:4]1([H:15])[O:5][C:6]1([H:13])[H:14])[H:12])([H:10])[H:11])([H:7])([H:8])[H:9]"
C       -1.95393814       0.55676209       0.16768150
C       -1.18562257      -0.52050575      -0.58910924
N        0.21569837      -0.21613370      -0.83183322
C        1.07333968      -0.36270029       0.27085311
O        1.30238250      -1.50571229       0.82543397
C        2.46133369       0.10437555       0.29065190
H       -2.99703687       0.26516111       0.30529178
H       -1.93887362       1.50549518      -0.37476168
H       -1.52300345       0.72306258       1.15769781
H       -1.21379589      -1.46473502      -0.04255213
H       -1.65626317      -0.70874504      -1.55694975
H        0.38194991       0.62386313      -1.36538118
H        2.74789401       1.12896933       0.50463175
H        3.25106852      -0.60651505       0.07529403
H        1.03486702       0.47735819       1.16305137
15
Frame=5 idx=002545 GeodesicLength=0.35213732236101225 rxn_smarts="[C:1]([C:2]([N:3]([C:4](=[O:5])[C:6]([H:13])([H:14])[H:15])[H:12])([H:10])[H:11])([H:7])([H:8])[H:9]>>[C:1]([C:2]([N:3]([C@@:4]1([H:15])[O:5][C:6]1([H:13])[H:14])[H:12])([H:10])[H:11])([H:7])([H:8])[H:9]"
C       -1.96207355       0.55266853       0.16458617
C       -1.18515675      -0.51920540      -0.59113293
N        0.21713550      -0.21065918      -0.82164928
C        1.06400189      -0.35571292       0.28606597
O        1.30642089      -1.49922444       0.83559339
C        2.45721551       0.09178869       0.31036380
H       -3.00532068       0.25739871       0.29297157
H       -1.94523710       1.50369493      -0.37371902
H       -1.53865100       0.71522174       1.15837634
H       -1.21560159      -1.46583724      -0.04874095
H       -1.64785090      -0.70404508      -1.56347765
H        0.38909044       0.62560542      -1.35866220
H        2.75998566       1.11972313       0.48189822
H        3.23812770      -0.61163980       0.04347873
H        1.06791398       0.50022292       1.18404785
15
Frame=6 idx=002545 GeodesicLength=0.42266500525184814 rxn_smarts="[C:1]([C:2]([N:3]([C:4](=[O:5])[C:6]([H:13])([H:14])[H:15])[H:12])([H:10])[H:11])([H:7])([H:8])[H:9]>>[C:1]([C:2]([N:3]([C@@:4]1([H:15])[O:5][C:6]1([H:13])[H:14])[H:12])([H:10])[H:11])([H:7])([H:8])[H:9]"
C       -1.97022276       0.54853566       0.16143920
C       -1.18455992      -0.51784230      -0.59306231
N        0.21859328      -0.20501588      -0.81114114
C        1.05481839      -0.34828312       0.30157217
O        1.31028669      -1.49257974       0.84547267
C        2.45329412       0.07937367       0.32916471
H       -3.01351655       0.24953249       0.28050638
H       -1.95170325       1.50184355      -0.37270142
H       -1.55440660       0.70734832       1.15895816
H       -1.21718632      -1.46685695      -0.05485412
H       -1.63914926      -0.69928774      -1.56988379
H        0.39627260       0.62730702      -1.35183085
H        2.77157030       1.10886327       0.45888535
H        3.22364939      -0.61550642       0.01272791
H        1.10225989       0.52256814       1.20474707
15
Frame=7 idx=002545 GeodesicLength=0.49325873324399516 rxn_smarts="[C:1]([C:2]([N:3]([C:4](=[O:5])[C:6]([H:13])([H:14])[H:15])[H:12])([H:10])[H:11])([H:7])([H:8])[H:9]>>[C:1]([C:2]([N:3]([C@@:4]1([H:15])[O:5][C:6]1([H:13])[H:14])[H:12])([H:10])[H:11])([H:7])([H:8])[H:9]"
C       -1.97840994       0.54434496       0.15826747
C       -1.18387269      -0.51641943      -0.59490145
N        0.22000201      -0.19916986      -0.80039840
C        1.04580707      -0.34036817       0.31720005
O        1.31396208      -1.48566440       0.85505565
C        2.44955829       0.06720305       0.34675209
H       -3.02163323       0.24152214       0.26797478
H       -1.95834797       1.49992272      -0.37168684
H       -1.57024726       0.69943331       1.15944681
H       -1.21853567      -1.46779596      -0.06088766
H       -1.63025017      -0.69449547      -1.57614182
H        0.40337861       0.62899385      -1.34499643
H        2.78270569       1.09646701       0.43600509
H        3.20789709      -0.61840901      -0.01659521
H        1.13798608       0.54443526       1.22490588
15
Frame=8 idx=002545 GeodesicLength=0.5639126296448964 rxn_smarts="[C:1]([C:2]([N:3]([C:4](=[O:5])[C:6]([H:13])([H:14])[H:15])[H:12])([H:10])[H:11])([H:7])([H:8])[H:9]>>[C:1]([C:2]([N:3]([C@@:4]1([H:15])[O:5][C:6]1([H:13])[H:14])[H:12])([H:10])[H:11])([H:7])([H:8])[H:9]"
C       -1.98665760       0.54007585       0.15509093
C       -1.18312499      -0.51493302      -0.59666197
N        0.22130954      -0.19308800      -0.78949263
C        1.03697919      -0.33193512       0.33283451
O        1.31740816      -1.47840261       0.86436610
C        2.44599124       0.05530634       0.36295893
H       -3.02968085       0.23332970       0.25542669
H       -1.96522679       1.49791490      -0.37064564
H       -1.58616626       0.69144724       1.15985165
H       -1.21963956      -1.46865127      -0.06685587
H       -1.62121963      -0.68966966      -1.58224317
H        0.41032666       0.63070085      -1.33822946
H        2.79343904       1.08272099       0.41351346
H        3.19111236      -0.62066501      -0.04426332
H        1.17514951       0.56584882       1.24434978
15
Frame=9 idx=002545 GeodesicLength=0.6345656087999348 rxn_smarts="[C:1]([C:2]([N:3]([C:4](=[O:5])[C:6]([H:13])([H:14])[H:15])[H:12])([H:10])[H:11])([H:7])([H:8])[H:9]>>[C:1]([C:2]([N:3]([C@@:4]1([H:15])[O:5][C:6]1([H:13])[H:14])[H:12])([H:10])[H:11])([H:7])([H:8])[H:9]"
C       -1.99501689       0.53567453       0.15193255
C       -1.18232267      -0.51336592      -0.59837271
N        0.22249978      -0.18668335      -0.77842766
C        1.02832679      -0.32293022       0.34848671
O        1.32053795      -1.47065936       0.87355233
C        2.44255012       0.04368197       0.37774101
H       -3.03770465       0.22485987       0.24285045
H       -1.97241981       1.49580703      -0.36949600
H       -1.60222483       0.68328498       1.16021111
H       -1.22047257      -1.46944390      -0.07284314
H       -1.61206050      -0.68475094      -1.58822957
H        0.41707709       0.63252765      -1.33150574
H        2.80387279       1.06793390       0.39144087
H        3.17358043      -0.62286678      -0.07023159
H        1.21377698       0.58693052       1.26289137
15
Frame=10 idx=002545 GeodesicLength=0.7052515594475672 rxn_smarts="[C:1]([C:2]([N:3]([C:4](=[O:5])[C:6]([H:13])([H:14])[H:15])[H:12])([H:10])[H:11])([H:7])([H:8])[H:9]>>[C:1]([C:2]([N:3]([C@@:4]1([H:15])[O:5][C:6]1([H:13])[H:14])[H:12])([H:10])[H:11])([H:7])([H:8])[H:9]"
C       -2.00347450       0.53115751       0.14878787
C       -1.18148140      -0.51171710      -0.60002581
N        0.22354086      -0.17996943      -0.76725547
C        1.01986664      -0.31335876       0.36404638
O        1.32334200      -1.46245071       0.88259494
C        2.43920957       0.03236789       0.39116363
H       -3.04568294       0.21613874       0.23027984
H       -1.97992278       1.49359246      -0.36826985
H       -1.61838764       0.67498097       1.16050486
H       -1.22103562      -1.47015005      -0.07880805
H       -1.60281618      -0.67976698      -1.59407114
H        0.42360418       0.63445418      -1.32488767
H        2.81398302       1.05215458       0.36990086
H        3.15539933      -0.62495833      -0.09448076
H        1.25385548       0.60752504       1.28052037
15
Frame=11 idx=002545 GeodesicLength=0.7759741824001745 rxn_smarts="[C:1]([C:2]([N:3]([C:4](=[O:5])[C:6]([H:13])([H:14])[H:15])[H:12])([H:10])[H:11])([H:7])([H:8])[H:9]>>[C:1]([C:2]([N:3]([C@@:4]1([H:15])[O:5][C:6]1([H:13])[H:14])[H:12])([H:10])[H:11])([H:7])([H:8])[H:9]"
C       -2.01204213       0.52650701       0.14566104
C       -1.18059748      -0.50997360      -0.60163182
N        0.22443053      -0.17290954      -0.75597619
C        1.01159975      -0.30320931       0.37950020
O        1.32576375      -1.45373276       0.89159073
C        2.43594137       0.02134413       0.40332110
H       -3.05362501       0.20713682       0.21769880
H       -1.98775390       1.49126957      -0.36693907
H       -1.63467587       0.66649035       1.16074529
H       -1.22131439      -1.47077102      -0.08478072
H       -1.59348089      -0.67468822      -1.59978362
H        0.42991083       0.63651677      -1.31836506
H        2.82378525       1.03554176       0.34883606
H        3.13669306      -0.62713179      -0.11707725
H        1.29536512       0.62760981       1.29720050
15
Frame=12 idx=002545 GeodesicLength=0.846683087605112 rxn_smarts="[C:1]([C:2]([N:3]([C:4](=[O:5])[C:6]([H:13])([H:14])[H:15])[H:12])([H:10])[H:11])([H:7])([H:8])[H:9]>>[C:1]([C:2]([N:3]([C@@:4]1([H:15])[O:5][C:6]1([H:13])[H:14])[H:12])([H:10])[H:11])([H:7])([H:8])[H:9]"
C       -2.02072336       0.52171087       0.14255395
C       -1.17966359      -0.50812341      -0.60319886
N        0.22516761      -0.16547428      -0.74459915
C        1.00353180      -0.29246357       0.39483560
O        1.32775707      -1.44447969       0.90061286
C        2.43271333       0.01061290       0.41432545
H       -3.06152914       0.19783235       0.20510098
H       -1.99592654       1.48883348      -0.36548654
H       -1.65109599       0.65778281       1.16093761
H       -1.22128996      -1.47130141      -0.09078032
H       -1.58404989      -0.66949308      -1.60537541
H        0.43600098       0.63875043      -1.31193064
H        2.83328931       1.01822895       0.32817416
H        3.11755671      -0.62954369      -0.13808097
H        1.33826168       0.64712734       1.31291127
15
Frame=13 idx=002545 GeodesicLength=0.9173922493133758 rxn_smarts="[C:1]([C:2]([N:3]([C:4](=[O:5])[C:6]([H:13])([H:14])[H:15])[H:12])([H:10])[H:11])([H:7])([H:8])[H:9]>>[C:1]([C:2]([N:3]([C@@:4]1([H:15])[O:5][C:6]1([H:13])[H:14])[H:12])([H:10])[H:11])([H:7])([H:8])[H:9]"
C       -2.02951787       0.51675070       0.13946977
C       -1.17866751      -0.50615401      -0.60473972
N        0.22575593      -0.15763299      -0.73312887
C        0.99566296      -0.28110505       0.41005476
O        1.32927867      -1.43465482       0.90975863
C        2.42949206       0.00015456       0.42429896
H       -3.06938943       0.18819800       0.19247264
H       -2.00444749       1.48627717      -0.36388433
H       -1.66765422       0.64881158       1.16109052
H       -1.22093854      -1.47173946      -0.09683957
H       -1.57450988      -0.66414848      -1.61086326
H        0.44188883       0.64118616      -1.30557366
H        2.84249118       1.00030749       0.30784593
H        3.09804182      -0.63233820      -0.15759571
H        1.38251349       0.66608734       1.32763390
15
Frame=14 idx=002545 GeodesicLength=0.9880896581502109 rxn_smarts="[C:1]([C:2]([N:3]([C:4](=[O:5])[C:6]([H:13])([H:14])[H:15])[H:12])([H:10])[H:11])([H:7])([H:8])[H:9]>>[C:1]([C:2]([N:3]([C@@:4]1([H:15])[O:5][C:6]1([H:13])[H:14])[H:12])([H:10])[H:11])([H:7])([H:8])[H:9]"
C       -2.03841770       0.51162305       0.13640925
C       -1.17760292      -0.50405584      -0.60625816
N        0.22619620      -0.14937357      -0.72157417
C        0.98799169      -0.26913639       0.42514423
O        1.33030427      -1.42425686       0.91906650
C        2.42623868      -0.01001850       0.43338082
H       -3.07719410       0.17822960       0.17981277
H       -2.01331577       1.48359995      -0.36212569
H       -1.68433848       0.63956208       1.16120387
H       -1.22024792      -1.47207804      -0.10296711
H       -1.56486152      -0.65863695      -1.61624958
H        0.44758748       0.64383566      -1.29929286
H        2.85136651       0.98185648       0.28777702
H        3.07819782      -0.63555870      -0.17566166
H        1.42809577       0.68440803       1.34133477
15
Frame=15 idx=002545 GeodesicLength=1.0587545483768526 rxn_smarts="[C:1]([C:2]([N:3]([C:4](=[O:5])[C:6]([H:13])([H:14])[H:15])[H:12])([H:10])[H:11])([H:7])([H:8])[H:9]>>[C:1]([C:2]([N:3]([C@@:4]1([H:15])[O:5][C:6]1([H:13])[H:14])[H:12])([H:10])[H:11])([H:7])([H:8])[H:9]"
C       -2.04741047       0.50632629       0.13337158
C       -1.17646168      -0.50182076      -0.60775850
N        0.22649048      -0.14068712      -0.70994819
C        0.98051731      -0.25655644       0.44009344
O        1.33081680      -1.41328567       0.92857775
C        2.42291779      -0.01989459       0.44169703
H       -3.08492681       0.16792568       0.16712443
H       -2.02252672       1.48079895      -0.36020866
H       -1.70112934       0.63002660       1.16127412
H       -1.21920302      -1.47230850      -0.10916860
H       -1.55510586      -0.65294484      -1.62153583
H        0.45311176       0.64670263      -1.29309404
H        2.85988001       0.96294746       0.26791385
H        3.05805835      -0.63923965      -0.19234033
H        1.47497140       0.70200995       1.35400196
15
Frame=16 idx=002545 GeodesicLength=1.1294123120091277 rxn_smarts="[C:1]([C:2]([N:3]([C:4](=[O:5])[C:6]([H:13])([H:14])[H:15])[H:12])([H:10])[H:11])([H:7])([H:8])[H:9]>>[C:1]([C:2]([N:3]([C@@:4]1([H:15])[O:5][C:6]1([H:13])[H:14])[H:12])([H:10])[H:11])([H:7])([H:8])[H:9]"
C       -2.05648273       0.50085761       0.13035738
C       -1.17523796      -0.49944198      -0.60924709
N        0.22663995      -0.13156889      -0.69826979
C        0.97323383      -0.24336758       0.45489050
O        1.33080383      -1.40173457       0.93833228
C        2.41949078      -0.02946150       0.44936646
H       -3.09257059       0.15728502       0.15441328
H       -2.03207458       1.47787133      -0.35812902
H       -1.71800331       0.62019388       1.16129845
H       -1.21779081      -1.47242482      -0.11545318
H       -1.54524845      -0.64705824      -1.62672530
H        0.45847550       0.64978806      -1.28698653
H        2.86799299       0.94363238       0.24822525
H        3.03764540      -0.64340047      -0.20768228
H        1.52312615       0.71882977       1.36560959
