15
Frame=0 idx=008444 GeodesicLength=0.0 rxn_smarts="[C:1]1([H:8])([H:9])[C@@:2]2([H:10])[C@@:3]3([H:11])[O:4][C:5]([H:12])([H:13])[C@:6]1([H:14])[C@@:7]23[H:15]>>[C:1]1([H:8])([H:9])[C:2]([H:10])([H:14])[C@:7]([C:3](=[O:4])[H:11])([H:15])[C:6]1=[C:5]([H:12])[H:13]"
C        0.69935051       1.19718771       0.33572313
C        1.34698944       0.25687401      -0.64906334
C        0.38769718      -1.82930159       0.33996189
O       -0.38401542      -2.14125150       1.20761841
C       -1.84914642       0.63236452       0.30775068
C       -0.57807512       0.54889355      -0.22213359
C        0.18756482      -0.72250929      -0.66458239
H        0.92037268       0.96809026       1.39259307
H        0.75863755       2.27482227       0.18612131
H        2.39214538      -0.05732722      -0.60621481
H        1.36955439      -2.34875464       0.24754060
H       -2.13523924       1.47258146       0.92940140
H       -2.60228121      -0.11547014       0.09221600
H       -0.35031310       1.01129958      -1.28695394
H       -0.16324148      -1.14749902      -1.60997847
15
Frame=1 idx=008444 GeodesicLength=0.12713271371122017 rxn_smarts="[C:1]1([H:8])([H:9])[C@@:2]2([H:10])[C@@:3]3([H:11])[O:4][C:5]([H:12])([H:13])[C@:6]1([H:14])[C@@:7]23[H:15]>>[C:1]1([H:8])([H:9])[C:2]([H:10])([H:14])[C@:7]([C:3](=[O:4])[H:11])([H:15])[C:6]1=[C:5]([H:12])[H:13]"
C        0.69817677       1.19634364       0.33475152
C        1.34782976       0.24780152      -0.64356112
C        0.38406031      -1.79956431       0.34264122
O       -0.40785583      -2.07533722       1.21298471
C       -1.83621657       0.59380934       0.33544263
C       -0.57850980       0.55589959      -0.23446803
C        0.17922238      -0.71755819      -0.68393014
H        0.91426863       0.98386877       1.39505223
H        0.76718854       2.27169439       0.17300979
H        2.39106484      -0.06871756      -0.59043477
H        1.34524883      -2.35202612       0.24635794
H       -2.12898799       1.42300612       0.96908000
H       -2.59422478      -0.13865891       0.08552805
H       -0.31766510       1.02612383      -1.31333835
H       -0.16360000      -1.14668488      -1.62911570
15
Frame=2 idx=008444 GeodesicLength=0.25414622362083233 rxn_smarts="[C:1]1([H:8])([H:9])[C@@:2]2([H:10])[C@@:3]3([H:11])[O:4][C:5]([H:12])([H:13])[C@:6]1([H:14])[C@@:7]23[H:15]>>[C:1]1([H:8])([H:9])[C:2]([H:10])([H:14])[C@:7]([C:3](=[O:4])[H:11])([H:15])[C:6]1=[C:5]([H:12])[H:13]"
C        0.69600674       1.19587325       0.33393504
C        1.34781637       0.23863839      -0.63721215
C        0.38134824      -1.77087953       0.34487036
O       -0.43005897      -2.01423746       1.21578847
C       -1.82272107       0.55636040       0.36176095
C       -0.57995591       0.56272124      -0.24619619
C        0.17058287      -0.71276360      -0.70176337
H        0.90733984       1.00114321       1.39757482
H        0.77501064       2.26862919       0.15951515
H        2.38927249      -0.07945807      -0.57413628
H        1.32091676      -2.35541165       0.24419413
H       -2.12184237       1.37574715       1.00557299
H       -2.58621578      -0.16018118       0.08252508
H       -0.28365544       1.03966193      -1.33943878
H       -0.16384440      -1.14584326      -1.64699022
15
Frame=3 idx=008444 GeodesicLength=0.38107578742483533 rxn_smarts="[C:1]1([H:8])([H:9])[C@@:2]2([H:10])[C@@:3]3([H:11])[O:4][C:5]([H:12])([H:13])[C@:6]1([H:14])[C@@:7]23[H:15]>>[C:1]1([H:8])([H:9])[C:2]([H:10])([H:14])[C@:7]([C:3](=[O:4])[H:11])([H:15])[C:6]1=[C:5]([H:12])[H:13]"
C        0.69296898       1.19571625       0.33325866
C        1.34701194       0.22942664      -0.63015491
C        0.37939334      -1.74328210       0.34657341
O       -0.45078001      -1.95755923       1.21647531
C       -1.80884312       0.52026026       0.38654595
C       -0.58229153       0.56929481      -0.25727440
C        0.16169859      -0.70812170      -0.71827924
H        0.89970800       1.01974390       1.40007114
H        0.78219166       2.26555516       0.14573255
H        2.38682751      -0.08955387      -0.55748766
H        1.29659669      -2.35871756       0.24129066
H       -2.11386926       1.33056953       1.03950717
H       -2.57826354      -0.18037914       0.08265643
H       -0.24832930       1.05196066      -1.36515137
H       -0.16401994      -1.14491362      -1.66376371
15
Frame=4 idx=008444 GeodesicLength=0.5079061201234825 rxn_smarts="[C:1]1([H:8])([H:9])[C@@:2]2([H:10])[C@@:3]3([H:11])[O:4][C:5]([H:12])([H:13])[C@:6]1([H:14])[C@@:7]23[H:15]>>[C:1]1([H:8])([H:9])[C:2]([H:10])([H:14])[C@:7]([C:3](=[O:4])[H:11])([H:15])[C:6]1=[C:5]([H:12])[H:13]"
C        0.68918703       1.19581488       0.33271911
C        1.34547293       0.22020243      -0.62251589
C        0.37804663      -1.71680262       0.34769571
O       -0.47012500      -1.90496836       1.21542096
C       -1.79475327       0.48566073       0.40972867
C       -0.58540014       0.57556297      -0.26763538
C        0.15261201      -0.70362178      -0.73364376
H        0.89148610       1.03950486       1.40246783
H        0.78880349       2.26240858       0.13176111
H        2.38377859      -0.09902125      -0.54064432
H        1.27234805      -2.36177548       0.23784544
H       -2.10514988       1.28733063       1.07128911
H       -2.57037647      -0.19953367       0.08546374
H       -0.21174577       1.06306682      -1.39036983
H       -0.16418431      -1.14382875      -1.67958250
15
Frame=5 idx=008444 GeodesicLength=0.6346433204863049 rxn_smarts="[C:1]1([H:8])([H:9])[C@@:2]2([H:10])[C@@:3]3([H:11])[O:4][C:5]([H:12])([H:13])[C@:6]1([H:14])[C@@:7]23[H:15]>>[C:1]1([H:8])([H:9])[C:2]([H:10])([H:14])[C@:7]([C:3](=[O:4])[H:11])([H:15])[C:6]1=[C:5]([H:12])[H:13]"
C        0.68477849       1.19612861       0.33229325
C        1.34325989       0.21099843      -0.61441773
C        0.37716362      -1.69144783       0.34819356
O       -0.48823978      -1.85611884       1.21299623
C       -1.78059470       0.45265014       0.43129425
C       -0.58917532       0.58148920      -0.27723190
C        0.14336038      -0.69924446      -0.74800975
H        0.88277641       1.06028659       1.40467868
H        0.79490813       2.25914165       0.11765958
H        2.38018632      -0.10789338      -0.52372880
H        1.24824538      -2.36444694       0.23404682
H       -2.09575491       1.24578531       1.10137800
H       -2.56256972      -0.21782883       0.09044807
H       -0.17395551       1.07302768      -1.41502337
H       -0.16438868      -1.14252734      -1.69457691
15
Frame=6 idx=008444 GeodesicLength=0.7612574454931472 rxn_smarts="[C:1]1([H:8])([H:9])[C@@:2]2([H:10])[C@@:3]3([H:11])[O:4][C:5]([H:12])([H:13])[C@:6]1([H:14])[C@@:7]23[H:15]>>[C:1]1([H:8])([H:9])[C:2]([H:10])([H:14])[C@:7]([C:3](=[O:4])[H:11])([H:15])[C:6]1=[C:5]([H:12])[H:13]"
C        0.67985034       1.19661382       0.33198409
C        1.34042177       0.20183706      -0.60595827
C        0.37664952      -1.66722403       0.34806125
O       -0.50520535      -1.81076418       1.20942869
C       -1.76647947       0.42119462       0.45141071
C       -0.59352506       0.58702752      -0.28598286
C        0.13397205      -0.69497631      -0.76148576
H        0.87368995       1.08196704       1.40665600
H        0.80054349       2.25571812       0.10350169
H        2.37608204      -0.11619201      -0.50687040
H        1.22438362      -2.36663649       0.23000608
H       -2.08579283       1.20593157       1.12991290
H       -2.55487966      -0.23542408       0.09720947
H       -0.13501384       1.08188126      -1.43903601
H       -0.16469655      -1.14095392      -1.70883758
15
Frame=7 idx=008444 GeodesicLength=0.8877720381361448 rxn_smarts="[C:1]1([H:8])([H:9])[C@@:2]2([H:10])[C@@:3]3([H:11])[O:4][C:5]([H:12])([H:13])[C@:6]1([H:14])[C@@:7]23[H:15]>>[C:1]1([H:8])([H:9])[C:2]([H:10])([H:14])[C@:7]([C:3](=[O:4])[H:11])([H:15])[C:6]1=[C:5]([H:12])[H:13]"
C        0.67449056       1.19725127       0.33177109
C        1.33701259       0.19273879      -0.59721691
C        0.37641290      -1.64411016       0.34729515
O       -0.52113797      -1.76865439       1.20495629
C       -1.75249658       0.39123488       0.47024264
C       -0.59837529       0.59215597      -0.29384884
C        0.12446720      -0.69079362      -0.77417222
H        0.86429647       1.10445969       1.40833488
H        0.80573489       2.25212012       0.08931203
H        2.37151423      -0.12395028      -0.49013530
H        1.20084065      -2.36828898       0.22579634
H       -2.07534897       1.16765411       1.15713758
H       -2.54733843      -0.25241396       0.10537492
H       -0.09491770       1.08965580      -1.46239495
H       -0.16515455      -1.13905922      -1.72245269
15
Frame=8 idx=008444 GeodesicLength=1.0141841534623577 rxn_smarts="[C:1]1([H:8])([H:9])[C@@:2]2([H:10])[C@@:3]3([H:11])[O:4][C:5]([H:12])([H:13])[C@:6]1([H:14])[C@@:7]23[H:15]>>[C:1]1([H:8])([H:9])[C:2]([H:10])([H:14])[C@:7]([C:3](=[O:4])[H:11])([H:15])[C:6]1=[C:5]([H:12])[H:13]"
C        0.66876841       1.19802896       0.33163560
C        1.33307920       0.18371845      -0.58825405
C        0.37637755      -1.62207842       0.34590656
O       -0.53613927      -1.72959832       1.19972362
C       -1.73871257       0.36266654       0.48798866
C       -0.60367259       0.59686926      -0.30081305
C        0.11485944      -0.68666720      -0.78615284
H        0.85464030       1.12770418       1.40966216
H        0.81050131       2.24833963       0.07510715
H        2.36651585      -0.13119905      -0.47356824
H        1.17767895      -2.36937236       0.22146512
H       -2.06450937       1.13089276       1.18319584
H       -2.53996971      -0.26888275       0.11470746
H       -0.05361933       1.09637447      -1.48510904
H       -0.16579815      -1.13679614      -1.73549495
15
Frame=9 idx=008444 GeodesicLength=1.140226749889924 rxn_smarts="[C:1]1([H:8])([H:9])[C@@:2]2([H:10])[C@@:3]3([H:11])[O:4][C:5]([H:12])([H:13])[C@:6]1([H:14])[C@@:7]23[H:15]>>[C:1]1([H:8])([H:9])[C:2]([H:10])([H:14])[C@:7]([C:3](=[O:4])[H:11])([H:15])[C:6]1=[C:5]([H:12])[H:13]"
C        0.66271360       1.19900238       0.33151767
C        1.32867362       0.17473544      -0.57899303
C        0.37651579      -1.60111354       0.34386766
O       -0.55018229      -1.69366132       1.19370111
C       -1.72530598       0.33552082       0.50478938
C       -0.60934332       0.60118520      -0.30685304
C        0.10512275      -0.68257508      -0.79740891
H        0.84460649       1.15175201       1.41057809
H        0.81488402       2.24442683       0.06073628
H        2.36113865      -0.13803404      -0.45700478
H        1.15499455      -2.36996019       0.21679400
H       -2.05344108       1.09572768       1.20815141
H       -2.53273685      -0.28492389       0.12531461
H       -0.01097404       1.10202872      -1.50722407
H       -0.16666589      -1.13411101      -1.74796638
15
Frame=10 idx=008444 GeodesicLength=1.2661760932211619 rxn_smarts="[C:1]1([H:8])([H:9])[C@@:2]2([H:10])[C@@:3]3([H:11])[O:4][C:5]([H:12])([H:13])[C@:6]1([H:14])[C@@:7]23[H:15]>>[C:1]1([H:8])([H:9])[C:2]([H:10])([H:14])[C@:7]([C:3](=[O:4])[H:11])([H:15])[C:6]1=[C:5]([H:12])[H:13]"
C        0.65638455       1.20013510       0.33140430
C        1.32383455       0.16585927      -0.56957794
C        0.37671628      -1.58114709       0.34124374
O       -0.56353849      -1.66043018       1.18718876
C       -1.71215644       0.30952132       0.52093820
C       -0.61539931       0.60510654      -0.31201722
C        0.09530360      -0.67846485      -0.80810577
H        0.83433699       1.17652028       1.41100472
H        0.81884246       2.24035095       0.04628771
H        2.35539837      -0.14441851      -0.44057958
H        1.13277075      -2.37000488       0.21196876
H       -2.04209521       1.06186644       1.23232997
H       -2.52572774      -0.30054271       0.13667831
H        0.03308350       1.10661419      -1.52875745
H       -0.16775385      -1.13096588      -1.76000650
15
Frame=11 idx=008444 GeodesicLength=1.3920585709654172 rxn_smarts="[C:1]1([H:8])([H:9])[C@@:2]2([H:10])[C@@:3]3([H:11])[O:4][C:5]([H:12])([H:13])[C@:6]1([H:14])[C@@:7]23[H:15]>>[C:1]1([H:8])([H:9])[C:2]([H:10])([H:14])[C@:7]([C:3](=[O:4])[H:11])([H:15])[C:6]1=[C:5]([H:12])[H:13]"
C        0.64979972       1.20145367       0.33124319
C        1.31860733       0.15709800      -0.56000924
C        0.37691467      -1.56212557       0.33804669
O       -0.57635133      -1.62974144       1.18027423
C       -1.69927754       0.28454260       0.53657792
C       -0.62182814       0.60865800      -0.31634521
C        0.08541195      -0.67429363      -0.81830673
H        0.82380751       1.20204428       1.41086032
H        0.82236596       2.23613238       0.03168202
H        2.34933123      -0.15038942      -0.42421538
H        1.11101238      -2.36955270       0.20694960
H       -2.03046593       1.02911456       1.25598181
H       -2.51895413      -0.31573753       0.14869363
H        0.07867167       1.11010745      -1.54974889
H       -0.16904536      -1.12731066      -1.77168398
15
Frame=12 idx=008444 GeodesicLength=1.5178633655346159 rxn_smarts="[C:1]1([H:8])([H:9])[C@@:2]2([H:10])[C@@:3]3([H:11])[O:4][C:5]([H:12])([H:13])[C@:6]1([H:14])[C@@:7]23[H:15]>>[C:1]1([H:8])([H:9])[C:2]([H:10])([H:14])[C@:7]([C:3](=[O:4])[H:11])([H:15])[C:6]1=[C:5]([H:12])[H:13]"
C        0.64296809       1.20298075       0.33099617
C        1.31302022       0.14845660      -0.55027893
C        0.37706089      -1.54401432       0.33428945
O       -0.58870825      -1.60149092       1.17300251
C       -1.68667424       0.26047673       0.55184537
C       -0.62863285       0.61185195      -0.31984836
C        0.07544990      -0.67002202      -0.82805623
H        0.81299422       1.22835874       1.41007921
H        0.82542749       2.23178972       0.01685517
H        2.34294944      -0.15597260      -0.40783678
H        1.08973409      -2.36864588       0.20166527
H       -2.01855436       0.99736859       1.27923805
H       -2.51242690      -0.33051539       0.16132867
H        0.12593597       1.11246899      -1.57022654
H       -0.17054372      -1.12309094      -1.78305303
15
Frame=13 idx=008444 GeodesicLength=1.643670740021204 rxn_smarts="[C:1]1([H:8])([H:9])[C@@:2]2([H:10])[C@@:3]3([H:11])[O:4][C:5]([H:12])([H:13])[C@:6]1([H:14])[C@@:7]23[H:15]>>[C:1]1([H:8])([H:9])[C:2]([H:10])([H:14])[C@:7]([C:3](=[O:4])[H:11])([H:15])[C:6]1=[C:5]([H:12])[H:13]"
C        0.63588149       1.20475617       0.33061395
C        1.30709429       0.13994077      -0.54035264
C        0.37709778      -1.52676505       0.32999000
O       -0.60070508      -1.57556487       1.16542348
C       -1.67434756       0.23720385       0.56687451
C       -0.63583371       0.61471969      -0.32256134
C        0.06541177      -0.66559933      -0.83739848
H        0.80183790       1.25552768       1.40857209
H        0.82800102       2.22734498       0.00170471
H        2.33625582      -0.16119593      -0.39133375
H        1.06892768      -2.36734976       0.19600161
H       -2.00633072       0.96646598       1.30230071
H       -2.50616738      -0.34488239       0.17458299
H        0.17511067       1.11363942      -1.59024511
H       -0.17223397      -1.11824123      -1.79417273
15
Frame=14 idx=008444 GeodesicLength=1.7694760519933925 rxn_smarts="[C:1]1([H:8])([H:9])[C@@:2]2([H:10])[C@@:3]3([H:11])[O:4][C:5]([H:12])([H:13])[C@:6]1([H:14])[C@@:7]23[H:15]>>[C:1]1([H:8])([H:9])[C:2]([H:10])([H:14])[C@:7]([C:3](=[O:4])[H:11])([H:15])[C:6]1=[C:5]([H:12])[H:13]"
C        0.62853119       1.20681522       0.33004022
C        1.30084808       0.13156287      -0.53021831
C        0.37698738      -1.51034818       0.32513523
O       -0.61244631      -1.55189001       1.15755580
C       -1.66227899       0.21462786       0.58175761
C       -0.64344639       0.61726765      -0.32448526
C        0.05530320      -0.66097729      -0.84637924
H        0.79029421       1.28361819       1.40625504
H        0.83003802       2.22282171      -0.01387318
H        2.32925905      -0.16607613      -0.37460357
H        1.04856942      -2.36569902       0.18990403
H       -1.99372448       0.93625100       1.32534592
H       -2.50019768      -0.35882018       0.18844706
H        0.22637469       1.11353756      -1.60978342
H       -0.17411141      -1.11269125      -1.80509793
15
Frame=15 idx=008444 GeodesicLength=1.8952757096482147 rxn_smarts="[C:1]1([H:8])([H:9])[C@@:2]2([H:10])[C@@:3]3([H:11])[O:4][C:5]([H:12])([H:13])[C@:6]1([H:14])[C@@:7]23[H:15]>>[C:1]1([H:8])([H:9])[C:2]([H:10])([H:14])[C@:7]([C:3](=[O:4])[H:11])([H:15])[C:6]1=[C:5]([H:12])[H:13]"
C        0.62089745       1.20919822       0.32921917
C        1.29428962       0.12333420      -0.51984791
C        0.37668764      -1.49473599       0.31971778
O       -0.62400493      -1.53041398       1.14941187
C       -1.65045159       0.19265634       0.59659723
C       -0.65150254       0.61950742      -0.32562432
C        0.04511942      -0.65610263      -0.85503708
H        0.77830306       1.31271003       1.40303049
H        0.83148339       2.21824207      -0.02999411
H        2.32194665      -0.17062597      -0.35752634
H        1.02863795      -2.36373546       0.18326502
H       -1.98066217       0.90659341       1.34852714
H       -2.49454128      -0.37232029       0.20294953
H        0.27996999       1.11205497      -1.62880556
H       -0.17617265      -1.10636234      -1.81588293
15
Frame=16 idx=008444 GeodesicLength=2.021091131607753 rxn_smarts="[C:1]1([H:8])([H:9])[C@@:2]2([H:10])[C@@:3]3([H:11])[O:4][C:5]([H:12])([H:13])[C@:6]1([H:14])[C@@:7]23[H:15]>>[C:1]1([H:8])([H:9])[C:2]([H:10])([H:14])[C@:7]([C:3](=[O:4])[H:11])([H:15])[C:6]1=[C:5]([H:12])[H:13]"
C        0.61295156       1.21195524       0.32808217
C        1.28742391       0.11526855      -0.50920130
C        0.37615785      -1.47990195       0.31371817
O       -0.63546453      -1.51109210       1.14099159
C       -1.63883789       0.17118833       0.61149429
C       -0.66004366       0.62145207      -0.32598035
C        0.03485663      -0.65091350      -0.86341187
H        0.76578880       1.34290784       1.39878293
H        0.83227963       2.21362833      -0.04680460
H        2.31430230      -0.17485520      -0.33996003
H        1.00910001      -2.36150799       0.17596502
H       -1.96703710       0.87733951       1.37201848
H       -2.48923047      -0.38536234       0.21813208
H        0.33615707       1.10905261      -1.64724010
H       -0.17840410      -1.09915939      -1.82658647
