13
Frame=0 idx=002834 GeodesicLength=0.0 rxn_smarts="[C:1]([C:2]([C:3]#[C:4][C:5]([H:11])([H:12])[H:13])([H:9])[H:10])([H:6])([H:7])[H:8]>>[C:1]([C:2]([C:4](=[C:3])[C:5]([H:11])([H:12])[H:13])([H:9])[H:10])([H:6])([H:7])[H:8]"
C       -1.69780187       0.56446757      -0.27464000
C       -0.77321921      -0.37222388       0.47240741
C        0.23986140       0.60506098       1.55755885
C        0.95113359       0.13327426       0.64042794
C        1.97425187      -0.25275139      -0.33352406
H       -2.13038175       1.29647380       0.40601627
H       -2.50539824       0.00344316      -0.75245576
H       -1.15760311       1.10834936      -1.05147779
H       -0.39620780      -1.15066407      -0.20256496
H       -1.26569892      -0.91612400       1.27321438
H        2.90398467       0.24541705      -0.05766330
H        2.15019647      -1.32989958      -0.33430795
H        1.70688292       0.06517679      -1.34299105
13
Frame=1 idx=002834 GeodesicLength=0.04882770981022765 rxn_smarts="[C:1]([C:2]([C:3]#[C:4][C:5]([H:11])([H:12])[H:13])([H:9])[H:10])([H:6])([H:7])[H:8]>>[C:1]([C:2]([C:4](=[C:3])[C:5]([H:11])([H:12])[H:13])([H:9])[H:10])([H:6])([H:7])[H:8]"
C       -1.69501665       0.56244405      -0.27978164
C       -0.78412804      -0.37848218       0.48046749
C        0.24915717       0.58210782       1.56494012
C        0.95448107       0.11291611       0.64386049
C        1.98231944      -0.24160505      -0.33727767
H       -2.10822804       1.31803687       0.38713785
H       -2.51850123       0.00931517      -0.73915194
H       -1.15031606       1.07771535      -1.07273486
H       -0.42477788      -1.17483731      -0.18301977
H       -1.29100389      -0.90299581       1.28597137
H        2.90849824       0.25633346      -0.04920984
H        2.16438894      -1.31746931      -0.36158417
H        1.71312693       0.09652083      -1.33961743
13
Frame=2 idx=002834 GeodesicLength=0.09759589276749224 rxn_smarts="[C:1]([C:2]([C:3]#[C:4][C:5]([H:11])([H:12])[H:13])([H:9])[H:10])([H:6])([H:7])[H:8]>>[C:1]([C:2]([C:4](=[C:3])[C:5]([H:11])([H:12])[H:13])([H:9])[H:10])([H:6])([H:7])[H:8]"
C       -1.69234529       0.55996135      -0.28504975
C       -0.79519748      -0.38472967       0.48856528
C        0.25879722       0.55863915       1.57170284
C        0.95778521       0.09219180       0.64632316
C        1.99063922      -0.23005164      -0.34092169
H       -2.08472932       1.33911348       0.36732950
H       -2.53207463       0.01575683      -0.72507851
H       -1.14418005       1.04530302      -1.09425785
H       -0.45464494      -1.19905324      -0.16279246
H       -1.31597051      -0.88875687       1.29903599
H        2.91348580       0.26610610      -0.03931324
H        2.17791010      -1.30418161      -0.39014235
H        1.72052465       0.12970130      -1.33540093
13
Frame=3 idx=002834 GeodesicLength=0.14630446213316822 rxn_smarts="[C:1]([C:2]([C:3]#[C:4][C:5]([H:11])([H:12])[H:13])([H:9])[H:10])([H:6])([H:7])[H:8]>>[C:1]([C:2]([C:4](=[C:3])[C:5]([H:11])([H:12])[H:13])([H:9])[H:10])([H:6])([H:7])[H:8]"
C       -1.68977184       0.55699502      -0.29047313
C       -0.80643868      -0.39097023       0.49672372
C        0.26880079       0.53459079       1.57783177
C        0.96103938       0.07104297       0.64778984
C        1.99920551      -0.21807029      -0.34445036
H       -2.05986266       1.35959013       0.34648389
H       -2.54602711       0.02283805      -0.71030688
H       -1.13923792       1.01107069      -1.11598543
H       -0.48588586      -1.22330859      -0.14176040
H       -1.34058874      -0.87332029       1.31243697
H        2.91894153       0.27468084      -0.02804141
H        2.19079720      -1.28991734      -0.42004842
H        1.72902840       0.16477824      -1.33020015
13
Frame=4 idx=002834 GeodesicLength=0.19494885841532644 rxn_smarts="[C:1]([C:2]([C:3]#[C:4][C:5]([H:11])([H:12])[H:13])([H:9])[H:10])([H:6])([H:7])[H:8]>>[C:1]([C:2]([C:4](=[C:3])[C:5]([H:11])([H:12])[H:13])([H:9])[H:10])([H:6])([H:7])[H:8]"
C       -1.68731760       0.55352830      -0.29606364
C       -0.81785587      -0.39719470       0.50493516
C        0.27918860       0.50990189       1.58328473
C        0.96423191       0.04946194       0.64818156
C        2.00803792      -0.20565993      -0.34784449
H       -2.03364840       1.37932912       0.32453961
H       -2.56029877       0.03062651      -0.69488727
H       -1.13560246       0.97502277      -1.13783601
H       -0.51856899      -1.24755030      -0.11985558
H       -1.36480383      -0.85661871       1.32616487
H        2.92487303       0.28199052      -0.01545470
H        2.20311158      -1.27456620      -0.45128737
H        1.73865286       0.20172879      -1.32387688
13
Frame=5 idx=002834 GeodesicLength=0.2435289904631981 rxn_smarts="[C:1]([C:2]([C:3]#[C:4][C:5]([H:11])([H:12])[H:13])([H:9])[H:10])([H:6])([H:7])[H:8]>>[C:1]([C:2]([C:4](=[C:3])[C:5]([H:11])([H:12])[H:13])([H:9])[H:10])([H:6])([H:7])[H:8]"
C       -1.68501342       0.54954379      -0.30183077
C       -0.82945071      -0.40339236       0.51318509
C        0.28997957       0.48450514       1.58801293
C        0.96734859       0.02745389       0.64740549
C        2.01716117      -0.19282243      -0.35108062
H       -2.00611174       1.39819346       0.30143756
H       -2.57484134       0.03918582      -0.67885419
H       -1.13340626       0.93716390      -1.15973274
H       -0.55275771      -1.27170796      -0.09701782
H       -1.38854583      -0.83858863       1.34019998
H        2.93128759       0.28795642      -0.00160933
H        2.21492040      -1.25800990      -0.48383396
H        1.74942968       0.24051887      -1.31628162
13
Frame=6 idx=002834 GeodesicLength=0.29204688610398066 rxn_smarts="[C:1]([C:2]([C:3]#[C:4][C:5]([H:11])([H:12])[H:13])([H:9])[H:10])([H:6])([H:7])[H:8]>>[C:1]([C:2]([C:4](=[C:3])[C:5]([H:11])([H:12])[H:13])([H:9])[H:10])([H:6])([H:7])[H:8]"
C       -1.68292717       0.54503788      -0.30776611
C       -0.84121903      -0.40954267       0.52142929
C        0.30118906       0.45833206       1.59194507
C        0.97036905       0.00507595       0.64532589
C        2.02662643      -0.17958191      -0.35412463
H       -1.97733108       1.41602745       0.27716928
H       -2.58963221       0.04858057      -0.66222578
H       -1.13284507       0.89756151      -1.18157484
H       -0.58850001      -1.29566519      -0.07324340
H       -1.41170713      -0.81919681       1.35448480
H        2.93819602       0.29251716       0.01342836
H        2.22634402      -1.24015046      -0.51755972
H        1.76143712       0.28100446      -1.30728822
13
Frame=7 idx=002834 GeodesicLength=0.34051683505034924 rxn_smarts="[C:1]([C:2]([C:3]#[C:4][C:5]([H:11])([H:12])[H:13])([H:9])[H:10])([H:6])([H:7])[H:8]>>[C:1]([C:2]([C:4](=[C:3])[C:5]([H:11])([H:12])[H:13])([H:9])[H:10])([H:6])([H:7])[H:8]"
C       -1.68113070       0.54000747      -0.31386160
C       -0.85315406      -0.41562802       0.52962267
C        0.31282712       0.43130623       1.59500895
C        0.97327277      -0.01760476       0.64180677
C        2.03648483      -0.16596279      -0.35694116
H       -1.94738874       1.43268556       0.25171948
H       -2.60465358       0.05887228      -0.64500692
H       -1.13411992       0.85627967      -1.20327030
H       -0.62583119      -1.31929805      -0.04852704
H       -1.43417324      -0.79841827       1.36895884
H        2.94560061       0.29561141       0.02959263
H        2.23751179      -1.22088805      -0.55233451
H        1.77475432       0.32303731      -1.29676782
13
Frame=8 idx=002834 GeodesicLength=0.38897499800223634 rxn_smarts="[C:1]([C:2]([C:3]#[C:4][C:5]([H:11])([H:12])[H:13])([H:9])[H:10])([H:6])([H:7])[H:8]>>[C:1]([C:2]([C:4](=[C:3])[C:5]([H:11])([H:12])[H:13])([H:9])[H:10])([H:6])([H:7])[H:8]"
C       -1.67973086       0.53447740      -0.32009218
C       -0.86524362      -0.42163074       0.53768956
C        0.32490287       0.40332793       1.59711897
C        0.97604348      -0.04047996       0.63667891
C        2.04681147      -0.15201400      -0.35948303
H       -1.91641960       1.44802548       0.22512364
H       -2.61991881       0.07014579      -0.62718043
H       -1.13748303       0.81346048      -1.22470895
H       -0.66476339      -1.34244710      -0.02292912
H       -1.45580340      -0.77628363       1.38352356
H        2.95348217       0.29726925       0.04678647
H        2.24865026      -1.20016064      -0.58788394
H        1.78947246       0.36630973      -1.28464346
13
Frame=9 idx=002834 GeodesicLength=0.43743454146519883 rxn_smarts="[C:1]([C:2]([C:3]#[C:4][C:5]([H:11])([H:12])[H:13])([H:9])[H:10])([H:6])([H:7])[H:8]>>[C:1]([C:2]([C:4](=[C:3])[C:5]([H:11])([H:12])[H:13])([H:9])[H:10])([H:6])([H:7])[H:8]"
C       -1.67884163       0.52838741      -0.32645017
C       -0.87747060      -0.42750889       0.54559465
C        0.33739707       0.37444892       1.59813751
C        0.97861775      -0.06337171       0.62976436
C        2.05768384      -0.13774957      -0.36172118
H       -1.88457054       1.46187929       0.19732492
H       -2.63541884       0.08232567      -0.60868891
H       -1.14323444       0.76909441      -1.24584046
H       -0.70528376      -1.36496569       0.00360178
H       -1.47641963      -0.75272004       1.39815580
H        2.96195577       0.29708392       0.06511043
H        2.25969116      -1.17786166      -0.62428578
H        1.80589386       0.41095795      -1.27070294
13
Frame=10 idx=002834 GeodesicLength=0.48597242205114927 rxn_smarts="[C:1]([C:2]([C:3]#[C:4][C:5]([H:11])([H:12])[H:13])([H:9])[H:10])([H:6])([H:7])[H:8]>>[C:1]([C:2]([C:4](=[C:3])[C:5]([H:11])([H:12])[H:13])([H:9])[H:10])([H:6])([H:7])[H:8]"
C       -1.67855580       0.52182030      -0.33290016
C       -0.88981839      -0.43326730       0.55324581
C        0.35031739       0.34446528       1.59801434
C        0.98100065      -0.08619113       0.62092866
C        2.06915809      -0.12324642      -0.36360738
H       -1.85202542       1.47412001       0.16842118
H       -2.65112931       0.09556591      -0.58957446
H       -1.15155576       0.72347733      -1.26649918
H       -0.74737767      -1.38668051       0.03095821
H       -1.49589702      -0.72783547       1.41271560
H        2.97087505       0.29539140       0.08430298
H        2.27108216      -1.15398077      -0.66102102
H        1.82392605       0.45636137      -1.25498456
13
Frame=11 idx=002834 GeodesicLength=0.5346450161242634 rxn_smarts="[C:1]([C:2]([C:3]#[C:4][C:5]([H:11])([H:12])[H:13])([H:9])[H:10])([H:6])([H:7])[H:8]>>[C:1]([C:2]([C:4](=[C:3])[C:5]([H:11])([H:12])[H:13])([H:9])[H:10])([H:6])([H:7])[H:8]"
C       -1.67898185       0.51478396      -0.33941646
C       -0.90226005      -0.43888766       0.56058154
C        0.36364148       0.31332869       1.59664310
C        0.98316437      -0.10875257       0.61003117
C        2.08129594      -0.10855229      -0.36510793
H       -1.81900530       1.48460365       0.13844147
H       -2.66701827       0.10986185      -0.56984236
H       -1.16267045       0.67677330      -1.28656562
H       -0.79098625      -1.40742657       0.05911940
H       -1.51407042      -0.70165665       1.42712028
H        2.98022892       0.29212038       0.10431125
H        2.28298381      -1.12850092      -0.69788624
H        1.84367809       0.50230481      -1.23742959
13
Frame=12 idx=002834 GeodesicLength=0.5835171882553943 rxn_smarts="[C:1]([C:2]([C:3]#[C:4][C:5]([H:11])([H:12])[H:13])([H:9])[H:10])([H:6])([H:7])[H:8]>>[C:1]([C:2]([C:4](=[C:3])[C:5]([H:11])([H:12])[H:13])([H:9])[H:10])([H:6])([H:7])[H:8]"
C       -1.68021987       0.50728042      -0.34598641
C       -0.91476462      -0.44436149       0.56754667
C        0.37734759       0.28097472       1.59392057
C        0.98507774      -0.13086847       0.59694063
C        2.09414379      -0.09370685      -0.36618690
H       -1.78570833       1.49320511       0.10737146
H       -2.68305110       0.12521062      -0.54946947
H       -1.17679849       0.62912125      -1.30595091
H       -0.83603269      -1.42704960       0.08808654
H       -1.53076941      -0.67421886       1.44129783
H        2.98998284       0.28718822       0.12508263
H        2.29552895      -1.10138804      -0.73469949
H        1.86526359       0.54861296      -1.21795315
13
Frame=13 idx=002834 GeodesicLength=0.6326782549362787 rxn_smarts="[C:1]([C:2]([C:3]#[C:4][C:5]([H:11])([H:12])[H:13])([H:9])[H:10])([H:6])([H:7])[H:8]>>[C:1]([C:2]([C:4](=[C:3])[C:5]([H:11])([H:12])[H:13])([H:9])[H:10])([H:6])([H:7])[H:8]"
C       -1.68241064       0.49929676      -0.35259013
C       -0.92729104      -0.44966854       0.57408123
C        0.39139593       0.24743687       1.58971784
C        0.98672098      -0.15222761       0.58152920
C        2.10777539      -0.07875443      -0.36680611
H       -1.75243470       1.49979409       0.07521097
H       -2.69922519       0.14152765      -0.52843691
H       -1.19418086       0.58066618      -1.32455779
H       -0.88237602      -1.44538244       0.11785464
H       -1.54580638      -0.64557671       1.45517104
H        3.00017849       0.28034652       0.14661445
H        2.30875004      -1.07264241      -0.77134709
H        1.88890400       0.59518407      -1.19644132
13
Frame=14 idx=002834 GeodesicLength=0.6821920044934765 rxn_smarts="[C:1]([C:2]([C:3]#[C:4][C:5]([H:11])([H:12])[H:13])([H:9])[H:10])([H:6])([H:7])[H:8]>>[C:1]([C:2]([C:4](=[C:3])[C:5]([H:11])([H:12])[H:13])([H:9])[H:10])([H:6])([H:7])[H:8]"
C       -1.68565651       0.49083968      -0.35921394
C       -0.93979635      -0.45481473       0.58012255
C        0.40574632       0.21266150       1.58392945
C        0.98807093      -0.17256182       0.56369974
C        2.12222411      -0.06373627      -0.36692555
H       -1.71941185       1.50427676       0.04192959
H       -2.71550805       0.15880517      -0.50670347
H       -1.21501181       0.53154905      -1.34229015
H       -0.92986615      -1.46228217       0.14841320
H       -1.55900983      -0.61581425       1.46864454
H        3.01075041       0.27151598       0.16882740
H        2.32276113      -1.04225525      -0.80762297
H        1.91470763       0.64181635      -1.17281041
13
Frame=15 idx=002834 GeodesicLength=0.7321348668497704 rxn_smarts="[C:1]([C:2]([C:3]#[C:4][C:5]([H:11])([H:12])[H:13])([H:9])[H:10])([H:6])([H:7])[H:8]>>[C:1]([C:2]([C:4](=[C:3])[C:5]([H:11])([H:12])[H:13])([H:9])[H:10])([H:6])([H:7])[H:8]"
C       -1.69010211       0.48187677      -0.36584795
C       -0.95222723      -0.45978573       0.58561441
C        0.42034035       0.17674485       1.57641518
C        0.98910801      -0.19144822       0.54336453
C        2.13755184      -0.04868934      -0.36650270
H       -1.68698377       1.50653668       0.00747955
H       -2.73189358       0.17690960      -0.48424091
H       -1.23950573       0.48187908      -1.35905366
H       -0.97828235      -1.47760108       0.17978112
H       -1.57019164      -0.58500685       1.48163499
H        3.02174123       0.26031111       0.19170653
H        2.33747706      -1.01021124      -0.84348655
H        1.94296792       0.68848438      -1.14686453
13
Frame=16 idx=002834 GeodesicLength=0.7825730521103882 rxn_smarts="[C:1]([C:2]([C:3]#[C:4][C:5]([H:11])([H:12])[H:13])([H:9])[H:10])([H:6])([H:7])[H:8]>>[C:1]([C:2]([C:4](=[C:3])[C:5]([H:11])([H:12])[H:13])([H:9])[H:10])([H:6])([H:7])[H:8]"
C       -1.69587744       0.47237969      -0.37248812
C       -0.96452986      -0.46458472       0.59049760
C        0.43511837       0.13975915       1.56704756
C        0.98980966      -0.20844052       0.52046704
C        2.15380153      -0.03364617      -0.36549282
H       -1.65545545       1.50648234      -0.02822070
H       -2.74837067       0.19574605      -0.46099855
H       -1.26785624       0.43174249      -1.37475640
H       -1.02738309      -1.49121911       0.21197407
H       -1.57917945      -0.55325401       1.49404397
H        3.03313373       0.24639350       0.21518152
H        2.35283747      -0.97647269      -0.87886575
H        1.97395145       0.73511400      -1.11838942
