14
Frame=0 idx=003306 GeodesicLength=0.0 rxn_smarts="[O:1]=[C:2]([C:3]1([H:8])[C:4]([H:9])([H:10])[C:5]([H:11])([H:12])[C:6]1([H:13])[H:14])[H:7]>>[O:1]([C:2][C:3]1([H:8])[C:4]([H:9])([H:10])[C:5]([H:11])([H:12])[C:6]1([H:13])[H:14])[H:7]"
O        2.42982515      -0.03597522      -0.68987839
C        1.81327265       0.48883470       0.32760352
C        0.44422963       0.00950462       0.63083146
C       -0.19860438      -1.08977277      -0.24082079
C       -1.48887225      -0.24569971      -0.28557507
C       -0.67961158       0.98542854       0.17091215
H        2.95435131       0.80939552      -0.08465070
H        0.36642502      -0.18274419       1.70275458
H        0.29377995      -1.15140259      -1.21228654
H       -0.26007620      -2.08893672       0.18746736
H       -2.00739425      -0.17158027      -1.24095195
H       -2.20395060      -0.55806280       0.47651863
H       -0.35264618       1.59582554      -0.67230702
H       -1.11072826       1.63518537       0.93038278
14
Frame=1 idx=003306 GeodesicLength=0.0317291530394057 rxn_smarts="[O:1]=[C:2]([C:3]1([H:8])[C:4]([H:9])([H:10])[C:5]([H:11])([H:12])[C:6]1([H:13])[H:14])[H:7]>>[O:1]([C:2][C:3]1([H:8])[C:4]([H:9])([H:10])[C:5]([H:11])([H:12])[C:6]1([H:13])[H:14])[H:7]"
O        2.43383500      -0.04266181      -0.68009061
C        1.81709433       0.47884815       0.33496210
C        0.44429073       0.00610001       0.63062439
C       -0.20069359      -1.09159369      -0.24126935
C       -1.48909766      -0.24455895      -0.28572452
C       -0.67678975       0.98470089       0.17064434
H        2.94720575       0.83590422      -0.09794576
H        0.36419247      -0.18661914       1.70253610
H        0.29110537      -1.15423733      -1.21293417
H       -0.26462303      -2.09084532       0.18652830
H       -2.00773916      -0.16939269      -1.24094732
H       -2.20470623      -0.55540448       0.47651575
H       -0.34742552       1.59389132      -0.67254708
H       -1.10664871       1.63586880       0.92964783
14
Frame=2 idx=003306 GeodesicLength=0.0634679984526244 rxn_smarts="[O:1]=[C:2]([C:3]1([H:8])[C:4]([H:9])([H:10])[C:5]([H:11])([H:12])[C:6]1([H:13])[H:14])[H:7]>>[O:1]([C:2][C:3]1([H:8])[C:4]([H:9])([H:10])[C:5]([H:11])([H:12])[C:6]1([H:13])[H:14])[H:7]"
O        2.43785066      -0.04894498      -0.67049550
C        1.82087603       0.46923656       0.34211852
C        0.44443986       0.00290484       0.63030912
C       -0.20263304      -1.09329706      -0.24175313
C       -1.48927047      -0.24346006      -0.28583083
C       -0.67403741       0.98402812       0.17034578
H        2.93948586       0.86092685      -0.11064371
H        0.36213231      -0.19028060       1.70221252
H        0.28852537      -1.15690636      -1.21364631
H       -0.26886538      -2.09262939       0.18557862
H       -2.00810671      -0.16731724      -1.24086264
H       -2.20531614      -0.55285976       0.47661019
H       -0.34242812       1.59203760      -0.67285086
H       -1.10265280       1.63656147       0.92890822
14
Frame=3 idx=003306 GeodesicLength=0.09523255281819029 rxn_smarts="[O:1]=[C:2]([C:3]1([H:8])[C:4]([H:9])([H:10])[C:5]([H:11])([H:12])[C:6]1([H:13])[H:14])[H:7]>>[O:1]([C:2][C:3]1([H:8])[C:4]([H:9])([H:10])[C:5]([H:11])([H:12])[C:6]1([H:13])[H:14])[H:7]"
O        2.44189246      -0.05491428      -0.66103326
C        1.82461962       0.45995542       0.34909916
C        0.44466924      -0.00011156       0.62990005
C       -0.20444333      -1.09489882      -0.24226946
C       -1.48939672      -0.24239613      -0.28590128
C       -0.67134153       0.98340209       0.17002262
H        2.93123528       0.88468891      -0.12285108
H        0.36022490      -0.19376388       1.70179863
H        0.28602833      -1.15942894      -1.21441667
H       -0.27285171      -2.09430717       0.18461609
H       -2.00849206      -0.16533070      -1.24071149
H       -2.20580077      -0.55041187       0.47678727
H       -0.33762282       1.59025528      -0.67320912
H       -1.09872089       1.63726164       0.92816856
14
Frame=4 idx=003306 GeodesicLength=0.12701333755889194 rxn_smarts="[O:1]=[C:2]([C:3]1([H:8])[C:4]([H:9])([H:10])[C:5]([H:11])([H:12])[C:6]1([H:13])[H:14])[H:7]>>[O:1]([C:2][C:3]1([H:8])[C:4]([H:9])([H:10])[C:5]([H:11])([H:12])[C:6]1([H:13])[H:14])[H:7]"
O        2.44597250      -0.06064085      -0.65165279
C        1.82832541       0.45096732       0.35593034
C        0.44497163      -0.00297264       0.62940836
C       -0.20613623      -1.09640913      -0.24281639
C       -1.48947766      -0.24135944      -0.28594158
C       -0.66869277       0.98281666       0.16968113
H        2.92247536       0.90735679      -0.13466612
H        0.35845010      -0.19709513       1.70130193
H        0.28361042      -1.16182005      -1.21523775
H       -0.27661226      -2.09588850       0.18363738
H       -2.00888617      -0.16341473      -1.24050158
H       -2.20617330      -0.54804347       0.47703217
H       -0.33298301       1.58853664      -0.67360765
H       -1.09484400       1.63796651       0.92743257
14
Frame=5 idx=003306 GeodesicLength=0.15883259253491494 rxn_smarts="[O:1]=[C:2]([C:3]1([H:8])[C:4]([H:9])([H:10])[C:5]([H:11])([H:12])[C:6]1([H:13])[H:14])[H:7]>>[O:1]([C:2][C:3]1([H:8])[C:4]([H:9])([H:10])[C:5]([H:11])([H:12])[C:6]1([H:13])[H:14])[H:7]"
O        2.45009235      -0.06614780      -0.64233677
C        1.83199395       0.44225219       0.36262756
C        0.44534125      -0.00569484       0.62883900
C       -0.20772519      -1.09783731      -0.24339685
C       -1.48952259      -0.24035014      -0.28595061
C       -0.66608588       0.98226848       0.16931731
H        2.91327078       0.92903528      -0.14610865
H        0.35679518      -0.20029379       1.70072868
H        0.28126017      -1.16408679      -1.21611245
H       -0.28017071      -2.09738691       0.18263540
H       -2.00930428      -0.16156399      -1.24023063
H       -2.20644256      -0.54574808       0.47735127
H       -0.32849592       1.58687116      -0.67405667
H       -1.09100654       1.63868253       0.92669343
14
Frame=6 idx=003306 GeodesicLength=0.19069285643307057 rxn_smarts="[O:1]=[C:2]([C:3]1([H:8])[C:4]([H:9])([H:10])[C:5]([H:11])([H:12])[C:6]1([H:13])[H:14])[H:7]>>[O:1]([C:2][C:3]1([H:8])[C:4]([H:9])([H:10])[C:5]([H:11])([H:12])[C:6]1([H:13])[H:14])[H:7]"
O        2.45430091      -0.07151909      -0.63300676
C        1.83564332       0.43378275       0.36922520
C        0.44577916      -0.00829979       0.62820823
C       -0.20921935      -1.09919905      -0.24400964
C       -1.48953918      -0.23936099      -0.28593749
C       -0.66351205       0.98176045       0.16894069
H        2.90358862       0.94988253      -0.15731237
H        0.35524962      -0.20338773       1.70009315
H        0.27898038      -1.16624642      -1.21703398
H       -0.28355468      -2.09882846       0.18160066
H       -2.00974818      -0.15975520      -1.23991307
H       -2.20663259      -0.54351704       0.47772422
H       -0.32413479       1.58526842      -0.67453789
H       -1.08720119       1.63941961       0.92595905
14
Frame=7 idx=003306 GeodesicLength=0.22264650387451876 rxn_smarts="[O:1]=[C:2]([C:3]1([H:8])[C:4]([H:9])([H:10])[C:5]([H:11])([H:12])[C:6]1([H:13])[H:14])[H:7]>>[O:1]([C:2][C:3]1([H:8])[C:4]([H:9])([H:10])[C:5]([H:11])([H:12])[C:6]1([H:13])[H:14])[H:7]"
O        2.45849912      -0.07666659      -0.62376310
C        1.83924003       0.42557540       0.37569043
C        0.44627006      -0.01077709       0.62749925
C       -0.21062740      -1.10048373      -0.24465460
C       -1.48953191      -0.23840379      -0.28588954
C       -0.66098605       0.98128102       0.16853338
H        2.89366140       0.96982095      -0.16810619
H        0.35381068      -0.20636158       1.69938228
H        0.27674156      -1.16828883      -1.21801085
H       -0.28675581      -2.10019220       0.18054201
H       -2.01023400      -0.15801367      -1.23952830
H       -2.20672494      -0.54135933       0.47818118
H       -0.31993074       1.58370429      -0.67508406
H       -1.08343199       1.64016514       0.92520811
14
Frame=8 idx=003306 GeodesicLength=0.25451563805903554 rxn_smarts="[O:1]=[C:2]([C:3]1([H:8])[C:4]([H:9])([H:10])[C:5]([H:11])([H:12])[C:6]1([H:13])[H:14])[H:7]>>[O:1]([C:2][C:3]1([H:8])[C:4]([H:9])([H:10])[C:5]([H:11])([H:12])[C:6]1([H:13])[H:14])[H:7]"
O        2.46274583      -0.08173174      -0.61448651
C        1.84275975       0.41759571       0.38204327
C        0.44680137      -0.01313915       0.62672615
C       -0.21194249      -1.10167794      -0.24533115
C       -1.48946741      -0.23745897      -0.28581590
C       -0.65848982       0.98081715       0.16812139
H        2.88330884       0.98897741      -0.17870355
H        0.35244239      -0.20921995       1.69860254
H        0.27457150      -1.17020753      -1.21903252
H       -0.28978961      -2.10144768       0.17944761
H       -2.01068664      -0.15630984      -1.23909004
H       -2.20670564      -0.53924788       0.47869093
H       -0.31584881       1.58216481      -0.67564739
H       -1.07969927       1.64088560       0.92447517
14
Frame=9 idx=003306 GeodesicLength=0.28646506164653945 rxn_smarts="[O:1]=[C:2]([C:3]1([H:8])[C:4]([H:9])([H:10])[C:5]([H:11])([H:12])[C:6]1([H:13])[H:14])[H:7]>>[O:1]([C:2][C:3]1([H:8])[C:4]([H:9])([H:10])[C:5]([H:11])([H:12])[C:6]1([H:13])[H:14])[H:7]"
O        2.46699984      -0.08657651      -0.60531643
C        1.84625024       0.40986278       0.38826071
C        0.44738683      -0.01538285       0.62587679
C       -0.21319008      -1.10282030      -0.24603563
C       -1.48941131      -0.23654833      -0.28571315
C       -0.65605490       0.98039427       0.16768033
H        2.87288768       1.00731892      -0.18887521
H        0.35118724      -0.21196619       1.69775103
H        0.27242177      -1.17204627      -1.22010642
H       -0.29266672      -2.10266352       0.17833995
H       -2.01121846      -0.15467662      -1.23859562
H       -2.20663339      -0.53721551       0.47927374
H       -0.31193435       1.58068970      -0.67627077
H       -1.07602440       1.64163043       0.92373068
14
Frame=10 idx=003306 GeodesicLength=0.3184491610241321 rxn_smarts="[O:1]=[C:2]([C:3]1([H:8])[C:4]([H:9])([H:10])[C:5]([H:11])([H:12])[C:6]1([H:13])[H:14])[H:7]>>[O:1]([C:2][C:3]1([H:8])[C:4]([H:9])([H:10])[C:5]([H:11])([H:12])[C:6]1([H:13])[H:14])[H:7]"
O        2.47128137      -0.09129789      -0.59616129
C        1.84969663       0.40233900       0.39438120
C        0.44801633      -0.01752824       0.62496890
C       -0.21436888      -1.10390301      -0.24676743
C       -1.48933686      -0.23565731      -0.28558770
C       -0.65365790       0.97999786       0.16722395
H        2.86224968       1.02497933      -0.19879439
H        0.35001293      -0.21462222       1.69684105
H        0.27030721      -1.17379585      -1.22122498
H       -0.29540612      -2.10382157       0.17720765
H       -2.01177585      -0.15308935      -1.23805592
H       -2.20649196      -0.53523823       0.47991100
H       -0.30814122       1.57925727      -0.67692882
H       -1.07238535       1.64238021       0.92298676
14
Frame=11 idx=003306 GeodesicLength=0.3505097363983585 rxn_smarts="[O:1]=[C:2]([C:3]1([H:8])[C:4]([H:9])([H:10])[C:5]([H:11])([H:12])[C:6]1([H:13])[H:14])[H:7]>>[O:1]([C:2][C:3]1([H:8])[C:4]([H:9])([H:10])[C:5]([H:11])([H:12])[C:6]1([H:13])[H:14])[H:7]"
O        2.47566872      -0.09599998      -0.58689416
C        1.85312697       0.39501448       0.40045234
C        0.44869878      -0.01959413       0.62402629
C       -0.21548249      -1.10493820      -0.24752702
C       -1.48925101      -0.23477780      -0.28545305
C       -0.65128717       0.97963638       0.16676509
H        2.85128131       1.04208992      -0.20865625
H        0.34891811      -0.21722497       1.69589632
H        0.26823817      -1.17545601      -1.22238352
H       -0.29802766      -2.10495234       0.17603802
H       -2.01236262      -0.15151679      -1.23749521
H       -2.20630577      -0.53331653       0.48057629
H       -0.30444170       1.57789157      -0.67760153
H       -1.06877362       1.64314439       0.92225640
14
Frame=12 idx=003306 GeodesicLength=0.3825851267917702 rxn_smarts="[O:1]=[C:2]([C:3]1([H:8])[C:4]([H:9])([H:10])[C:5]([H:11])([H:12])[C:6]1([H:13])[H:14])[H:7]>>[O:1]([C:2][C:3]1([H:8])[C:4]([H:9])([H:10])[C:5]([H:11])([H:12])[C:6]1([H:13])[H:14])[H:7]"
O        2.47994505      -0.10037102      -0.57787398
C        1.85650555       0.38786728       0.40639484
C        0.44941378      -0.02156441       0.62300295
C       -0.21655393      -1.10593310      -0.24831053
C       -1.48917232      -0.23393824      -0.28527681
C       -0.64896302       0.97929498       0.16625393
H        2.84044955       1.05849097      -0.21793002
H        0.34790697      -0.21972020       1.69487964
H        0.26614390      -1.17706663      -1.22359890
H       -0.30052700      -2.10603836       0.17486827
H       -2.01303439      -0.15003821      -1.23685779
H       -2.20605164      -0.53144883       0.48134495
H       -0.30088026       1.57652999      -0.67837484
H       -1.06518223       1.64393577       0.92147829
14
Frame=13 idx=003306 GeodesicLength=0.41460846588768513 rxn_smarts="[O:1]=[C:2]([C:3]1([H:8])[C:4]([H:9])([H:10])[C:5]([H:11])([H:12])[C:6]1([H:13])[H:14])[H:7]>>[O:1]([C:2][C:3]1([H:8])[C:4]([H:9])([H:10])[C:5]([H:11])([H:12])[C:6]1([H:13])[H:14])[H:7]"
O        2.48431434      -0.10487378      -0.56862870
C        1.85978413       0.38090379       0.41228780
C        0.45014267      -0.02345529       0.62194318
C       -0.21753281      -1.10682849      -0.24912498
C       -1.48901474      -0.23308665      -0.28508401
C       -0.64665734       0.97894887       0.16577124
H        2.82913677       1.07437656      -0.22735490
H        0.34689949      -0.22214458       1.69380370
H        0.26415249      -1.17854015      -1.22483819
H       -0.30289502      -2.10699722       0.17363026
H       -2.01360366      -0.14854805      -1.23617458
H       -2.20569561      -0.52959507       0.48212329
H       -0.29739105       1.57517137      -0.67910121
H       -1.06163966       1.64466867       0.92074711
14
Frame=14 idx=003306 GeodesicLength=0.4468112715247598 rxn_smarts="[O:1]=[C:2]([C:3]1([H:8])[C:4]([H:9])([H:10])[C:5]([H:11])([H:12])[C:6]1([H:13])[H:14])[H:7]>>[O:1]([C:2][C:3]1([H:8])[C:4]([H:9])([H:10])[C:5]([H:11])([H:12])[C:6]1([H:13])[H:14])[H:7]"
O        2.48877158      -0.10927893      -0.55934458
C        1.86309849       0.37412919       0.41814606
C        0.45093978      -0.02527953       0.62085690
C       -0.21848229      -1.10772164      -0.24996214
C       -1.48890117      -0.23226352      -0.28489273
C       -0.64438615       0.97865938       0.16526831
H        2.81775380       1.08980266      -0.23661378
H        0.34600921      -0.22453469       1.69271999
H        0.26214846      -1.17997165      -1.22612606
H       -0.30518405      -2.10800768       0.17237825
H       -2.01429833      -0.14708592      -1.23549643
H       -2.20534660      -0.52782617       0.48293244
H       -0.29400913       1.57392131      -0.67987888
H       -1.05811360       1.64545718       0.92001264
14
Frame=15 idx=003306 GeodesicLength=0.47885974352114125 rxn_smarts="[O:1]=[C:2]([C:3]1([H:8])[C:4]([H:9])([H:10])[C:5]([H:11])([H:12])[C:6]1([H:13])[H:14])[H:7]>>[O:1]([C:2][C:3]1([H:8])[C:4]([H:9])([H:10])[C:5]([H:11])([H:12])[C:6]1([H:13])[H:14])[H:7]"
O        2.49310313      -0.11347809      -0.55022661
C        1.86629188       0.36747457       0.42388793
C        0.45173000      -0.02702215       0.61968971
C       -0.21936976      -1.10853506      -0.25082262
C       -1.48873424      -0.23145422      -0.28464980
C       -0.64214708       0.97835059       0.16473693
H        2.80636216       1.10462281      -0.24547203
H        0.34511622      -0.22681495       1.69153784
H        0.26017230      -1.18132567      -1.22744763
H       -0.30734837      -2.10888716       0.17110242
H       -2.01495376      -0.14569193      -1.23471237
H       -2.20488358      -0.52605679       0.48383089
H       -0.29072192       1.57260273      -0.68070268
H       -1.05461699       1.64621532       0.91924801
14
Frame=16 idx=003306 GeodesicLength=0.5110098344350608 rxn_smarts="[O:1]=[C:2]([C:3]1([H:8])[C:4]([H:9])([H:10])[C:5]([H:11])([H:12])[C:6]1([H:13])[H:14])[H:7]>>[O:1]([C:2][C:3]1([H:8])[C:4]([H:9])([H:10])[C:5]([H:11])([H:12])[C:6]1([H:13])[H:14])[H:7]"
O        2.49748633      -0.11762083      -0.54107062
C        1.86947611       0.36099355       0.42957495
C        0.45256418      -0.02869396       0.61848665
C       -0.22022204      -1.10932239      -0.25170656
C       -1.48858852      -0.23066708      -0.28439896
C       -0.63994801       0.97807874       0.16419259
H        2.79494619       1.11899640      -0.25417753
H        0.34430513      -0.22904542       1.69032941
H        0.25819471      -1.18261987      -1.22881365
H       -0.30942301      -2.10976849       0.16980770
H       -2.01568502      -0.14432884      -1.23391420
H       -2.20440317      -0.52435686       0.48476426
H       -0.28754704       1.57135936      -0.68156051
H       -1.05115584       1.64699568       0.91848646
