18
Frame=0 idx=010238 GeodesicLength=0.0 rxn_smarts="[C:1]([C:2]([C:3]([H:12])([H:13])[H:14])([N:4]([C:5]([H:15])([H:16])[H:17])[C:6](=[O:7])[H:18])[H:11])([H:8])([H:9])[H:10]>>[C:1]([C:2]([C:3]([H:12])([H:13])[H:14])([N:4]1[C@:6]([C:5]([H:15])([H:16])[H:17])([H:18])[O:7]1)[H:11])([H:8])([H:9])[H:10]"
C       -0.86966770      -1.12509798      -0.72538771
C       -0.94859964       0.35658014      -0.38353378
C       -1.96457644       0.65307638       0.73662264
N        0.22396629       1.06915613      -0.02579099
C        2.13693919      -0.30683064       0.68007545
C        1.52057561       0.62381686      -0.39086179
O        1.43467012       0.19700485      -1.63016333
H       -0.57468409      -1.71135070       0.14671916
H       -1.85674254      -1.46941420      -1.03673709
H       -0.15199890      -1.30568054      -1.52390334
H       -1.32438727       0.89803845      -1.26829076
H       -2.05469034       1.72488851       0.90492833
H       -2.93787155       0.24955013       0.45714975
H       -1.65107418       0.17888637       1.66818318
H        2.17932080       0.16485093       1.66261706
H        1.57232586      -1.23533518       0.73734809
H        3.14865050      -0.52861601       0.33911358
H        2.11784424       1.56647648      -0.34808842
18
Frame=1 idx=010238 GeodesicLength=0.10467566835245852 rxn_smarts="[C:1]([C:2]([C:3]([H:12])([H:13])[H:14])([N:4]([C:5]([H:15])([H:16])[H:17])[C:6](=[O:7])[H:18])[H:11])([H:8])([H:9])[H:10]>>[C:1]([C:2]([C:3]([H:12])([H:13])[H:14])([N:4]1[C@:6]([C:5]([H:15])([H:16])[H:17])([H:18])[O:7]1)[H:11])([H:8])([H:9])[H:10]"
C       -0.87190458      -1.13566322      -0.72221259
C       -0.94130541       0.34772428      -0.38632945
C       -1.94368545       0.65311890       0.74203155
N        0.24023556       1.05371759      -0.03885869
C        2.10547860      -0.30267011       0.68598220
C        1.53744407       0.64312268      -0.41894915
O        1.42074890       0.23734335      -1.65977575
H       -0.58075437      -1.72120051       0.15169427
H       -1.86095133      -1.47512047      -1.03271220
H       -0.15631289      -1.32377438      -1.52097066
H       -1.31890813       0.88679147      -1.27078410
H       -2.02980769       1.72598420       0.90641794
H       -2.92215205       0.25337023       0.47497213
H       -1.62415355       0.18131058       1.67293869
H        2.11385006       0.14701256       1.67978166
H        1.56249398      -1.24531078       0.70712498
H        3.13274618      -0.50634349       0.38117923
H        2.13693811       1.58058711      -0.35153005
18
Frame=2 idx=010238 GeodesicLength=0.20956029392264533 rxn_smarts="[C:1]([C:2]([C:3]([H:12])([H:13])[H:14])([N:4]([C:5]([H:15])([H:16])[H:17])[C:6](=[O:7])[H:18])[H:11])([H:8])([H:9])[H:10]>>[C:1]([C:2]([C:3]([H:12])([H:13])[H:14])([N:4]1[C@:6]([C:5]([H:15])([H:16])[H:17])([H:18])[O:7]1)[H:11])([H:8])([H:9])[H:10]"
C       -0.87388910      -1.14619020      -0.71887889
C       -0.93398671       0.33889823      -0.38923323
C       -1.92261296       0.65321176       0.74716811
N        0.25649816       1.03832265      -0.05236924
C        2.07370722      -0.29882942       0.69120420
C        1.55386812       0.66164338      -0.44602300
O        1.40616860       0.27944451      -1.68838930
H       -0.58641887      -1.73078498       0.15691060
H       -1.86483614      -1.48095834      -1.02848007
H       -0.16031927      -1.34173089      -1.51779013
H       -1.31352103       0.87543505      -1.27341124
H       -2.00472253       1.72711321       0.90757040
H       -2.90608921       0.25728610       0.49259158
H       -1.59704864       0.18378869       1.67737517
H        2.04857962       0.12877010       1.69457682
H        1.55397373      -1.25453413       0.67824399
H        3.11490934      -0.48421181       0.42308484
H        2.15573967       1.59332610      -0.35415060
18
Frame=3 idx=010238 GeodesicLength=0.3147031411199963 rxn_smarts="[C:1]([C:2]([C:3]([H:12])([H:13])[H:14])([N:4]([C:5]([H:15])([H:16])[H:17])[C:6](=[O:7])[H:18])[H:11])([H:8])([H:9])[H:10]>>[C:1]([C:2]([C:3]([H:12])([H:13])[H:14])([N:4]1[C@:6]([C:5]([H:15])([H:16])[H:17])([H:18])[O:7]1)[H:11])([H:8])([H:9])[H:10]"
C       -0.87561825      -1.15668083      -0.71534495
C       -0.92665336       0.33010216      -0.39222398
C       -1.90144761       0.65336524       0.75198514
N        0.27271148       1.02296371      -0.06619889
C        2.04180662      -0.29533546       0.69575168
C        1.56982010       0.67943460      -0.47214319
O        1.39098907       0.32338132      -1.71585029
H       -0.59167938      -1.74009770       0.16241696
H       -1.86838881      -1.48694710      -1.02400539
H       -0.16403821      -1.35959002      -1.51433262
H       -1.30818842       0.86396458      -1.27617142
H       -1.97953229       1.72828412       0.90833356
H       -2.88976013       0.26132282       0.50989269
H       -1.56992293       0.18632729       1.68146986
H        1.98384347       0.11009358       1.70710861
H        1.54660022      -1.26297727       0.65081299
H        3.09522419      -0.46231230       0.46448987
H        2.17423423       1.60470124      -0.35599062
18
Frame=4 idx=010238 GeodesicLength=0.42012115274987355 rxn_smarts="[C:1]([C:2]([C:3]([H:12])([H:13])[H:14])([N:4]([C:5]([H:15])([H:16])[H:17])[C:6](=[O:7])[H:18])[H:11])([H:8])([H:9])[H:10]>>[C:1]([C:2]([C:3]([H:12])([H:13])[H:14])([N:4]1[C@:6]([C:5]([H:15])([H:16])[H:17])([H:18])[O:7]1)[H:11])([H:8])([H:9])[H:10]"
C       -0.87709942      -1.16713937      -0.71158082
C       -0.91931520       0.32133168      -0.39528465
C       -1.88027195       0.65358353       0.75644232
N        0.28884182       1.00762407      -0.08023528
C        2.00993925      -0.29220365       0.69966012
C        1.58527666       0.69655179      -0.49736962
O        1.37525619       0.36922947      -1.74201290
H       -0.59655772      -1.74913975       0.16824918
H       -1.87161245      -1.49309874      -1.01927055
H       -0.16749107      -1.37739634      -1.51056900
H       -1.30287693       0.85237447      -1.27906371
H       -1.95432217       1.72949942       0.90866474
H       -2.87324128       0.26550136       0.52677153
H       -1.54292612       0.18892545       1.68520567
H        1.91995344       0.09100786       1.71749494
H        1.54020351      -1.27063310       0.62491928
H        3.07380032      -0.44073822       0.50507921
H        2.19244311       1.61472006      -0.35710048
18
Frame=5 idx=010238 GeodesicLength=0.5257238134745039 rxn_smarts="[C:1]([C:2]([C:3]([H:12])([H:13])[H:14])([N:4]([C:5]([H:15])([H:16])[H:17])[C:6](=[O:7])[H:18])[H:11])([H:8])([H:9])[H:10]>>[C:1]([C:2]([C:3]([H:12])([H:13])[H:14])([N:4]1[C@:6]([C:5]([H:15])([H:16])[H:17])([H:18])[O:7]1)[H:11])([H:8])([H:9])[H:10]"
C       -0.87836449      -1.17757987      -0.70754953
C       -0.91197243       0.31257458      -0.39838677
C       -1.85918862       0.65387624       0.76048636
N        0.30487869       0.99225628      -0.09429165
C        1.97827390      -0.28947085       0.70293431
C        1.60022463       0.71307182      -0.52171752
O        1.35895335       0.41697988      -1.76673950
H       -0.60111080      -1.75792644       0.17445122
H       -1.87454065      -1.49941341      -1.01426695
H       -0.17072561      -1.39522402      -1.50645840
H       -1.29750909       0.84066615      -1.28208719
H       -1.92917840       1.73077327       0.90850949
H       -2.85663221       0.26986904       0.54307770
H       -1.51626068       0.19158114       1.68856489
H        1.85730604       0.07163823       1.72584727
H        1.53465025      -1.27759143       0.60050278
H        3.05083084      -0.41955049       0.54460508
H        2.21036529       1.62346990      -0.35748160
18
Frame=6 idx=010238 GeodesicLength=0.631580746432419 rxn_smarts="[C:1]([C:2]([C:3]([H:12])([H:13])[H:14])([N:4]([C:5]([H:15])([H:16])[H:17])[C:6](=[O:7])[H:18])[H:11])([H:8])([H:9])[H:10]>>[C:1]([C:2]([C:3]([H:12])([H:13])[H:14])([N:4]1[C@:6]([C:5]([H:15])([H:16])[H:17])([H:18])[O:7]1)[H:11])([H:8])([H:9])[H:10]"
C       -0.87941208      -1.18801199      -0.70322260
C       -0.90462886       0.30382048      -0.40153043
C       -1.83823563       0.65425688       0.76409603
N        0.32080365       0.97684333      -0.10835068
C        1.94691399      -0.28714544       0.70562773
C        1.61464376       0.72906491      -0.54529398
O        1.34212582       0.46678944      -1.78986381
H       -0.60536157      -1.76645630       0.18106348
H       -1.87716707      -1.50590835      -1.00897208
H       -0.17374025      -1.41312235      -1.50195843
H       -1.29208096       0.82880849      -1.28525379
H       -1.90414101       1.73211527       0.90782749
H       -2.83997513       0.27444165       0.55877074
H       -1.48999350       0.19432305       1.69154734
H        1.79595302       0.05191283       1.73232379
H        1.52981693      -1.28387316       0.57759581
H        3.02644211      -0.39878073       0.58282002
H        2.22803679       1.63092198      -0.35722663
18
Frame=7 idx=010238 GeodesicLength=0.737677691213197 rxn_smarts="[C:1]([C:2]([C:3]([H:12])([H:13])[H:14])([N:4]([C:5]([H:15])([H:16])[H:17])[C:6](=[O:7])[H:18])[H:11])([H:8])([H:9])[H:10]>>[C:1]([C:2]([C:3]([H:12])([H:13])[H:14])([N:4]1[C@:6]([C:5]([H:15])([H:16])[H:17])([H:18])[O:7]1)[H:11])([H:8])([H:9])[H:10]"
C       -0.88025843      -1.19845253      -0.69857172
C       -0.89728498       0.29505444      -0.40470884
C       -1.81746844       0.65473909       0.76724041
N        0.33661142       0.96135090      -0.12233906
C        1.91595933      -0.28525148       0.70777505
C        1.62852265       0.74461992      -0.56816844
O        1.32477466       0.51875703      -1.81121229
H       -0.60936047      -1.77474114       0.18812828
H       -1.87950658      -1.51259437      -1.00337898
H       -0.17654954      -1.43115781      -1.49701968
H       -1.28656001       0.81677739      -1.28857614
H       -1.87925625       1.73354185       0.90657134
H       -2.82333038       0.27924907       0.57377630
H       -1.46422815       0.19717443       1.69415060
H        1.73604519       0.03185625       1.73705195
H        1.52559238      -1.28955995       0.55614832
H        3.00081527      -0.37845952       0.61952606
H        2.24548234       1.63709645      -0.35639315
18
Frame=8 idx=010238 GeodesicLength=0.8439850683456329 rxn_smarts="[C:1]([C:2]([C:3]([H:12])([H:13])[H:14])([N:4]([C:5]([H:15])([H:16])[H:17])[C:6](=[O:7])[H:18])[H:11])([H:8])([H:9])[H:10]>>[C:1]([C:2]([C:3]([H:12])([H:13])[H:14])([N:4]1[C@:6]([C:5]([H:15])([H:16])[H:17])([H:18])[O:7]1)[H:11])([H:8])([H:9])[H:10]"
C       -0.88092495      -1.20891846      -0.69357467
C       -0.88994003       0.28625686      -0.40792249
C       -1.79692867       0.65533129       0.76988916
N        0.35230318       0.94574006      -0.13621605
C        1.88548877      -0.28380841       0.70941179
C        1.64184572       0.75981189      -0.59041029
O        1.30687828       0.57301245      -1.83059897
H       -0.61315944      -1.78278973       0.19567700
H       -1.88158157      -1.51947926      -0.99748124
H       -0.17917328      -1.44939444      -1.49159663
H       -1.28091805       0.80454003      -1.29206971
H       -1.85455366       1.73505883       0.90469172
H       -2.80674687       0.28431226       0.58803205
H       -1.43904071       0.20015786       1.69636841
H        1.67771577       0.01153188       1.74015907
H        1.52187248      -1.29473614       0.53611132
H        2.97411864      -0.35862819       0.65455881
H        2.26274438       1.64200122      -0.35502928
18
Frame=9 idx=010238 GeodesicLength=0.9503965346710082 rxn_smarts="[C:1]([C:2]([C:3]([H:12])([H:13])[H:14])([N:4]([C:5]([H:15])([H:16])[H:17])[C:6](=[O:7])[H:18])[H:11])([H:8])([H:9])[H:10]>>[C:1]([C:2]([C:3]([H:12])([H:13])[H:14])([N:4]1[C@:6]([C:5]([H:15])([H:16])[H:17])([H:18])[O:7]1)[H:11])([H:8])([H:9])[H:10]"
C       -0.88144316      -1.21944303      -0.68818419
C       -0.88258614       0.27740352      -0.41116624
C       -1.77667587       0.65606510       0.77199347
N        0.36789992       0.92995665      -0.14987086
C        1.85559162      -0.28288305       0.71050283
C        1.65462785       0.77478340      -0.61202140
O        1.28829148       0.62959746      -1.84785597
H       -0.61682050      -1.79061569       0.20378095
H       -1.88342681      -1.52658150      -0.99125601
H       -0.18164658      -1.46794095      -1.48561633
H       -1.27509392       0.79205853      -1.29576942
H       -1.83007172       1.73671312       0.90210876
H       -2.79029083       0.28968974       0.60142879
H       -1.41455246       0.20332979       1.69819965
H        1.62112783      -0.00903923       1.74172328
H        1.51863812      -1.29956283       0.51723486
H        2.94658147      -0.33928271       0.68788580
H        2.27984971       1.64575168      -0.35311796
18
Frame=10 idx=010238 GeodesicLength=1.0569817949720395 rxn_smarts="[C:1]([C:2]([C:3]([H:12])([H:13])[H:14])([N:4]([C:5]([H:15])([H:16])[H:17])[C:6](=[O:7])[H:18])[H:11])([H:8])([H:9])[H:10]>>[C:1]([C:2]([C:3]([H:12])([H:13])[H:14])([N:4]1[C@:6]([C:5]([H:15])([H:16])[H:17])([H:18])[O:7]1)[H:11])([H:8])([H:9])[H:10]"
C       -0.88182466      -1.23003909      -0.68240348
C       -0.87522414       0.26846983      -0.41446212
C       -1.75669948       0.65693556       0.77354594
N        0.38340325       0.91396497      -0.16338621
C        1.82628520      -0.28246411       0.71112865
C        1.66682764       0.78957935      -0.63314804
O        1.26904782       0.68874585      -1.86270164
H       -0.62038358      -1.79822658       0.21244049
H       -1.88505350      -1.53390927      -0.98470945
H       -0.18396972      -1.48682813      -1.47905691
H       -1.26909825       0.77928590      -1.29969358
H       -1.80578579       1.73848578       0.89879440
H       -2.77396586       0.29537662       0.61397970
H       -1.39073718       0.20670319       1.69963690
H        1.56623751      -0.02980784       1.74188914
H        1.51576925      -1.30406191       0.49958651
H        2.91831264      -0.32046424       0.71935425
H        2.29685883       1.64825413      -0.35079457
18
Frame=11 idx=010238 GeodesicLength=1.1637208919314146 rxn_smarts="[C:1]([C:2]([C:3]([H:12])([H:13])[H:14])([N:4]([C:5]([H:15])([H:16])[H:17])[C:6](=[O:7])[H:18])[H:11])([H:8])([H:9])[H:10]>>[C:1]([C:2]([C:3]([H:12])([H:13])[H:14])([N:4]1[C@:6]([C:5]([H:15])([H:16])[H:17])([H:18])[O:7]1)[H:11])([H:8])([H:9])[H:10]"
C       -0.88209350      -1.24073362      -0.67621465
C       -0.86784958       0.25942666      -0.41782537
C       -1.73700924       0.65795348       0.77451623
N        0.39883141       0.89771511      -0.17677723
C        1.79759773      -0.28257696       0.71130560
C        1.67843208       0.80430732      -0.65385807
O        1.24906181       0.75060570      -1.87486438
H       -0.62389815      -1.80563214       0.22168356
H       -1.88648926      -1.54147597      -0.97782983
H       -0.18616577      -1.50612603      -1.47187137
H       -1.26290803       0.76617157      -1.30387320
H       -1.78168413       1.74038805       0.89468726
H       -2.75779379       0.30139871       0.62564531
H       -1.36761468       0.21031482       1.70066908
H        1.51306733      -0.05072355       1.74075567
H        1.51320998      -1.30832938       0.48306244
H        2.88948252      -0.30219273       0.74891973
H        2.31382325       1.64950896      -0.34813080
18
Frame=12 idx=010238 GeodesicLength=1.2705983210118723 rxn_smarts="[C:1]([C:2]([C:3]([H:12])([H:13])[H:14])([N:4]([C:5]([H:15])([H:16])[H:17])[C:6](=[O:7])[H:18])[H:11])([H:8])([H:9])[H:10]>>[C:1]([C:2]([C:3]([H:12])([H:13])[H:14])([N:4]1[C@:6]([C:5]([H:15])([H:16])[H:17])([H:18])[O:7]1)[H:11])([H:8])([H:9])[H:10]"
C       -0.88227939      -1.25155574      -0.66959522
C       -0.86045414       0.25024068      -0.42127308
C       -1.71761134       0.65913285       0.77486619
N        0.41420583       0.88114904      -0.19006448
C        1.76955367      -0.28325164       0.71103373
C        1.68941042       0.81906051      -0.67423540
O        1.22823940       0.81536889      -1.88398633
H       -0.62742029      -1.81284261       0.23154612
H       -1.88776798      -1.54929863      -0.97060151
H       -0.18826389      -1.52591164      -1.46400927
H       -1.25648233       0.75265749      -1.30835107
H       -1.75774972       1.74243138       0.88971108
H       -2.74179199       0.30778384       0.63637942
H       -1.34519741       0.21421326       1.70127846
H        1.46164972      -0.07174471       1.73840602
H        1.51091686      -1.31246297       0.46754855
H        2.86025971      -0.28446637       0.77656271
H        2.33078285       1.64949638      -0.34521593
18
Frame=13 idx=010238 GeodesicLength=1.3775447997466896 rxn_smarts="[C:1]([C:2]([C:3]([H:12])([H:13])[H:14])([N:4]([C:5]([H:15])([H:16])[H:17])[C:6](=[O:7])[H:18])[H:11])([H:8])([H:9])[H:10]>>[C:1]([C:2]([C:3]([H:12])([H:13])[H:14])([N:4]1[C@:6]([C:5]([H:15])([H:16])[H:17])([H:18])[O:7]1)[H:11])([H:8])([H:9])[H:10]"
C       -0.88239340      -1.26254535      -0.66250077
C       -0.85303042       0.24087836      -0.42483209
C       -1.69852229       0.66051050       0.77453810
N        0.42955888       0.86421489      -0.20324297
C        1.74219642      -0.28454975       0.71027424
C        1.69977426       0.83400487      -0.69428718
O        1.20630179       0.88319910      -1.88972944
H       -0.63098084      -1.81985350       0.24210212
H       -1.88890255      -1.55741995      -0.96299284
H       -0.19027376      -1.54628856      -1.45538636
H       -1.24977639       0.73866524      -1.31320090
H       -1.73398361       1.74466774       0.88375071
H       -2.72598461       0.31457997       0.64610126
H       -1.32351073       0.21849054       1.70145015
H        1.41203135      -0.09286350       1.73489157
H        1.50890458      -1.31658445       0.45283762
H        2.83077204      -0.26735781       0.80228975
H        2.34781928       1.64825169      -0.34206296
18
Frame=14 idx=010238 GeodesicLength=1.4846379035153459 rxn_smarts="[C:1]([C:2]([C:3]([H:12])([H:13])[H:14])([N:4]([C:5]([H:15])([H:16])[H:17])[C:6](=[O:7])[H:18])[H:11])([H:8])([H:9])[H:10]>>[C:1]([C:2]([C:3]([H:12])([H:13])[H:14])([N:4]1[C@:6]([C:5]([H:15])([H:16])[H:17])([H:18])[O:7]1)[H:11])([H:8])([H:9])[H:10]"
C       -0.88247555      -1.27372592      -0.65494704
C       -0.84557564       0.23129607      -0.42853426
C       -1.67970022       0.66206447       0.77350969
N        0.44490775       0.84683994      -0.21645565
C        1.71549436      -0.28644266       0.70907599
C        1.70943079       0.84916992      -0.71420288
O        1.18327969       0.95437516      -1.89151048
H       -0.63463466      -1.82667863       0.25332792
H       -1.88994009      -1.56584336      -0.95500230
H       -0.19223849      -1.56729119      -1.44599988
H       -1.24276744       0.72413435      -1.31845138
H       -1.71030869       1.74705253       0.87675256
H       -2.71034616       0.32177876       0.65482629
H       -1.30247618       0.22315025       1.70114284
H        1.36414052      -0.11394335       1.73031880
H        1.50707118      -1.32071937       0.43898275
H        2.80114361      -0.25083387       0.82607198
H        2.36499523       1.64561688      -0.33890495
18
Frame=15 idx=010238 GeodesicLength=1.5918477642591196 rxn_smarts="[C:1]([C:2]([C:3]([H:12])([H:13])[H:14])([N:4]([C:5]([H:15])([H:16])[H:17])[C:6](=[O:7])[H:18])[H:11])([H:8])([H:9])[H:10]>>[C:1]([C:2]([C:3]([H:12])([H:13])[H:14])([N:4]1[C@:6]([C:5]([H:15])([H:16])[H:17])([H:18])[O:7]1)[H:11])([H:8])([H:9])[H:10]"
C       -0.88254711      -1.28512789      -0.64691017
C       -0.83808291       0.22145236      -0.43241135
C       -1.66113681       0.66380519       0.77172688
N        0.46027969       0.82896157      -0.22976729
C        1.68944957      -0.28894054       0.70741741
C        1.71832932       0.86467421      -0.73407065
O        1.15901331       1.02909208      -1.88871931
H       -0.63841726      -1.83331234       0.26525913
H       -1.89090494      -1.57459500      -0.94660352
H       -0.19418170      -1.58898893      -1.43579256
H       -1.23539654       0.70898835      -1.32416600
H       -1.68669045       1.74958899       0.86860962
H       -2.69487709       0.32940266       0.66250437
H       -1.28206974       0.22825373       1.70031543
H        1.31796421      -0.13491161       1.72473924
H        1.50539609      -1.32493473       0.42588020
H        2.77146950      -0.23490800       0.84789067
H        2.38240284       1.64149990      -0.33590211
18
Frame=16 idx=010238 GeodesicLength=1.6991652127379162 rxn_smarts="[C:1]([C:2]([C:3]([H:12])([H:13])[H:14])([N:4]([C:5]([H:15])([H:16])[H:17])[C:6](=[O:7])[H:18])[H:11])([H:8])([H:9])[H:10]>>[C:1]([C:2]([C:3]([H:12])([H:13])[H:14])([N:4]1[C@:6]([C:5]([H:15])([H:16])[H:17])([H:18])[O:7]1)[H:11])([H:8])([H:9])[H:10]"
C       -0.88261532      -1.29680845      -0.63836978
C       -0.83054946       0.21130678      -0.43651226
C       -1.64283237       0.66576714       0.76913442
N        0.47570377       0.81051486      -0.24326818
C        1.66407055      -0.29205842       0.70526602
C        1.72640690       0.88063427      -0.75398661
O        1.13326018       1.10762192      -1.88057069
H       -0.64234454      -1.83976780       0.27794935
H       -1.89180507      -1.58374173      -0.93778208
H       -0.19610954      -1.61148933      -1.42471898
H       -1.22760061       0.69315099      -1.33045794
H       -1.66312100       1.75233586       0.85919003
H       -2.67958567       0.33749592       0.66908534
H       -1.26225725       0.23389918       1.69894819
H        1.27348990      -0.15569959       1.71819274
H        1.50387556      -1.32931100       0.41343008
H        2.74184514      -0.21959421       0.86772227
H        2.40016882       1.63574360      -0.33325192
