11
Frame=0 idx=006345 GeodesicLength=0.0 rxn_smarts="[O:1]=[c:2]1[o:3][c:4]([H:8])[c:5]([H:9])[c:6]([H:10])[c:7]1[H:11]>>[O:1]=[C:2]1[C:4](=[O:3])[C:5]([H:8])([H:9])[C:6]([H:10])=[C:7]1[H:11]"
O        1.94302334      -1.49812424       0.03721316
C        1.07905899      -0.69341565       0.06082118
O       -0.88894654      -2.20155882      -0.53696982
C       -0.55958092      -1.08750761      -0.10909335
C       -1.09917940       0.22651374      -0.35739939
C       -0.15267220       1.26146548      -0.07575586
C        1.09204880       0.77525691       0.12239652
H       -0.81332789      -0.79271167       1.01658098
H       -2.10209380       0.39187371      -0.73198242
H       -0.42696325       2.30290420       0.02788892
H        1.92863282       1.31530390       0.54630005
11
Frame=1 idx=006345 GeodesicLength=0.10141825939343813 rxn_smarts="[O:1]=[c:2]1[o:3][c:4]([H:8])[c:5]([H:9])[c:6]([H:10])[c:7]1[H:11]>>[O:1]=[C:2]1[C:4](=[O:3])[C:5]([H:8])([H:9])[C:6]([H:10])=[C:7]1[H:11]"
O        1.94778040      -1.50154904       0.07781517
C        1.07662677      -0.70277786       0.05626259
O       -0.81469229      -2.19170567      -0.59197223
C       -0.57554544      -1.08215011      -0.10082455
C       -1.11826856       0.23155418      -0.32166747
C       -0.15123526       1.25955059      -0.07773575
C        1.09204492       0.76633898       0.10758666
H       -0.86486883      -0.79402762       1.02916014
H       -2.11626116       0.40118290      -0.70672496
H       -0.41363819       2.30492576       0.01887765
H        1.93805764       1.30865787       0.50922276
11
Frame=2 idx=006345 GeodesicLength=0.202919677620556 rxn_smarts="[O:1]=[c:2]1[o:3][c:4]([H:8])[c:5]([H:9])[c:6]([H:10])[c:7]1[H:11]>>[O:1]=[C:2]1[C:4](=[O:3])[C:5]([H:8])([H:9])[C:6]([H:10])=[C:7]1[H:11]"
O        1.95306585      -1.50349130       0.11555598
C        1.07544733      -0.71226802       0.05120743
O       -0.74326934      -2.17611540      -0.64025756
C       -0.59063226      -1.07819833      -0.09351382
C       -1.13503361       0.23544689      -0.28853814
C       -0.14994381       1.25651433      -0.07930136
C        1.09203451       0.75716247       0.09342095
H       -0.91795550      -0.79599703       1.03937598
H       -2.12868477       0.41000630      -0.68207738
H       -0.40159007       2.30525724       0.01084961
H        1.94656167       1.30168286       0.47327829
11
Frame=3 idx=006345 GeodesicLength=0.304557685065294 rxn_smarts="[O:1]=[c:2]1[o:3][c:4]([H:8])[c:5]([H:9])[c:6]([H:10])[c:7]1[H:11]>>[O:1]=[C:2]1[C:4](=[O:3])[C:5]([H:8])([H:9])[C:6]([H:10])=[C:7]1[H:11]"
O        1.95907812      -1.50392417       0.14928827
C        1.07547960      -0.72162692       0.04653841
O       -0.67513267      -2.15633767      -0.68111930
C       -0.60473511      -1.07528982      -0.08709230
C       -1.14959056       0.23827266      -0.25808661
C       -0.14870453       1.25248497      -0.07993575
C        1.09209303       0.74789157       0.08027313
H       -0.97323045      -0.79851544       1.04679584
H       -2.13918283       0.41833583      -0.65888070
H       -0.39064922       2.30402749       0.00434530
H        1.95457463       1.29468151       0.43787372
11
Frame=4 idx=006345 GeodesicLength=0.40631235164975676 rxn_smarts="[O:1]=[c:2]1[o:3][c:4]([H:8])[c:5]([H:9])[c:6]([H:10])[c:7]1[H:11]>>[O:1]=[C:2]1[C:4](=[O:3])[C:5]([H:8])([H:9])[C:6]([H:10])=[C:7]1[H:11]"
O        1.96614963      -1.50327305       0.17849554
C        1.07670790      -0.73086074       0.04256876
O       -0.61056000      -2.13426031      -0.71440482
C       -0.61783976      -1.07331440      -0.08140400
C       -1.16225499       0.24023841      -0.23011612
C       -0.14751778       1.24791122      -0.07906685
C        1.09228595       0.73882198       0.06830436
H       -1.03096958      -0.80170395       1.05133639
H       -2.14775754       0.42637246      -0.63794147
H       -0.38067784       2.30196903      -0.00030433
H        1.96243402       1.28809935       0.40253254
11
Frame=5 idx=006345 GeodesicLength=0.5082080044481914 rxn_smarts="[O:1]=[c:2]1[o:3][c:4]([H:8])[c:5]([H:9])[c:6]([H:10])[c:7]1[H:11]>>[O:1]=[C:2]1[C:4](=[O:3])[C:5]([H:8])([H:9])[C:6]([H:10])=[C:7]1[H:11]"
O        1.97428318      -1.50175728       0.20411464
C        1.07921295      -0.73965630       0.03868203
O       -0.54953167      -2.11076178      -0.74079572
C       -0.62983045      -1.07202056      -0.07628282
C       -1.17335157       0.24158685      -0.20413446
C       -0.14642069       1.24299394      -0.07623203
C        1.09262674       0.73002683       0.05751836
H       -1.09113538      -0.80560009       1.05286292
H       -2.15451029       0.43417111      -0.61919957
H       -0.37160709       2.29922921      -0.00319947
H        1.97026428       1.28178808       0.36666612
11
Frame=6 idx=006345 GeodesicLength=0.6101506805536361 rxn_smarts="[O:1]=[c:2]1[o:3][c:4]([H:8])[c:5]([H:9])[c:6]([H:10])[c:7]1[H:11]>>[O:1]=[C:2]1[C:4](=[O:3])[C:5]([H:8])([H:9])[C:6]([H:10])=[C:7]1[H:11]"
O        1.98405594      -1.49939622       0.22429169
C        1.08289974      -0.74805736       0.03501361
O       -0.49227620      -2.08722891      -0.75947028
C       -0.64083346      -1.07118455      -0.07108598
C       -1.18306770       0.24235124      -0.18002739
C       -0.14524077       1.23785537      -0.07172227
C        1.09322474       0.72165035       0.04772581
H       -1.15395908      -0.80965578       1.05133035
H       -2.15929811       0.44174165      -0.60339079
H       -0.36321651       2.29605786      -0.00421176
H        1.97771141       1.27586634       0.33154700
11
Frame=7 idx=006345 GeodesicLength=0.7121387075186476 rxn_smarts="[O:1]=[c:2]1[o:3][c:4]([H:8])[c:5]([H:9])[c:6]([H:10])[c:7]1[H:11]>>[O:1]=[C:2]1[C:4](=[O:3])[C:5]([H:8])([H:9])[C:6]([H:10])=[C:7]1[H:11]"
O        1.99546131      -1.49621036       0.23987672
C        1.08775205      -0.75595259       0.03131066
O       -0.43863193      -2.06418450      -0.77103765
C       -0.65087593      -1.07063785      -0.06551374
C       -1.19162719       0.24262354      -0.15736709
C       -0.14396657       1.23253462      -0.06508811
C        1.09408862       0.71371427       0.03875545
H       -1.21963618      -0.81388598       1.04639252
H       -2.16208340       0.44912318      -0.59054541
H       -0.35539075       2.29247614      -0.00303140
H        1.98490998       1.27039952       0.29624805
11
Frame=8 idx=006345 GeodesicLength=0.8142795255574757 rxn_smarts="[O:1]=[c:2]1[o:3][c:4]([H:8])[c:5]([H:9])[c:6]([H:10])[c:7]1[H:11]>>[O:1]=[C:2]1[C:4](=[O:3])[C:5]([H:8])([H:9])[C:6]([H:10])=[C:7]1[H:11]"
O        2.00869123      -1.49233984       0.25101185
C        1.09379800      -0.76343953       0.02738268
O       -0.38842600      -2.04217244      -0.77587864
C       -0.65998662      -1.07028534      -0.05912432
C       -1.19924257       0.24249874      -0.13574416
C       -0.14260236       1.22711069      -0.05603720
C        1.09523822       0.70624535       0.03031783
H       -1.28829521      -0.81817579       1.03780751
H       -2.16286413       0.45644570      -0.58064607
H       -0.34805497       2.28863913       0.00018656
H        1.99174440       1.26547334       0.26072398
11
Frame=9 idx=006345 GeodesicLength=0.916221115368191 rxn_smarts="[O:1]=[c:2]1[o:3][c:4]([H:8])[c:5]([H:9])[c:6]([H:10])[c:7]1[H:11]>>[O:1]=[C:2]1[C:4](=[O:3])[C:5]([H:8])([H:9])[C:6]([H:10])=[C:7]1[H:11]"
O        2.02365968      -1.48761868       0.25780449
C        1.10085828      -0.77013359       0.02317463
O       -0.34163622      -2.02119605      -0.77474477
C       -0.66818928      -1.07012773      -0.05148643
C       -1.20607538       0.24199880      -0.11445004
C       -0.14110051       1.22155107      -0.04368057
C        1.09661995       0.69926889       0.02287710
H       -1.36009853      -0.82288651       1.02513583
H       -2.16143419       0.46356968      -0.57337166
H       -0.34094460       2.28463636       0.00413567
H        1.99834081       1.26093777       0.22460575
11
Frame=10 idx=006345 GeodesicLength=1.0182776268415406 rxn_smarts="[O:1]=[c:2]1[o:3][c:4]([H:8])[c:5]([H:9])[c:6]([H:10])[c:7]1[H:11]>>[O:1]=[C:2]1[C:4](=[O:3])[C:5]([H:8])([H:9])[C:6]([H:10])=[C:7]1[H:11]"
O        2.04064218      -1.48216447       0.26005820
C        1.10906377      -0.77642791       0.01832851
O       -0.29815252      -2.00193781      -0.76709628
C       -0.67552475      -1.07003628      -0.04189189
C       -1.21221999       0.24117943      -0.09359682
C       -0.13936462       1.21585142      -0.02891940
C        1.09831489       0.69275599       0.01501231
H       -1.43493067      -0.82707794       1.00801009
H       -2.15778241       0.47059110      -0.56899510
H       -0.33419650       2.28028903       0.01032331
H        2.00415064       1.25697745       0.18876706
11
Frame=11 idx=006345 GeodesicLength=1.1202837322855994 rxn_smarts="[O:1]=[c:2]1[o:3][c:4]([H:8])[c:5]([H:9])[c:6]([H:10])[c:7]1[H:11]>>[O:1]=[C:2]1[C:4](=[O:3])[C:5]([H:8])([H:9])[C:6]([H:10])=[C:7]1[H:11]"
O        2.05957069      -1.47589832       0.25796069
C        1.11830156      -0.78219302       0.01292316
O       -0.25784632      -1.98450306      -0.75321551
C       -0.68204584      -1.07005980      -0.02976731
C       -1.21780013       0.24006866      -0.07272046
C       -0.13736486       1.20998742      -0.01095186
C        1.10021755       0.68671834       0.00668610
H       -1.51299172      -0.83086418       0.98567863
H       -2.15156981       0.47747970      -0.56757110
H       -0.32769670       2.27563810       0.01858829
H        2.00922558       1.25362616       0.15238936
11
Frame=12 idx=006345 GeodesicLength=1.2222657296397776 rxn_smarts="[O:1]=[c:2]1[o:3][c:4]([H:8])[c:5]([H:9])[c:6]([H:10])[c:7]1[H:11]>>[O:1]=[C:2]1[C:4](=[O:3])[C:5]([H:8])([H:9])[C:6]([H:10])=[C:7]1[H:11]"
O        2.08046745      -1.46880377       0.25134716
C        1.12850797      -0.78750071       0.00678641
O       -0.22061397      -1.96922295      -0.73280435
C       -0.68779504      -1.07020527      -0.01434956
C       -1.22292876       0.23872156      -0.05162045
C       -0.13503929       1.20393351       0.01008996
C        1.10221777       0.68115069      -0.00288235
H       -1.59413110      -0.83384097       0.95740071
H       -2.14251898       0.48420253      -0.56919964
H       -0.32145771       2.27064188       0.02952241
H        2.01329166       1.25092351       0.11570970
11
Frame=13 idx=006345 GeodesicLength=1.3240551165065932 rxn_smarts="[O:1]=[c:2]1[o:3][c:4]([H:8])[c:5]([H:9])[c:6]([H:10])[c:7]1[H:11]>>[O:1]=[C:2]1[C:4](=[O:3])[C:5]([H:8])([H:9])[C:6]([H:10])=[C:7]1[H:11]"
O        2.10305766      -1.46056073       0.24035670
C        1.13940935      -0.79211587       0.00017961
O       -0.18641118      -1.95585248      -0.70559764
C       -0.69286927      -1.07036436       0.00504100
C       -1.22771269       0.23708948      -0.03001292
C       -0.13227946       1.19739119       0.03431228
C        1.10406388       0.67594321      -0.01316909
H       -1.67813169      -0.83582453       0.92178090
H       -2.13010337       0.49052200      -0.57404075
H       -0.31538897       2.26496348       0.04404244
H        2.01636574       1.24880861       0.07710747
11
Frame=14 idx=006345 GeodesicLength=1.4257931517379252 rxn_smarts="[O:1]=[c:2]1[o:3][c:4]([H:8])[c:5]([H:9])[c:6]([H:10])[c:7]1[H:11]>>[O:1]=[C:2]1[C:4](=[O:3])[C:5]([H:8])([H:9])[C:6]([H:10])=[C:7]1[H:11]"
O        2.12728402      -1.45133682       0.22440046
C        1.15092603      -0.79637244      -0.00749479
O       -0.15517730      -1.94516916      -0.67057759
C       -0.69735683      -1.07053217       0.02940317
C       -1.23233120       0.23530250      -0.00815277
C       -0.12908007       1.19051663       0.05990009
C        1.10555831       0.67111243      -0.02589675
H       -1.76384355      -0.83587315       0.87830174
H       -2.11431885       0.49620339      -0.58217432
H       -0.30951908       2.25876871       0.06376172
H        2.01785853       1.24738009       0.03852904
11
Frame=15 idx=006345 GeodesicLength=1.5273785943621343 rxn_smarts="[O:1]=[c:2]1[o:3][c:4]([H:8])[c:5]([H:9])[c:6]([H:10])[c:7]1[H:11]>>[O:1]=[C:2]1[C:4](=[O:3])[C:5]([H:8])([H:9])[C:6]([H:10])=[C:7]1[H:11]"
O        2.15260640      -1.44115729       0.20328555
C        1.16265141      -0.80023348      -0.01601354
O       -0.12673553      -1.93681319      -0.62763160
C       -0.70144205      -1.07056623       0.05924482
C       -1.23700717       0.23340610       0.01430116
C       -0.12550349       1.18320450       0.08677133
C        1.10631185       0.66654776      -0.04022724
H       -1.84990259      -0.83402404       0.82576572
H       -2.09488610       0.50105267      -0.59320374
H       -0.30370528       2.25205119       0.08837413
H        2.01761254       1.24653202      -0.00066660
11
Frame=16 idx=006345 GeodesicLength=1.6288249724559989 rxn_smarts="[O:1]=[c:2]1[o:3][c:4]([H:8])[c:5]([H:9])[c:6]([H:10])[c:7]1[H:11]>>[O:1]=[C:2]1[C:4](=[O:3])[C:5]([H:8])([H:9])[C:6]([H:10])=[C:7]1[H:11]"
O        2.17826913      -1.43034745       0.17688696
C        1.17411824      -0.80380912      -0.02528687
O       -0.10080774      -1.93025318      -0.57712406
C       -0.70535872      -1.07027677       0.09457445
C       -1.24204465       0.23150286       0.03766920
C       -0.12171199       1.17548938       0.11447078
C        1.10598553       0.66212405      -0.05522506
H       -1.93394653      -0.83040580       0.76366831
H       -2.07199119       0.50500831      -0.60612880
H       -0.29791213       2.24489921       0.11647601
H        2.01540004       1.24606850      -0.03998091
