14
Frame=0 idx=009203 GeodesicLength=0.0 rxn_smarts="[O:1]([C:2]([C:3]#[C:4][C@@:5]1([H:11])[C:6]([H:12])([H:13])[N:7]1[H:14])([H:9])[H:10])[H:8]>>[O:1]([C:2](=[C:3]=[C:4]([C@@:5]1([H:11])[C:6]([H:12])([H:13])[N:7]1[H:14])[H:10])[H:9])[H:8]"
O        2.27984444      -1.06331009      -0.49501456
C        1.94750450       0.11123334       0.10478692
C        1.10883645       0.07266732       1.35316323
C        0.36699864       0.60163580       0.41326783
C       -0.99754135       0.77969576      -0.11048151
C       -1.75623477      -0.43138691      -0.51867603
N       -2.07423279       0.25802548       0.71777247
H        1.90474475      -1.77176733       0.04168744
H        2.71999618       0.86930638       0.01102546
H        1.13048666       0.80011145      -0.66992088
H       -1.21287077       1.72617005      -0.59306904
H       -1.23471322      -1.38050316      -0.47152596
H       -2.50159266      -0.34375889      -1.29986511
H       -1.68122605      -0.22811918       1.51684977
14
Frame=1 idx=009203 GeodesicLength=0.11796363522008023 rxn_smarts="[O:1]([C:2]([C:3]#[C:4][C@@:5]1([H:11])[C:6]([H:12])([H:13])[N:7]1[H:14])([H:9])[H:10])[H:8]>>[O:1]([C:2](=[C:3]=[C:4]([C@@:5]1([H:11])[C:6]([H:12])([H:13])[N:7]1[H:14])[H:10])[H:9])[H:8]"
O        2.31526930      -1.07864855      -0.47165977
C        1.96992496       0.10675470       0.10267091
C        1.10880098       0.09332354       1.32696006
C        0.35505576       0.60795160       0.39353868
C       -1.01675904       0.78360442      -0.10800827
C       -1.77657043      -0.42446018      -0.52223276
N       -2.08190827       0.24802465       0.72689897
H        1.93342295      -1.77963102       0.06969174
H        2.75063231       0.85822518       0.02177301
H        1.14568658       0.79972255      -0.69162666
H       -1.24241683       1.73523930      -0.57561414
H       -1.25073099      -1.37196165      -0.49417083
H       -2.53242533      -0.33005537      -1.29251981
H       -1.67798194      -0.24808916       1.51429889
14
Frame=2 idx=009203 GeodesicLength=0.23595469309640704 rxn_smarts="[O:1]([C:2]([C:3]#[C:4][C@@:5]1([H:11])[C:6]([H:12])([H:13])[N:7]1[H:14])([H:9])[H:10])[H:8]>>[O:1]([C:2](=[C:3]=[C:4]([C@@:5]1([H:11])[C:6]([H:12])([H:13])[N:7]1[H:14])[H:10])[H:9])[H:8]"
O        2.35175245      -1.09414064      -0.44631356
C        1.99322794       0.10225213       0.10046249
C        1.10881011       0.11434088       1.29880115
C        0.34284830       0.61412495       0.37214744
C       -1.03648326       0.78760340      -0.10539625
C       -1.79779102      -0.41706572      -0.52594093
N       -2.08911020       0.23723934       0.73636019
H        1.96255301      -1.78704978       0.09978829
H        2.78172782       0.84727669       0.03322895
H        1.16143322       0.79834191      -0.71468808
H       -1.27273455       1.74451688      -0.55683569
H       -1.26790852      -1.36270956      -0.51830346
H       -2.56475961      -0.31546399      -1.28428582
H       -1.67356569      -0.26926651       1.51097528
14
Frame=3 idx=009203 GeodesicLength=0.3539800445509376 rxn_smarts="[O:1]([C:2]([C:3]#[C:4][C@@:5]1([H:11])[C:6]([H:12])([H:13])[N:7]1[H:14])([H:9])[H:10])[H:8]>>[O:1]([C:2](=[C:3]=[C:4]([C@@:5]1([H:11])[C:6]([H:12])([H:13])[N:7]1[H:14])[H:10])[H:9])[H:8]"
O        2.38940953      -1.10966755      -0.41879992
C        2.01746662       0.09774243       0.09818104
C        1.10885679       0.13559443       1.26846628
C        0.33036183       0.62005887       0.34893075
C       -1.05668681       0.79165452      -0.10264295
C       -1.81999752      -0.40916188      -0.52976989
N       -2.09575727       0.22564966       0.74614324
H        1.99217325      -1.79390491       0.13204363
H        2.81323330       0.83657256       0.04555358
H        1.17775699       0.79577955      -0.73924403
H       -1.30373553       1.75395646      -0.53662791
H       -1.28647187      -1.35269025      -0.54396743
H       -2.59871110      -0.29990206      -1.27502122
H       -1.66789821      -0.29168182       1.50675484
14
Frame=4 idx=009203 GeodesicLength=0.472044638735484 rxn_smarts="[O:1]([C:2]([C:3]#[C:4][C@@:5]1([H:11])[C:6]([H:12])([H:13])[N:7]1[H:14])([H:9])[H:10])[H:8]>>[O:1]([C:2](=[C:3]=[C:4]([C@@:5]1([H:11])[C:6]([H:12])([H:13])[N:7]1[H:14])[H:10])[H:9])[H:8]"
O        2.42836065      -1.12508067      -0.38893049
C        2.04269438       0.09324822       0.09585113
C        1.10893309       0.15692446       1.23571431
C        0.31758110       0.62563870       0.32371374
C       -1.07732733       0.79571190      -0.09974672
C       -1.84329790      -0.40070244      -0.53368010
N       -2.10175885       0.21323937       0.75622816
H        2.02232251      -1.80006223       0.16651152
H        2.84507487       0.82625028       0.05893115
H        1.19468789       0.79181152      -0.76544598
H       -1.33529383       1.76350310      -0.51488058
H       -1.30667735      -1.34184421      -0.57119759
H       -2.63439356      -0.28327414      -1.26456541
H       -1.66090565      -0.31536388       1.50149685
14
Frame=5 idx=009203 GeodesicLength=0.5901557298796094 rxn_smarts="[O:1]([C:2]([C:3]#[C:4][C@@:5]1([H:11])[C:6]([H:12])([H:13])[N:7]1[H:14])([H:9])[H:10])[H:8]>>[O:1]([C:2](=[C:3]=[C:4]([C@@:5]1([H:11])[C:6]([H:12])([H:13])[N:7]1[H:14])[H:10])[H:9])[H:8]"
O        2.46874575      -1.14019725      -0.35648606
C        2.06896569       0.08880015       0.09350192
C        1.10903312       0.17813313       1.20027816
C        0.30448927       0.63071975       0.29630374
C       -1.09834580       0.79972068      -0.09670380
C       -1.86781452      -0.39162633      -0.53762594
N       -2.10701310       0.19999134       0.76658822
H        2.05306497      -1.80536879       0.20325721
H        2.87713991       0.81648742       0.07355785
H        1.21224818       0.78614807      -0.79347203
H       -1.36723771       1.77309576      -0.49146558
H       -1.32882678      -1.33009986      -0.60003490
H       -2.67192933      -0.26544782      -1.25273225
H       -1.65251967      -0.34035624       1.49503346
14
Frame=6 idx=009203 GeodesicLength=0.7083113911394585 rxn_smarts="[O:1]([C:2]([C:3]#[C:4][C@@:5]1([H:11])[C:6]([H:12])([H:13])[N:7]1[H:14])([H:9])[H:10])[H:8]>>[O:1]([C:2](=[C:3]=[C:4]([C@@:5]1([H:11])[C:6]([H:12])([H:13])[N:7]1[H:14])[H:10])[H:9])[H:8]"
O        2.51070472      -1.15477108      -0.32127735
C        2.09633136       0.08443963       0.09117963
C        1.10914144       0.19892995       1.16187263
C        0.29106880       0.63513492       0.26651502
C       -1.11965377       0.80361106      -0.09352457
C       -1.89366611      -0.38188198      -0.54153383
N       -2.11141850       0.18592232       0.77717778
H        2.08444061      -1.80965898       0.24223501
H        2.90927626       0.80749702       0.08970688
H        1.23047012       0.77849097      -0.82348220
H       -1.39932430       1.78264647      -0.46630377
H       -1.35325159      -1.31740271      -0.63044529
H       -2.71140897      -0.24630880      -1.23931566
H       -1.64271006      -0.36664880       1.48719571
14
Frame=7 idx=009203 GeodesicLength=0.8265119993102572 rxn_smarts="[O:1]([C:2]([C:3]#[C:4][C@@:5]1([H:11])[C:6]([H:12])([H:13])[N:7]1[H:14])([H:9])[H:10])[H:8]>>[O:1]([C:2](=[C:3]=[C:4]([C@@:5]1([H:11])[C:6]([H:12])([H:13])[N:7]1[H:14])[H:10])[H:9])[H:8]"
O        2.55437569      -1.16851937      -0.28308617
C        2.12483529       0.08022116       0.08893358
C        1.10925034       0.21898641       1.12019247
C        0.27729976       0.63869193       0.23415343
C       -1.14113890       0.80730674      -0.09021552
C       -1.92097487      -0.37139983      -0.54532519
N       -2.11486194       0.17104017       0.78794314
H        2.11651209      -1.81275553       0.28341812
H        2.94127319       0.79953901       0.10764973
H        1.24937138       0.76846055      -0.85566354
H       -1.43125339       1.79206895      -0.43929199
H       -1.38031690      -1.30368184      -0.66240547
H       -2.75291249      -0.22569667      -1.22408728
H       -1.63145925      -0.39426167       1.47778468
14
Frame=8 idx=009203 GeodesicLength=0.9447633051368224 rxn_smarts="[O:1]([C:2]([C:3]#[C:4][C@@:5]1([H:11])[C:6]([H:12])([H:13])[N:7]1[H:14])([H:9])[H:10])[H:8]>>[O:1]([C:2](=[C:3]=[C:4]([C@@:5]1([H:11])[C:6]([H:12])([H:13])[N:7]1[H:14])[H:10])[H:9])[H:8]"
O        2.59993082      -1.18106948      -0.24173388
C        2.15452102       0.07622140       0.08684190
C        1.10933706       0.23783068       1.07492332
C        0.26316453       0.64116277       0.19904557
C       -1.16264999       0.81071488      -0.08680130
C       -1.94986108      -0.36011833      -0.54888698
N       -2.11724958       0.15540603       0.79881267
H        2.14932968      -1.81448968       0.32660735
H        2.97284301       0.79294823       0.12775736
H        1.26899706       0.75564225      -0.89018505
H       -1.46262103       1.80124789      -0.41041421
H       -1.41042654      -1.28889020      -0.69579245
H       -2.79648537      -0.20346295      -1.20679223
H       -1.61882959      -0.42314350       1.46661795
14
Frame=9 idx=009203 GeodesicLength=1.0629750160986629 rxn_smarts="[O:1]([C:2]([C:3]#[C:4][C@@:5]1([H:11])[C:6]([H:12])([H:13])[N:7]1[H:14])([H:9])[H:10])[H:8]>>[O:1]([C:2](=[C:3]=[C:4]([C@@:5]1([H:11])[C:6]([H:12])([H:13])[N:7]1[H:14])[H:10])[H:9])[H:8]"
O        2.64724938      -1.19211034      -0.19695520
C        2.18534342       0.07250449       0.08492685
C        1.10945319       0.25518432       1.02571484
C        0.24863602       0.64241217       0.16100774
C       -1.18401724       0.81376302      -0.08326626
C       -1.98035514      -0.34792772      -0.55214736
N       -2.11837080       0.13891554       0.80969784
H        2.18288172      -1.81460710       0.37196740
H        3.00363355       0.78794694       0.15019778
H        1.28926901       0.73951234      -0.92725044
H       -1.49307672       1.81011261      -0.37943025
H       -1.44385117      -1.27285738      -0.73067070
H       -2.84208270      -0.17937755      -1.18716888
H       -1.60471251      -0.45347133       1.45337662
14
Frame=10 idx=009203 GeodesicLength=1.1811936534674665 rxn_smarts="[O:1]([C:2]([C:3]#[C:4][C@@:5]1([H:11])[C:6]([H:12])([H:13])[N:7]1[H:14])([H:9])[H:10])[H:8]>>[O:1]([C:2](=[C:3]=[C:4]([C@@:5]1([H:11])[C:6]([H:12])([H:13])[N:7]1[H:14])[H:10])[H:9])[H:8]"
O        2.69668620      -1.20101508      -0.14873891
C        2.21734916       0.06921600       0.08335763
C        1.10952399       0.27010230       0.97224576
C        0.23369415       0.64204921       0.11993674
C       -1.20499451       0.81631286      -0.07970581
C       -2.01259993      -0.33477379      -0.55489697
N       -2.11823455       0.12183564       0.82048048
H        2.21738939      -1.81301117       0.41879857
H        3.03309680       0.78510659       0.17564387
H        1.31028306       0.71955466      -0.96695453
H       -1.52191641       1.81848654      -0.34660206
H       -1.48115583      -1.25562949      -0.76659257
H       -2.88965874      -0.15328162      -1.16493484
H       -1.58946278      -0.48495265       1.43796263
14
Frame=11 idx=009203 GeodesicLength=1.299371149897451 rxn_smarts="[O:1]([C:2]([C:3]#[C:4][C@@:5]1([H:11])[C:6]([H:12])([H:13])[N:7]1[H:14])([H:9])[H:10])[H:8]>>[O:1]([C:2](=[C:3]=[C:4]([C@@:5]1([H:11])[C:6]([H:12])([H:13])[N:7]1[H:14])[H:10])[H:9])[H:8]"
O        2.74831480      -1.20720734      -0.09693423
C        2.25047314       0.06650541       0.08224325
C        1.10956323       0.28183366       0.91415898
C        0.21831614       0.63977142       0.07571718
C       -1.22531569       0.81825367      -0.07615952
C       -2.04663653      -0.32052193      -0.55698401
N       -2.11672439       0.10423157       0.83103852
H        2.25304595      -1.80953218       0.46682646
H        3.06052706       0.78491239       0.20451014
H        1.33200348       0.69504232      -1.00946784
H       -1.54849513       1.82625660      -0.31193035
H       -1.52274736      -1.23708282      -0.80335582
H       -2.93907363      -0.12487080      -1.13979973
H       -1.57325109      -0.51759195       1.42013696
14
Frame=12 idx=009203 GeodesicLength=1.4175407115424832 rxn_smarts="[O:1]([C:2]([C:3]#[C:4][C@@:5]1([H:11])[C:6]([H:12])([H:13])[N:7]1[H:14])([H:9])[H:10])[H:8]>>[O:1]([C:2](=[C:3]=[C:4]([C@@:5]1([H:11])[C:6]([H:12])([H:13])[N:7]1[H:14])[H:10])[H:9])[H:8]"
O        2.80229608      -1.20998976      -0.04148886
C        2.28465124       0.06458510       0.08177356
C        1.10957037       0.28940022       0.85113277
C        0.20249481       0.63526213       0.02831616
C       -1.24467602       0.81947685      -0.07270244
C       -2.08247532      -0.30506565      -0.55820430
N       -2.11382543       0.08627540       0.84124048
H        2.29002302      -1.80414127       0.51535309
H        3.08504058       0.78797848       0.23735860
H        1.35451180       0.66521745      -1.05488251
H       -1.57205677       1.83330916      -0.27561647
H       -1.56900656      -1.21716177      -0.84057073
H       -2.99010061      -0.09389387      -1.11147480
H       -1.55644720      -0.55125247       1.39976547
14
Frame=13 idx=009203 GeodesicLength=1.5353339109335948 rxn_smarts="[O:1]([C:2]([C:3]#[C:4][C@@:5]1([H:11])[C:6]([H:12])([H:13])[N:7]1[H:14])([H:9])[H:10])[H:8]>>[O:1]([C:2](=[C:3]=[C:4]([C@@:5]1([H:11])[C:6]([H:12])([H:13])[N:7]1[H:14])[H:10])[H:9])[H:8]"
O        2.85761918      -1.20894175       0.01776323
C        2.31943024       0.06360169       0.08182576
C        1.10973465       0.29256558       0.78269762
C        0.18624380       0.62859240      -0.02237759
C       -1.26270137       0.81990591      -0.06924897
C       -2.11976425      -0.28817882      -0.55850023
N       -2.10901535       0.06753393       0.85094054
H        2.32813600      -1.79632514       0.56514149
H        3.10556133       0.79434786       0.27413807
H        1.37749870       0.62922739      -1.10348330
H       -1.59204812       1.83952469      -0.23709826
H       -1.61981879      -1.19536773      -0.87844242
H       -3.04219393      -0.05996460      -1.07963857
H       -1.53868210      -0.58652140       1.37628263
14
Frame=14 idx=009203 GeodesicLength=1.6529386696907866 rxn_smarts="[O:1]([C:2]([C:3]#[C:4][C@@:5]1([H:11])[C:6]([H:12])([H:13])[N:7]1[H:14])([H:9])[H:10])[H:8]>>[O:1]([C:2](=[C:3]=[C:4]([C@@:5]1([H:11])[C:6]([H:12])([H:13])[N:7]1[H:14])[H:10])[H:9])[H:8]"
O        2.91457219      -1.20312165       0.08036745
C        2.35464761       0.06390291       0.08280040
C        1.11000934       0.28969940       0.70864326
C        0.16961238       0.61938638      -0.07612364
C       -1.27899561       0.81943022      -0.06597052
C       -2.15838873      -0.26985271      -0.55752714
N       -2.10257167       0.04853612       0.85998035
H        2.36769649      -1.78643077       0.61444187
H        3.12062693       0.80480355       0.31583875
H        1.40133356       0.58654928      -1.15508982
H       -1.60744366       1.84475096      -0.19718595
H       -1.67541803      -1.17187257      -0.91596047
H       -3.09481720      -0.02302225      -1.04413380
H       -1.52086362      -0.62275886       1.34991927
14
Frame=15 idx=009203 GeodesicLength=1.7701382803040564 rxn_smarts="[O:1]([C:2]([C:3]#[C:4][C@@:5]1([H:11])[C:6]([H:12])([H:13])[N:7]1[H:14])([H:9])[H:10])[H:8]>>[O:1]([C:2](=[C:3]=[C:4]([C@@:5]1([H:11])[C:6]([H:12])([H:13])[N:7]1[H:14])[H:10])[H:9])[H:8]"
O        2.97207209      -1.19196433       0.14631929
C        2.38964125       0.06575450       0.08470939
C        1.11063016       0.28030259       0.62852880
C        0.15270852       0.60770737      -0.13287214
C       -1.29308021       0.81794608      -0.06278647
C       -2.19782651      -0.24989193      -0.55513975
N       -2.09404478       0.02893533       0.86819604
H        2.40838311      -1.77413993       0.66348172
H        3.12849329       0.81941444       0.36244110
H        1.42598891       0.53647064      -1.20987709
H       -1.61752813       1.84877927      -0.15559549
H       -1.73545705      -1.14618582      -0.95304382
H       -3.14718339       0.01723821      -1.00463311
H       -1.50279728      -0.66036642       1.32027153
14
Frame=16 idx=009203 GeodesicLength=1.886588331009412 rxn_smarts="[O:1]([C:2]([C:3]#[C:4][C@@:5]1([H:11])[C:6]([H:12])([H:13])[N:7]1[H:14])([H:9])[H:10])[H:8]>>[O:1]([C:2](=[C:3]=[C:4]([C@@:5]1([H:11])[C:6]([H:12])([H:13])[N:7]1[H:14])[H:10])[H:9])[H:8]"
O        3.02829401      -1.17504403       0.21550544
C        2.42342721       0.06944054       0.08769067
C        1.11189788       0.26432966       0.54205688
C        0.13575286       0.59386864      -0.19243217
C       -1.30432566       0.81529494      -0.05964156
C       -2.23717398      -0.22832299      -0.55111527
N       -2.08276577       0.00836182       0.87543057
H        2.44878839      -1.75924319       0.71197783
H        3.12722434       0.83788012       0.41370834
H        1.45162416       0.47904312      -1.26783155
H       -1.62155739       1.85119572      -0.11225646
H       -1.79906499      -1.11791341      -0.98939918
H       -3.19809580       0.06061721      -0.96080784
H       -1.48402526      -0.69950816       1.28711429
