10
Frame=0 idx=000148 GeodesicLength=0.0 rxn_smarts="[O:1]=[C:2]1[C:3]([H:7])([H:8])[C@@:4]2([H:9])[O:5][C@@:6]12[H:10]>>[O:1]=[C:2]1[C:3]([H:7])([H:8])[C-:4]=[O+:5][C:6]1([H:9])[H:10]"
O       -0.13755458       2.08417980       0.46235865
C       -0.07856036       0.94309359       0.12377569
C       -1.12696195      -0.16391025       0.04234102
C       -0.09079876      -1.30403428      -0.07503463
O        0.68049860      -0.82520489      -1.14547264
C        1.11230918       0.04805207      -0.12143749
H       -1.71751758      -0.14952757      -0.87387318
H       -1.77406973      -0.18397768       0.91763275
H        0.96195037      -0.73698149       0.81662769
H        2.17070480       0.28831070      -0.14691787
10
Frame=1 idx=000148 GeodesicLength=0.04910531541924038 rxn_smarts="[O:1]=[C:2]1[C:3]([H:7])([H:8])[C@@:4]2([H:9])[O:5][C@@:6]12[H:10]>>[O:1]=[C:2]1[C:3]([H:7])([H:8])[C-:4]=[O+:5][C:6]1([H:9])[H:10]"
O       -0.13884726       2.08552081       0.45904633
C       -0.07862490       0.94397504       0.12204392
C       -1.12830829      -0.16207666       0.03929485
C       -0.09356324      -1.30097721      -0.07754479
O        0.68522460      -0.82988885      -1.14165004
C        1.11294664       0.04731488      -0.11686725
H       -1.72410179      -0.14359989      -0.87344023
H       -1.77270885      -0.18485104       0.91673713
H        0.96985962      -0.75455580       0.82546685
H        2.16812347       0.29913873      -0.15308678
10
Frame=2 idx=000148 GeodesicLength=0.09820337674473532 rxn_smarts="[O:1]=[C:2]1[C:3]([H:7])([H:8])[C@@:4]2([H:9])[O:5][C@@:6]12[H:10]>>[O:1]=[C:2]1[C:3]([H:7])([H:8])[C-:4]=[O+:5][C:6]1([H:9])[H:10]"
O       -0.14019321       2.08693100       0.45566495
C       -0.07872733       0.94496480       0.12012381
C       -1.12963154      -0.16020946       0.03623384
C       -0.09622003      -1.29782832      -0.08002579
O        0.69000431      -0.83450290      -1.13774360
C        1.11358726       0.04667587      -0.11221155
H       -1.73074480      -0.13772915      -0.87290811
H       -1.77126603      -0.18566032       0.91585062
H        0.97784051      -0.77255285       0.83414942
H        2.16535086       0.30991133      -0.15913359
10
Frame=3 idx=000148 GeodesicLength=0.1473006334607762 rxn_smarts="[O:1]=[C:2]1[C:3]([H:7])([H:8])[C@@:4]2([H:9])[O:5][C@@:6]12[H:10]>>[O:1]=[C:2]1[C:3]([H:7])([H:8])[C-:4]=[O+:5][C:6]1([H:9])[H:10]"
O       -0.14159687       2.08841889       0.45219228
C       -0.07886723       0.94606422       0.11801658
C       -1.13093180      -0.15830955       0.03315999
C       -0.09876890      -1.29458841      -0.08248059
O        0.69483991      -0.83904029      -1.13375188
C        1.11422977       0.04613657      -0.10746181
H       -1.73745099      -0.13191274      -0.87227131
H       -1.76973733      -0.18640574       0.91497857
H        0.98589338      -0.79099549       0.84266570
H        2.16239006       0.32063255      -0.16504755
10
Frame=4 idx=000148 GeodesicLength=0.19639579664798734 rxn_smarts="[O:1]=[C:2]1[C:3]([H:7])([H:8])[C@@:4]2([H:9])[O:5][C@@:6]12[H:10]>>[O:1]=[C:2]1[C:3]([H:7])([H:8])[C-:4]=[O+:5][C:6]1([H:9])[H:10]"
O       -0.14306282       2.08998777       0.44862918
C       -0.07904817       0.94727961       0.11570698
C       -1.13220927      -0.15637647       0.03007414
C       -0.10120656      -1.29125504      -0.08490710
O        0.69973109      -0.84349631      -1.12967423
C        1.11487134       0.04570595      -0.10262012
H       -1.74422402      -0.12616083      -0.87152519
H       -1.76811811      -0.18708308       0.91412493
H        0.99401752      -0.80988968       0.85100322
H        2.15924900       0.33128807      -0.17081182
10
Frame=5 idx=000148 GeodesicLength=0.24548834415214946 rxn_smarts="[O:1]=[C:2]1[C:3]([H:7])([H:8])[C@@:4]2([H:9])[O:5][C@@:6]12[H:10]>>[O:1]=[C:2]1[C:3]([H:7])([H:8])[C-:4]=[O+:5][C:6]1([H:9])[H:10]"
O       -0.14459438       2.09164211       0.44495776
C       -0.07927075       0.94861229       0.11319311
C       -1.13346398      -0.15441019       0.02697799
C       -0.10353247      -1.28782671      -0.08730604
O        0.70468080      -0.84786534      -1.12550595
C        1.11550894       0.04538613      -0.09767709
H       -1.75106638      -0.12047330      -0.87066429
H       -1.76640447      -0.18769060       0.91329372
H        1.00221073      -0.82925727       0.85914951
H        2.15593196       0.34188287      -0.17641872
10
Frame=6 idx=000148 GeodesicLength=0.2945745492587646 rxn_smarts="[O:1]=[C:2]1[C:3]([H:7])([H:8])[C@@:4]2([H:9])[O:5][C@@:6]12[H:10]>>[O:1]=[C:2]1[C:3]([H:7])([H:8])[C-:4]=[O+:5][C:6]1([H:9])[H:10]"
O       -0.14619752       2.09338466       0.44117143
C       -0.07953729       0.95006614       0.11046256
C       -1.13469531      -0.15241083       0.02387325
C       -0.10574334      -1.28430082      -0.08967645
O        0.70968764      -0.85213976      -1.12124806
C        1.11613953       0.04518539      -0.09263548
H       -1.75798145      -0.11485833      -0.86968174
H       -1.76459058      -0.18822424       0.91248987
H        1.01047306      -0.84910429       0.86709029
H        2.15244525       0.35240209      -0.18184566
10
Frame=7 idx=000148 GeodesicLength=0.34365374035098956 rxn_smarts="[O:1]=[C:2]1[C:3]([H:7])([H:8])[C@@:4]2([H:9])[O:5][C@@:6]12[H:10]>>[O:1]=[C:2]1[C:3]([H:7])([H:8])[C-:4]=[O+:5][C:6]1([H:9])[H:10]"
O       -0.14787702       2.09521916       0.43726992
C       -0.07985080       0.95164685       0.10750472
C       -1.13590456      -0.15037856       0.02076109
C       -0.10783535      -1.28067571      -0.09201362
O        0.71475065      -0.85631739      -1.11689885
C        1.11676035       0.04511278      -0.08749851
H       -1.76497303      -0.10932491      -0.86857379
H       -1.76267523      -0.18867987       0.91171572
H        1.01880264      -0.86943703       0.87481158
H        2.14880234       0.36283467      -0.18707825
10
Frame=8 idx=000148 GeodesicLength=0.3927254038580996 rxn_smarts="[O:1]=[C:2]1[C:3]([H:7])([H:8])[C@@:4]2([H:9])[O:5][C@@:6]12[H:10]>>[O:1]=[C:2]1[C:3]([H:7])([H:8])[C-:4]=[O+:5][C:6]1([H:9])[H:10]"
O       -0.14963538       2.09714724       0.43325648
C       -0.08021324       0.95335956       0.10430899
C       -1.13709214      -0.14831378       0.01764203
C       -0.10980521      -1.27695006      -0.09431094
O        0.71986799      -0.86039716      -1.11245600
C        1.11736816       0.04517708      -0.08227120
H       -1.77204243      -0.10388237      -0.86733873
H       -1.76065695      -0.18905337       0.91097292
H        1.02719505      -0.89025922       0.88230174
H        2.14501416       0.37317208      -0.19210530
10
Frame=9 idx=000148 GeodesicLength=0.4417778968694765 rxn_smarts="[O:1]=[C:2]1[C:3]([H:7])([H:8])[C@@:4]2([H:9])[O:5][C@@:6]12[H:10]>>[O:1]=[C:2]1[C:3]([H:7])([H:8])[C-:4]=[O+:5][C:6]1([H:9])[H:10]"
O       -0.15147836       2.09916538       0.42912566
C       -0.08062945       0.95520508       0.10085971
C       -1.13825802      -0.14621540       0.01451812
C       -0.11165404      -1.27311958      -0.09656579
O        0.72503737      -0.86437374      -1.10791695
C        1.11795395       0.04538325      -0.07695109
H       -1.77918696      -0.09853825      -0.86597019
H       -1.75853247      -0.18933451       0.91026481
H        1.03565899      -0.91158022       0.88954234
H        2.14108898       0.38340799      -0.19690661
10
Frame=10 idx=000148 GeodesicLength=0.49080973386960935 rxn_smarts="[O:1]=[C:2]1[C:3]([H:7])([H:8])[C@@:4]2([H:9])[O:5][C@@:6]12[H:10]>>[O:1]=[C:2]1[C:3]([H:7])([H:8])[C-:4]=[O+:5][C:6]1([H:9])[H:10]"
O       -0.15340796       2.10128053       0.42487266
C       -0.08109828       0.95718766       0.09715504
C       -1.13940361      -0.14408464       0.01139000
C       -0.11337833      -1.26918561      -0.09877112
O        0.73025978      -0.86824641      -1.10327706
C        1.11851750       0.04573872      -0.07153819
H       -1.78641060      -0.09329806      -0.86446753
H       -1.75630311      -0.18952237       0.90959294
H        1.04418785      -0.93340967       0.89652000
H        2.13703676       0.39353985      -0.20147675
10
Frame=11 idx=000148 GeodesicLength=0.5398147209760598 rxn_smarts="[O:1]=[C:2]1[C:3]([H:7])([H:8])[C@@:4]2([H:9])[O:5][C@@:6]12[H:10]>>[O:1]=[C:2]1[C:3]([H:7])([H:8])[C-:4]=[O+:5][C:6]1([H:9])[H:10]"
O       -0.15543040       2.10349370       0.42047827
C       -0.08162180       0.95930587       0.09318765
C       -1.14052698      -0.14192175       0.00826147
C       -0.11497575      -1.26514817      -0.10092723
O        0.73553698      -0.87200865      -1.09853349
C        1.11905569       0.04624747      -0.06602847
H       -1.79371216      -0.08816190      -0.86281909
H       -1.75395952      -0.18961262       0.90896158
H        1.05277040      -0.95576462       0.90321857
H        2.13286355       0.40357068      -0.20579926
10
Frame=12 idx=000148 GeodesicLength=0.5888156423098444 rxn_smarts="[O:1]=[C:2]1[C:3]([H:7])([H:8])[C@@:4]2([H:9])[O:5][C@@:6]12[H:10]>>[O:1]=[C:2]1[C:3]([H:7])([H:8])[C-:4]=[O+:5][C:6]1([H:9])[H:10]"
O       -0.15755037       2.10581548       0.41592698
C       -0.08219800       0.96156309       0.08896054
C       -1.14163244      -0.13972802       0.00513291
C       -0.11644706      -1.26100694      -0.10303178
O        0.74087184      -0.87565798      -1.09368433
C        1.11956720       0.04691623      -0.06041863
H       -1.80110101      -0.08313610      -0.86102361
H       -1.75150793      -0.18960229       0.90837635
H        1.06140986      -0.97866626       0.90962714
H        2.12858791       0.41350278      -0.20986556
10
Frame=13 idx=000148 GeodesicLength=0.6378119919761319 rxn_smarts="[O:1]=[C:2]1[C:3]([H:7])([H:8])[C@@:4]2([H:9])[O:5][C@@:6]12[H:10]>>[O:1]=[C:2]1[C:3]([H:7])([H:8])[C-:4]=[O+:5][C:6]1([H:9])[H:10]"
O       -0.15977843       2.10824945       0.41118018
C       -0.08282911       0.96395574       0.08447462
C       -1.14271570      -0.13750167       0.00200731
C       -0.11778974      -1.25675551      -0.10508336
O        0.74626315      -0.87918023      -1.08871944
C        1.12004233       0.04774849      -0.05469623
H       -1.80857594      -0.07821492      -0.85907013
H       -1.74893378      -0.18949068       0.90784013
H        1.07011035      -1.00214587       0.91572150
H        2.12420687       0.42333521      -0.21365459
10
Frame=14 idx=000148 GeodesicLength=0.686783531803115 rxn_smarts="[O:1]=[C:2]1[C:3]([H:7])([H:8])[C@@:4]2([H:9])[O:5][C@@:6]12[H:10]>>[O:1]=[C:2]1[C:3]([H:7])([H:8])[C-:4]=[O+:5][C:6]1([H:9])[H:10]"
O       -0.16211405       2.11079581       0.40622086
C       -0.08351364       0.96648208       0.07972495
C       -1.14377374      -0.13524510      -0.00110952
C       -0.11899992      -1.25239731      -0.10708125
O        0.75171566      -0.88257007      -1.08363772
C        1.12048189       0.04874956      -0.04885914
H       -1.81613139      -0.07340347      -0.85694636
H       -1.74622821      -0.18927593       0.90735966
H        1.07883520      -1.02621527       0.92148602
H        2.11972820       0.43307970      -0.21715752
10
Frame=15 idx=000148 GeodesicLength=0.7357525901589467 rxn_smarts="[O:1]=[C:2]1[C:3]([H:7])([H:8])[C@@:4]2([H:9])[O:5][C@@:6]12[H:10]>>[O:1]=[C:2]1[C:3]([H:7])([H:8])[C-:4]=[O+:5][C:6]1([H:9])[H:10]"
O       -0.16456384       2.11346754       0.40103508
C       -0.08425162       0.96914494       0.07471821
C       -1.14481307      -0.13295881      -0.00421668
C       -0.12007972      -1.24793261      -0.10901828
O        0.75723190      -0.88583094      -1.07843296
C        1.12088312       0.04992562      -0.04290310
H       -1.82377371      -0.06870533      -0.85465382
H       -1.74340692      -0.18895219       0.90693599
H        1.08760442      -1.05089629       0.92690331
H        2.11516944       0.44273807      -0.22036773
10
Frame=16 idx=000148 GeodesicLength=0.7847188519873425 rxn_smarts="[O:1]=[C:2]1[C:3]([H:7])([H:8])[C@@:4]2([H:9])[O:5][C@@:6]12[H:10]>>[O:1]=[C:2]1[C:3]([H:7])([H:8])[C-:4]=[O+:5][C:6]1([H:9])[H:10]"
O       -0.16713401       2.11627036       0.39558226
C       -0.08504287       0.97194053       0.06945657
C       -1.14583058      -0.13064370      -0.00730948
C       -0.12102627      -1.24335969      -0.11089365
O        0.76281466      -0.88895063      -1.07309826
C        1.12124162       0.05128162      -0.03681723
H       -1.83150264      -0.06411908      -0.85217906
H       -1.74045812      -0.18851740       0.90657555
H        1.09640588      -1.07622161       0.93194815
H        2.11053234       0.45231960      -0.22326485
