15
Frame=0 idx=006350 GeodesicLength=0.0 rxn_smarts="[C:1]([C:2]([O:3][C:4](=[O:5])[C:6]([O:7][H:15])([H:13])[H:14])([H:11])[H:12])([H:8])([H:9])[H:10]>>[C:1]([C:2](=[O:3])[H:11])([H:8])([H:9])[H:10].[C:4](=[O:5])([C:6]([O:7][H:15])([H:13])[H:14])[H:12]"
C       -2.13097226       0.27130687       0.32016228
C       -1.10822164      -0.26101679      -0.63860397
O       -0.33379936       0.55463571      -1.28022806
C        0.87880800      -0.53067995      -0.53703800
O        1.35581207      -1.36274797      -1.23990909
C        1.57192193       0.54029251       0.28945076
O        2.41634786      -0.06654804       1.22793916
H       -1.72063894       1.08462476       0.91683232
H       -2.95255892       0.67440459      -0.27971379
H       -2.52879003      -0.51173581       0.96552907
H       -1.36063442      -1.21687382      -1.12239782
H       -0.11423594      -0.90103314       0.20622526
H        2.11234425       1.17788239      -0.41691143
H        0.84804419       1.14238762       0.83082339
H        3.06657327      -0.59489888       0.75783987
15
Frame=1 idx=006350 GeodesicLength=0.11084919302847417 rxn_smarts="[C:1]([C:2]([O:3][C:4](=[O:5])[C:6]([O:7][H:15])([H:13])[H:14])([H:11])[H:12])([H:8])([H:9])[H:10]>>[C:1]([C:2](=[O:3])[H:11])([H:8])([H:9])[H:10].[C:4](=[O:5])([C:6]([O:7][H:15])([H:13])[H:14])[H:12]"
C       -2.15796849       0.27585622       0.31007223
C       -1.12546775      -0.26771754      -0.63175904
O       -0.33681522       0.54463545      -1.26306537
C        0.89575163      -0.53165977      -0.52074567
O        1.38336627      -1.37097652      -1.20945536
C        1.59275702       0.54286448       0.29680300
O        2.47285732      -0.05466702       1.20726478
H       -1.74690161       1.08233409       0.91558492
H       -2.96736218       0.68864978      -0.29946196
H       -2.57363621      -0.50463369       0.94742055
H       -1.38469680      -1.21449783      -1.12941447
H       -0.11673403      -0.91481561       0.21592527
H        2.10331527       1.19916127      -0.41489054
H        0.87008789       1.12853182       0.85881118
H        3.09144687      -0.60306514       0.71691047
15
Frame=2 idx=006350 GeodesicLength=0.22145378290970813 rxn_smarts="[C:1]([C:2]([O:3][C:4](=[O:5])[C:6]([O:7][H:15])([H:13])[H:14])([H:11])[H:12])([H:8])([H:9])[H:10]>>[C:1]([C:2](=[O:3])[H:11])([H:8])([H:9])[H:10].[C:4](=[O:5])([C:6]([O:7][H:15])([H:13])[H:14])[H:12]"
C       -2.18493194       0.28059963       0.29995558
C       -1.14331971      -0.27486260      -0.62479520
O       -0.33994295       0.53378909      -1.24523634
C        0.91316052      -0.53308428      -0.50422646
O        1.41120346      -1.37931067      -1.17882743
C        1.61390234       0.54525291       0.30407534
O        2.52951536      -0.04166674       1.18513036
H       -1.77293199       1.07969700       0.91468292
H       -2.98152724       0.70375673      -0.31901885
H       -2.61892129      -0.49705382       0.92870158
H       -1.41002066      -1.21160977      -1.13719876
H       -0.11922102      -0.92987553       0.22499573
H        2.09356336       1.21992725      -0.41216038
H        0.89315780       1.11386213       0.88703912
H        3.11631396      -0.60942131       0.67688278
15
Frame=3 idx=006350 GeodesicLength=0.33180245649862244 rxn_smarts="[C:1]([C:2]([O:3][C:4](=[O:5])[C:6]([O:7][H:15])([H:13])[H:14])([H:11])[H:12])([H:8])([H:9])[H:10]>>[C:1]([C:2](=[O:3])[H:11])([H:8])([H:9])[H:10].[C:4](=[O:5])([C:6]([O:7][H:15])([H:13])[H:14])[H:12]"
C       -2.21182988       0.28554777       0.28983542
C       -1.16180275      -0.28249694      -0.61771498
O       -0.34319884       0.52200280      -1.22673283
C        0.93107100      -0.53495920      -0.48746647
O        1.43941241      -1.38774732      -1.14800713
C        1.63534890       0.54750374       0.31123452
O        2.58617784      -0.02747881       1.16148328
H       -1.79869901       1.07671292       0.91412992
H       -2.99500539       0.71973244      -0.33833597
H       -2.66460523      -0.48893260       0.90940372
H       -1.43665017      -1.20813996      -1.14578779
H       -0.12166687      -0.94630388       0.23334241
H        2.08301606       1.24021412      -0.40874556
H        0.91729358       1.09840202       0.91547290
H        3.14113835      -0.61405711       0.63788857
15
Frame=4 idx=006350 GeodesicLength=0.4418929032865705 rxn_smarts="[C:1]([C:2]([O:3][C:4](=[O:5])[C:6]([O:7][H:15])([H:13])[H:14])([H:11])[H:12])([H:8])([H:9])[H:10]>>[C:1]([C:2](=[O:3])[H:11])([H:8])([H:9])[H:10].[C:4](=[O:5])([C:6]([O:7][H:15])([H:13])[H:14])[H:12]"
C       -2.23863446       0.29071864       0.27972196
C       -1.18095184      -0.29068729      -0.61052158
O       -0.34659969       0.50915072      -1.20754777
C        0.94951140      -0.53730557      -0.47043172
O        1.46807899      -1.39630278      -1.11693552
C        1.65705862       0.54964453       0.31827741
O        2.64279892      -0.01200632       1.13627903
H       -1.82415736       1.07334105       0.91394997
H       -3.00768780       0.73664345      -0.35738381
H       -2.71072516      -0.48017434       0.88950244
H       -1.46463409      -1.20401394      -1.15520646
H       -0.12405590      -0.96420972       0.24087060
H        2.07154355       1.26003125      -0.40462561
H        0.94253710       1.08215011       0.94409802
H        3.16591772      -0.61697980       0.59995302
15
Frame=5 idx=006350 GeodesicLength=0.5517060431380133 rxn_smarts="[C:1]([C:2]([O:3][C:4](=[O:5])[C:6]([O:7][H:15])([H:13])[H:14])([H:11])[H:12])([H:8])([H:9])[H:10]>>[C:1]([C:2](=[O:3])[H:11])([H:8])([H:9])[H:10].[C:4](=[O:5])([C:6]([O:7][H:15])([H:13])[H:14])[H:12]"
C       -2.26528237       0.29611678       0.26964676
C       -1.20079162      -0.29947324      -0.60322287
O       -0.35017142       0.49513918      -1.18766684
C        0.96851550      -0.54011760      -0.45312332
O        1.49729678      -1.40495679      -1.08559847
C        1.67902053       0.55173668       0.32514682
O        2.69910785       0.00483351       1.10949103
H       -1.84924945       1.06959002       0.91413708
H       -3.01954783       0.75447037      -0.37609717
H       -2.75714788      -0.47075203       0.86906904
H       -1.49400654      -1.19911719      -1.16549799
H       -0.12635629      -0.98369565       0.24745696
H        2.05910560       1.27938706      -0.39984182
H        0.96892419       1.06518271       0.97283722
H        3.19058295      -0.61834380       0.56326358
15
Frame=6 idx=006350 GeodesicLength=0.6612360542139792 rxn_smarts="[C:1]([C:2]([O:3][C:4](=[O:5])[C:6]([O:7][H:15])([H:13])[H:14])([H:11])[H:12])([H:8])([H:9])[H:10]>>[C:1]([C:2](=[O:3])[H:11])([H:8])([H:9])[H:10].[C:4](=[O:5])([C:6]([O:7][H:15])([H:13])[H:14])[H:12]"
C       -2.29174434       0.30175872       0.25962229
C       -1.22137351      -0.30893065      -0.59583742
O       -0.35393631       0.47981488      -1.16709820
C        0.98809197      -0.54343391      -0.43549715
O        1.52715269      -1.41373534      -1.05390961
C        1.70116731       0.55380866       0.33184767
O        2.75509757       0.02320172       1.08103218
H       -1.87391643       1.06539675       0.91472149
H       -3.03042431       0.77328963      -0.39443390
H       -2.80393905      -0.46051900       0.84806715
H       -1.52479776      -1.19336395      -1.17668435
H       -0.12856166      -1.00489113       0.25296676
H        2.04554976       1.29823931      -0.39430395
H        0.99649304       1.04749523       1.00168352
H        3.21514103      -0.61813095       0.52782353
15
Frame=7 idx=006350 GeodesicLength=0.7704942323158659 rxn_smarts="[C:1]([C:2]([O:3][C:4](=[O:5])[C:6]([O:7][H:15])([H:13])[H:14])([H:11])[H:12])([H:8])([H:9])[H:10]>>[C:1]([C:2](=[O:3])[H:11])([H:8])([H:9])[H:10].[C:4](=[O:5])([C:6]([O:7][H:15])([H:13])[H:14])[H:12]"
C       -2.31795421       0.30765192       0.24967409
C       -1.24273808      -0.31910984      -0.58838713
O       -0.35792076       0.46304574      -1.14582802
C        1.00825741      -0.54726723      -0.41753387
O        1.55774061      -1.42263552      -1.02180630
C        1.72344740       0.55590195       0.33834983
O        2.81055494       0.04324950       1.05082938
H       -1.89808107       1.06072045       0.91572908
H       -3.04022383       0.79312897      -0.41231998
H       -2.85102118      -0.44939050       0.82651749
H       -1.55703020      -1.18662957      -1.18881771
H       -0.13065041      -1.02793887       0.25726258
H        2.03080147       1.31654103      -0.38799245
H        1.02527022       1.02916607       1.03056154
H        3.23954769      -0.61643410       0.49376148
15
Frame=8 idx=006350 GeodesicLength=0.8794576547304638 rxn_smarts="[C:1]([C:2]([O:3][C:4](=[O:5])[C:6]([O:7][H:15])([H:13])[H:14])([H:11])[H:12])([H:8])([H:9])[H:10]>>[C:1]([C:2](=[O:3])[H:11])([H:8])([H:9])[H:10].[C:4](=[O:5])([C:6]([O:7][H:15])([H:13])[H:14])[H:12]"
C       -2.34383542       0.31381606       0.23981704
C       -1.26494542      -0.33007590      -0.58090543
O       -0.36216502       0.44466927      -1.12387541
C        1.02900371      -0.55165709      -0.39918791
O        1.58913379      -1.43168168      -0.98918599
C        1.74577427       0.55805727       0.34465558
O        2.86533311       0.06516940       1.01880525
H       -1.92165401       1.05549191       0.91717183
H       -3.04874583       0.81402056      -0.42969373
H       -2.89834719      -0.43722299       0.80442372
H       -1.59069986      -1.17877705      -1.20190002
H       -0.13265028      -1.05298684       0.26015060
H        2.01471086       1.33421867      -0.38080450
H        1.05527907       1.01024491       1.05942866
H        3.26380822      -0.61328648       0.46110029
15
Frame=9 idx=006350 GeodesicLength=0.9879412915443825 rxn_smarts="[C:1]([C:2]([O:3][C:4](=[O:5])[C:6]([O:7][H:15])([H:13])[H:14])([H:11])[H:12])([H:8])([H:9])[H:10]>>[C:1]([C:2](=[O:3])[H:11])([H:8])([H:9])[H:10].[C:4](=[O:5])([C:6]([O:7][H:15])([H:13])[H:14])[H:12]"
C       -2.36932486       0.32024369       0.23008278
C       -1.28805615      -0.34181503      -0.57343022
O       -0.36662612       0.42456943      -1.10110710
C        1.05026549      -0.55662055      -0.38019191
O        1.62137077      -1.44076019      -0.95584623
C        1.76802530       0.56033307       0.35080391
O        2.91939007       0.08914360       0.98461765
H       -1.94455570       1.04959980       0.91921551
H       -3.05590964       0.83602657      -0.44643413
H       -2.94582405      -0.42405956       0.78169583
H       -1.62573009      -1.16970852      -1.21605327
H       -0.13448810      -1.08019175       0.26133615
H        1.99745291       1.35106971      -0.37281168
H        1.08637443       0.99108348       1.08809244
H        3.28763574      -0.60891375       0.43003027
15
Frame=10 idx=006350 GeodesicLength=1.0960119605528438 rxn_smarts="[C:1]([C:2]([O:3][C:4](=[O:5])[C:6]([O:7][H:15])([H:13])[H:14])([H:11])[H:12])([H:8])([H:9])[H:10]>>[C:1]([C:2](=[O:3])[H:11])([H:8])([H:9])[H:10].[C:4](=[O:5])([C:6]([O:7][H:15])([H:13])[H:14])[H:12]"
C       -2.39430939       0.32696444       0.22051164
C       -1.31209342      -0.35444009      -0.56602883
O       -0.37139129       0.40256936      -1.07769409
C        1.07206385      -0.56219393      -0.36068455
O        1.65453794      -1.44998261      -0.92173605
C        1.79013569       0.56275030       0.35669566
O        2.97231389       0.11515689       0.94838410
H       -1.96666883       1.04301627       0.92178610
H       -3.06147536       0.85916968      -0.46245676
H       -2.99340967      -0.40964119       0.75844468
H       -1.66209933      -1.15925561      -1.23118134
H       -0.13618448      -1.10967821       0.26063920
H        1.97861380       1.36714350      -0.36396811
H        1.11873237       0.97154048       1.11661072
H        3.31123423      -0.60311927       0.40067763
15
Frame=11 idx=006350 GeodesicLength=1.2036734592085125 rxn_smarts="[C:1]([C:2]([O:3][C:4](=[O:5])[C:6]([O:7][H:15])([H:13])[H:14])([H:11])[H:12])([H:8])([H:9])[H:10]>>[C:1]([C:2](=[O:3])[H:11])([H:8])([H:9])[H:10].[C:4](=[O:5])([C:6]([O:7][H:15])([H:13])[H:14])[H:12]"
C       -2.41869765       0.33397116       0.21114865
C       -1.33708803      -0.36796285      -0.55876119
O       -0.37648671       0.37855551      -1.05362040
C        1.09436226      -0.56838383      -0.34060214
O        1.68867240      -1.45933955      -0.88670683
C        1.81202271       0.56536533       0.36226325
O        3.02381229       0.14331752       0.90997657
H       -1.98788995       1.03562955       0.92497210
H       -3.06529834       0.88348979      -0.47763053
H       -3.04098292      -0.39390896       0.73466354
H       -1.69972345      -1.14727457      -1.24734207
H       -0.13771192      -1.14159990       0.25784101
H        1.95814394       1.38233546      -0.35434642
H        1.15237899       0.95180860       1.14485969
H        3.33448639      -0.59600326       0.37328476
15
Frame=12 idx=006350 GeodesicLength=1.310911574354698 rxn_smarts="[C:1]([C:2]([O:3][C:4](=[O:5])[C:6]([O:7][H:15])([H:13])[H:14])([H:11])[H:12])([H:8])([H:9])[H:10]>>[C:1]([C:2](=[O:3])[H:11])([H:8])([H:9])[H:10].[C:4](=[O:5])([C:6]([O:7][H:15])([H:13])[H:14])[H:12]"
C       -2.44236326       0.34127224       0.20203586
C       -1.36309285      -0.38240429      -0.55172350
O       -0.38195571       0.35237701      -1.02894391
C        1.11709392      -0.57522049      -0.31986460
O        1.72380457      -1.46884802      -0.85054853
C        1.83354557       0.56823534       0.36746595
O        3.07360288       0.17372686       0.86920090
H       -2.00809616       1.02730684       0.92883490
H       -3.06712993       0.90900884      -0.49180968
H       -3.08841758      -0.37672663       0.71035951
H       -1.73847569      -1.13359734      -1.26451871
H       -0.13908459      -1.17611890       0.25263219
H        1.93590166       1.39653474      -0.34394093
H        1.18733422       0.93204124       1.17275647
H        3.35733295      -0.58758743       0.34806408
15
Frame=13 idx=006350 GeodesicLength=1.4175959710480672 rxn_smarts="[C:1]([C:2]([O:3][C:4](=[O:5])[C:6]([O:7][H:15])([H:13])[H:14])([H:11])[H:12])([H:8])([H:9])[H:10]>>[C:1]([C:2](=[O:3])[H:11])([H:8])([H:9])[H:10].[C:4](=[O:5])([C:6]([O:7][H:15])([H:13])[H:14])[H:12]"
C       -2.46518948       0.34879991       0.19328706
C       -1.39012415      -0.39772137      -0.54505955
O       -0.38779445       0.32400273      -1.00365901
C        1.14015272      -0.58265946      -0.29831904
O        1.75990082      -1.47840954      -0.81300627
C        1.85458090       0.57146557       0.37216323
O        3.12142672       0.20639862       0.82562610
H       -2.02720008       1.01780350       0.93361824
H       -3.06682755       0.93576018      -0.50468570
H       -3.13555051      -0.35817484       0.68551334
H       -1.77814796      -1.11802243      -1.28284809
H       -0.14016840      -1.21333595       0.24457885
H        1.91198290       1.40957298      -0.33302755
H        1.22356784       0.91272454       1.20001890
H        3.37939069      -0.57820445       0.32579949
15
Frame=14 idx=006350 GeodesicLength=1.5238713999315294 rxn_smarts="[C:1]([C:2]([O:3][C:4](=[O:5])[C:6]([O:7][H:15])([H:13])[H:14])([H:11])[H:12])([H:8])([H:9])[H:10]>>[C:1]([C:2](=[O:3])[H:11])([H:8])([H:9])[H:10].[C:4](=[O:5])([C:6]([O:7][H:15])([H:13])[H:14])[H:12]"
C       -2.48706025       0.35658569       0.18491480
C       -1.41820529      -0.41393883      -0.53886208
O       -0.39406874       0.29327091      -0.97788674
C        1.16348438      -0.59075754      -0.27595485
O        1.79696225      -1.48816135      -0.77378882
C        1.87500056       0.57507227       0.37631001
O        3.16677173       0.24122130       0.77925043
H       -2.04511196       1.00701203       0.93929108
H       -3.06410051       0.96378296      -0.51616268
H       -3.18229535      -0.33800841       0.66012528
H       -1.81858388      -1.10042780      -1.30219308
H       -0.14103829      -1.25338623       0.23345416
H        1.88612293       1.42136863      -0.32151988
H        1.26120623       0.89387094       1.22667100
H        3.40091619      -0.56750460       0.30635136
15
Frame=15 idx=006350 GeodesicLength=1.6297764908481345 rxn_smarts="[C:1]([C:2]([O:3][C:4](=[O:5])[C:6]([O:7][H:15])([H:13])[H:14])([H:11])[H:12])([H:8])([H:9])[H:10]>>[C:1]([C:2](=[O:3])[H:11])([H:8])([H:9])[H:10].[C:4](=[O:5])([C:6]([O:7][H:15])([H:13])[H:14])[H:12]"
C       -2.50786007       0.36459542       0.17699261
C       -1.44734285      -0.43098888      -0.53328571
O       -0.40080865       0.26015147      -0.95166295
C        1.18696846      -0.59949343      -0.25264805
O        1.83491970      -1.49810022      -0.73252774
C        1.89466712       0.57911388       0.37980927
O        3.20922651       0.27797932       0.72983549
H       -2.06176428       0.99476908       0.94595804
H       -3.05882177       0.99303866      -0.52601839
H       -3.22843986      -0.31623196       0.63422974
H       -1.85954014      -1.08061437      -1.32258699
H       -0.14166184      -1.29637626       0.21888041
H        1.85837580       1.43178111      -0.30958207
H        1.30027164       0.87583882       1.25253541
H        3.42181022      -0.55546264       0.29007093
15
Frame=16 idx=006350 GeodesicLength=1.7353689756085149 rxn_smarts="[C:1]([C:2]([O:3][C:4](=[O:5])[C:6]([O:7][H:15])([H:13])[H:14])([H:11])[H:12])([H:8])([H:9])[H:10]>>[C:1]([C:2](=[O:3])[H:11])([H:8])([H:9])[H:10].[C:4](=[O:5])([C:6]([O:7][H:15])([H:13])[H:14])[H:12]"
C       -2.52749830       0.37279535       0.16955168
C       -1.47754355      -0.44877924      -0.52849232
O       -0.40802802       0.22460031      -0.92498366
C        1.21043752      -0.60889850      -0.22809138
O        1.87362875      -1.50833521      -0.68857237
C        1.91343007       0.58361374       0.38266098
O        3.24835845       0.31624104       0.67721072
H       -2.07719701       0.98081134       0.95375352
H       -3.05073736       1.02355124      -0.53405778
H       -3.27388558      -0.29279380       0.60768766
H       -1.90067659      -1.05840181      -1.34403608
H       -0.14205680      -1.34237975       0.20052693
H        1.82880606       1.44061548      -0.29730052
H        1.34079453       0.85904429       1.27750776
H        3.44216783      -0.54168446       0.27663485
