13
Frame=0 idx=001983 GeodesicLength=0.0 rxn_smarts="[N:1]([C:2]([C@@:3]([N:4]([H:12])[H:13])([C:5]#[N:6])[H:11])([H:9])[H:10])([H:7])[H:8]>>[N:1]([C:2]([C@@:3]([N:4]([H:12])[H:13])([N+:6]#[C-:5])[H:11])([H:9])[H:10])([H:7])[H:8]"
N       -1.77994753       0.21422771       0.59044844
C       -0.68098007       0.56016643      -0.29479964
C        0.56210774      -0.06448885       0.29673111
N        0.75348281      -1.37794982       0.08331785
C        1.85560249       0.91414756      -1.01025600
N        2.39565027       1.02523419       0.02770404
H       -2.55408757       0.85240634       0.48692408
H       -2.11184309      -0.72663142       0.43503979
H       -0.55302494       1.63969701      -0.30506213
H       -0.79694618       0.23383725      -1.33429468
H        0.77346064       0.26173449       1.30423944
H        0.63023018      -1.70967514      -0.86037867
H        1.50629531      -1.82270580       0.58038639
13
Frame=1 idx=001983 GeodesicLength=0.061029613662682544 rxn_smarts="[N:1]([C:2]([C@@:3]([N:4]([H:12])[H:13])([C:5]#[N:6])[H:11])([H:9])[H:10])([H:7])[H:8]>>[N:1]([C:2]([C@@:3]([N:4]([H:12])[H:13])([N+:6]#[C-:5])[H:11])([H:9])[H:10])([H:7])[H:8]"
N       -1.77320168       0.18545935       0.57935918
C       -0.67550624       0.55962267      -0.29633973
C        0.57711960      -0.05243744       0.29228593
N        0.76963140      -1.37286860       0.08974388
C        1.86893692       0.90433974      -1.01676820
N        2.38276363       1.05090046       0.02775636
H       -2.52481522       0.85758387       0.54458965
H       -2.14298217      -0.72822020       0.36025765
H       -0.55980673       1.64146612      -0.30296142
H       -0.78627526       0.23827829      -1.33773782
H        0.77046063       0.27005401       1.30640021
H        0.56648223      -1.73781607      -0.82676393
H        1.52719288      -1.81636220       0.58017825
13
Frame=2 idx=001983 GeodesicLength=0.12158843425464136 rxn_smarts="[N:1]([C:2]([C@@:3]([N:4]([H:12])[H:13])([C:5]#[N:6])[H:11])([H:9])[H:10])([H:7])[H:8]>>[N:1]([C:2]([C@@:3]([N:4]([H:12])[H:13])([N+:6]#[C-:5])[H:11])([H:9])[H:10])([H:7])[H:8]"
N       -1.76522676       0.15665086       0.56632375
C       -0.66975855       0.55906192      -0.29838760
C        0.59190596      -0.04038450       0.28688083
N        0.78534792      -1.36663166       0.09311812
C        1.88163159       0.89480248      -1.02213800
N        2.36875636       1.07597856       0.02739844
H       -2.49270928       0.85431189       0.60226684
H       -2.17198010      -0.72353911       0.28622233
H       -0.56646815       1.64236048      -0.30031277
H       -0.77552628       0.24343104      -1.34161454
H        0.76789539       0.27723144       1.30730113
H        0.50143680      -1.76356801      -0.78707062
H        1.54469511      -1.80970539       0.58001208
13
Frame=3 idx=001983 GeodesicLength=0.18164459893580143 rxn_smarts="[N:1]([C:2]([C@@:3]([N:4]([H:12])[H:13])([C:5]#[N:6])[H:11])([H:9])[H:10])([H:7])[H:8]>>[N:1]([C:2]([C@@:3]([N:4]([H:12])[H:13])([N+:6]#[C-:5])[H:11])([H:9])[H:10])([H:7])[H:8]"
N       -1.75797388       0.12828388       0.55199748
C       -0.66431870       0.55843232      -0.30150790
C        0.60633716      -0.02878405       0.28046917
N        0.80126370      -1.36108154       0.09306380
C        1.89537663       0.88739990      -1.02672077
N        2.35478949       1.10135078       0.02685646
H       -2.45870773       0.84561950       0.66089751
H       -2.20205987      -0.71303677       0.21532782
H       -0.57380618       1.64351976      -0.29847633
H       -0.76456978       0.24839520      -1.34667353
H        0.76456382       0.28279277       1.30738324
H        0.43913129      -1.78814383      -0.74252866
H        1.55997404      -1.80474790       0.57991170
13
Frame=4 idx=001983 GeodesicLength=0.24174704718007825 rxn_smarts="[N:1]([C:2]([C@@:3]([N:4]([H:12])[H:13])([C:5]#[N:6])[H:11])([H:9])[H:10])([H:7])[H:8]>>[N:1]([C:2]([C@@:3]([N:4]([H:12])[H:13])([N+:6]#[C-:5])[H:11])([H:9])[H:10])([H:7])[H:8]"
N       -1.75036838       0.10010860       0.53604314
C       -0.65884065       0.55804680      -0.30522463
C        0.62060193      -0.01740059       0.27298199
N        0.81726119      -1.35526510       0.08933328
C        1.90915909       0.88119472      -1.03069781
N        2.34042027       1.12619609       0.02573868
H       -2.42294632       0.82916352       0.71908705
H       -2.23109057      -0.69658676       0.14606759
H       -0.58134613       1.64455420      -0.29625600
H       -0.75351844       0.25418729      -1.35238228
H        0.76143961       0.28673357       1.30631230
H        0.37692843      -1.81086653      -0.69118556
H        1.57229999      -1.80006581       0.58018224
13
Frame=5 idx=001983 GeodesicLength=0.3010341335779526 rxn_smarts="[N:1]([C:2]([C@@:3]([N:4]([H:12])[H:13])([C:5]#[N:6])[H:11])([H:9])[H:10])([H:7])[H:8]>>[N:1]([C:2]([C@@:3]([N:4]([H:12])[H:13])([N+:6]#[C-:5])[H:11])([H:9])[H:10])([H:7])[H:8]"
N       -1.74284953       0.07302265       0.51898692
C       -0.65356240       0.55737636      -0.30986609
C        0.63429022      -0.00660745       0.26458663
N        0.83267447      -1.34984237       0.08194406
C        1.92299741       0.87665853      -1.03354361
N        2.32538201       1.15036542       0.02500428
H       -2.38503417       0.80723329       0.77545791
H       -2.25985040      -0.67462456       0.08185562
H       -0.58918096       1.64509134      -0.29486160
H       -0.74277563       0.25945302      -1.35890653
H        0.75767710       0.28855661       1.30443062
H        0.31835180      -1.83054839      -0.63520999
H        1.58188008      -1.79613447       0.58012177
13
Frame=6 idx=001983 GeodesicLength=0.36043282536714233 rxn_smarts="[N:1]([C:2]([C@@:3]([N:4]([H:12])[H:13])([C:5]#[N:6])[H:11])([H:9])[H:10])([H:7])[H:8]>>[N:1]([C:2]([C@@:3]([N:4]([H:12])[H:13])([N+:6]#[C-:5])[H:11])([H:9])[H:10])([H:7])[H:8]"
N       -1.73582377       0.04662933       0.50067020
C       -0.64854168       0.55680883      -0.31509551
C        0.64770654       0.00369427       0.25526235
N        0.84779459      -1.34500936       0.07082146
C        1.93717399       0.87366760      -1.03567933
N        2.31054191       1.17370526       0.02420860
H       -2.34616184       0.77909685       0.82990721
H       -2.28866902      -0.64709000       0.02081785
H       -0.59732086       1.64567385      -0.29339932
H       -0.73237395       0.26486017      -1.36600688
H        0.75392636       0.28848568       1.30160243
H        0.26220021      -1.84812159      -0.57231931
H        1.58954751      -1.79240089       0.57921025
13
Frame=7 idx=001983 GeodesicLength=0.4192749808950758 rxn_smarts="[N:1]([C:2]([C@@:3]([N:4]([H:12])[H:13])([C:5]#[N:6])[H:11])([H:9])[H:10])([H:7])[H:8]>>[N:1]([C:2]([C@@:3]([N:4]([H:12])[H:13])([N+:6]#[C-:5])[H:11])([H:9])[H:10])([H:7])[H:8]"
N       -1.72943365       0.02154298       0.48147160
C       -0.64376732       0.55622182      -0.32085833
C        0.66049697       0.01333416       0.24529458
N        0.86145520      -1.34095728       0.05677835
C        1.95160415       0.87179717      -1.03689916
N        2.29571936       1.19554352       0.02365695
H       -2.30693113       0.74596143       0.88058554
H       -2.31684947      -0.61520414      -0.03468822
H       -0.60541694       1.64602897      -0.29230285
H       -0.72240476       0.27011041      -1.37344399
H        0.74964861       0.28628281       1.29799800
H        0.21051212      -1.86201984      -0.50400413
H        1.59536685      -1.78864202       0.57641167
13
Frame=8 idx=001983 GeodesicLength=0.477889757344841 rxn_smarts="[N:1]([C:2]([C@@:3]([N:4]([H:12])[H:13])([C:5]#[N:6])[H:11])([H:9])[H:10])([H:7])[H:8]>>[N:1]([C:2]([C@@:3]([N:4]([H:12])[H:13])([N+:6]#[C-:5])[H:11])([H:9])[H:10])([H:7])[H:8]"
N       -1.72371290      -0.00191727       0.46144233
C       -0.63929016       0.55550834      -0.32700763
C        0.67238145       0.02232391       0.23508264
N        0.87288092      -1.33771476       0.04081175
C        1.96580824       0.87001517      -1.03712725
N        2.28051728       1.21521863       0.02359583
H       -2.26743194       0.70884326       0.92714729
H       -2.34402986      -0.57941774      -0.08478072
H       -0.61348410       1.64590586      -0.29144421
H       -0.71285125       0.27484608      -1.38117987
H        0.74450242       0.28248831       1.29401530
H        0.16427361      -1.87169492      -0.43115611
H        1.60043630      -1.78440488       0.57060063
13
Frame=9 idx=001983 GeodesicLength=0.5367174395934566 rxn_smarts="[N:1]([C:2]([C@@:3]([N:4]([H:12])[H:13])([C:5]#[N:6])[H:11])([H:9])[H:10])([H:7])[H:8]>>[N:1]([C:2]([C@@:3]([N:4]([H:12])[H:13])([N+:6]#[C-:5])[H:11])([H:9])[H:10])([H:7])[H:8]"
N       -1.71930812      -0.02419806       0.44042588
C       -0.63539599       0.55496819      -0.33341418
C        0.68355485       0.03068351       0.22488575
N        0.88192734      -1.33569282       0.02399087
C        1.98003485       0.86819375      -1.03676173
N        2.26593528       1.23253016       0.02358232
H       -2.22863482       0.66748831       0.96975448
H       -2.37121057      -0.53936668      -0.13070156
H       -0.62178980       1.64588101      -0.29060112
H       -0.70400431       0.27971987      -1.38914827
H        0.73896000       0.27736084       1.28978434
H        0.12379131      -1.87775298      -0.35324747
H        1.60613999      -1.77981510       0.56145069
13
Frame=10 idx=001983 GeodesicLength=0.5959238469922221 rxn_smarts="[N:1]([C:2]([C@@:3]([N:4]([H:12])[H:13])([C:5]#[N:6])[H:11])([H:9])[H:10])([H:7])[H:8]>>[N:1]([C:2]([C@@:3]([N:4]([H:12])[H:13])([N+:6]#[C-:5])[H:11])([H:9])[H:10])([H:7])[H:8]"
N       -1.71569401      -0.04505041       0.41889313
C       -0.63180532       0.55448443      -0.33954756
C        0.69378884       0.03849206       0.21497161
N        0.88768780      -1.33476219       0.00689118
C        1.99374485       0.86556146      -1.03549386
N        2.25121307       1.24761456       0.02363320
H       -2.19109473       0.62357091       1.00639010
H       -2.39656709      -0.49707010      -0.17147708
H       -0.62977377       1.64572805      -0.28932907
H       -0.69571288       0.28450049      -1.39659026
H        0.73280018       0.27139677       1.28527670
H        0.08908001      -1.87942016      -0.27178179
H        1.61233306      -1.77504587       0.54816370
13
Frame=11 idx=001983 GeodesicLength=0.6552962093464509 rxn_smarts="[N:1]([C:2]([C@@:3]([N:4]([H:12])[H:13])([C:5]#[N:6])[H:11])([H:9])[H:10])([H:7])[H:8]>>[N:1]([C:2]([C@@:3]([N:4]([H:12])[H:13])([N+:6]#[C-:5])[H:11])([H:9])[H:10])([H:7])[H:8]"
N       -1.71323967      -0.06476740       0.39633541
C       -0.62871765       0.55434553      -0.34582213
C        0.70325142       0.04605613       0.20546381
N        0.89030705      -1.33481018      -0.00939559
C        2.00752247       0.86170906      -1.03392538
N        2.23735384       1.26035550       0.02324920
H       -2.15448334       0.57580710       1.03934929
H       -2.42118400      -0.45275084      -0.20764436
H       -0.63779985       1.64580942      -0.28790947
H       -0.68797189       0.28961103      -1.40417859
H        0.72618600       0.26547900       1.28073163
H        0.06081592      -1.87652613      -0.18924555
H        1.61795970      -1.77031822       0.53299174
13
Frame=12 idx=001983 GeodesicLength=0.7152415457578463 rxn_smarts="[N:1]([C:2]([C@@:3]([N:4]([H:12])[H:13])([C:5]#[N:6])[H:11])([H:9])[H:10])([H:7])[H:8]>>[N:1]([C:2]([C@@:3]([N:4]([H:12])[H:13])([N+:6]#[C-:5])[H:11])([H:9])[H:10])([H:7])[H:8]"
N       -1.71149255      -0.08369277       0.37292090
C       -0.62597427       0.55441769      -0.35189117
C        0.71192638       0.05342418       0.19644328
N        0.88978484      -1.33555216      -0.02468437
C        2.02097453       0.85615233      -1.03216270
N        2.22378328       1.27090053       0.02216213
H       -2.11877827       0.52439152       1.06800222
H       -2.44442031      -0.40634502      -0.23962108
H       -0.64583770       1.64582206      -0.28579459
H       -0.68051587       0.29514437      -1.41159372
H        0.71907210       0.25992841       1.27616661
H        0.03861135      -1.86905154      -0.10595451
H        1.62286650      -1.76553962       0.51600702
13
Frame=13 idx=001983 GeodesicLength=0.7758995847579919 rxn_smarts="[N:1]([C:2]([C@@:3]([N:4]([H:12])[H:13])([C:5]#[N:6])[H:11])([H:9])[H:10])([H:7])[H:8]>>[N:1]([C:2]([C@@:3]([N:4]([H:12])[H:13])([N+:6]#[C-:5])[H:11])([H:9])[H:10])([H:7])[H:8]"
N       -1.71031637      -0.10216699       0.34856925
C       -0.62353146       0.55479166      -0.35768396
C        0.71994304       0.06070884       0.18793484
N        0.88622303      -1.33687023      -0.03861906
C        2.03419456       0.84877089      -1.03045421
N        2.21064634       1.27954651       0.02000187
H       -2.08401600       0.46897537       1.09235517
H       -2.46617446      -0.35820277      -0.26750631
H       -0.65390632       1.64585234      -0.28275628
H       -0.67325596       0.30145652      -1.41881790
H        0.71164459       0.25509254       1.27160883
H        0.02202079      -1.85703389      -0.02271995
H        1.62652822      -1.76092079       0.49808772
13
Frame=14 idx=001983 GeodesicLength=0.8369874766413696 rxn_smarts="[N:1]([C:2]([C@@:3]([N:4]([H:12])[H:13])([C:5]#[N:6])[H:11])([H:9])[H:10])([H:7])[H:8]>>[N:1]([C:2]([C@@:3]([N:4]([H:12])[H:13])([N+:6]#[C-:5])[H:11])([H:9])[H:10])([H:7])[H:8]"
N       -1.70970101      -0.12024932       0.32343702
C       -0.62145721       0.55569329      -0.36313593
C        0.72756356       0.06808651       0.17996512
N        0.88006200      -1.33877373      -0.05066314
C        2.04755354       0.83946074      -1.02896204
N        2.19833402       1.28684758       0.01635794
H       -2.05028739       0.40977710       1.11241653
H       -2.48643620      -0.30969140      -0.29081544
H       -0.66212743       1.64628150      -0.27873478
H       -0.66635300       0.30882788      -1.42576067
H        0.70428514       0.25151548       1.26704701
H        0.01037505      -1.84074639       0.05769167
H        1.62818894      -1.75702925       0.48115671
13
Frame=15 idx=001983 GeodesicLength=0.8988873904927466 rxn_smarts="[N:1]([C:2]([C@@:3]([N:4]([H:12])[H:13])([C:5]#[N:6])[H:11])([H:9])[H:10])([H:7])[H:8]>>[N:1]([C:2]([C@@:3]([N:4]([H:12])[H:13])([N+:6]#[C-:5])[H:11])([H:9])[H:10])([H:7])[H:8]"
N       -1.70939712      -0.13832517       0.29730737
C       -0.61965627       0.55704007      -0.36823127
C        0.73481243       0.07560163       0.17250961
N        0.87150215      -1.34107760      -0.06075575
C        2.06094083       0.82822623      -1.02778583
N        2.18666450       1.29299327       0.01107106
H       -2.01727072       0.34620581       1.12811908
H       -2.50525012      -0.26009222      -0.30971986
H       -0.67054508       1.64693443      -0.27355663
H       -0.65955588       0.31733489      -1.43246115
H        0.69694124       0.24937716       1.26252344
H        0.00299634      -1.82056249       0.13556220
H        1.62781773      -1.75365601       0.46541773
13
Frame=16 idx=001983 GeodesicLength=0.9617796432927767 rxn_smarts="[N:1]([C:2]([C@@:3]([N:4]([H:12])[H:13])([C:5]#[N:6])[H:11])([H:9])[H:10])([H:7])[H:8]>>[N:1]([C:2]([C@@:3]([N:4]([H:12])[H:13])([N+:6]#[C-:5])[H:11])([H:9])[H:10])([H:7])[H:8]"
N       -1.70900831      -0.15617818       0.27024836
C       -0.61801186       0.55890242      -0.37290557
C        0.74170087       0.08337148       0.16553210
N        0.86075533      -1.34348896      -0.06878648
C        2.07415792       0.81487754      -1.02684830
N        2.17541077       1.29813690       0.00403981
H       -1.98438051       0.27850167       1.13938063
H       -2.52195618      -0.21074542      -0.32388339
H       -0.67903338       1.64776485      -0.26709160
H       -0.65280559       0.32699536      -1.43880468
H        0.68969577       0.24902767       1.25799297
H       -0.00120881      -1.79650105       0.20913911
H        1.62468396      -1.75066428       0.45198705
