12
Frame=0 idx=007454 GeodesicLength=0.0 rxn_smarts="[O:1]([C:2]([c:3]1[n:4][o:5][c:6]([H:11])[c:7]1[H:12])([H:9])[H:10])[H:8]>>[C:2]([H:9])[H:10].[O:1]([c:3]1[n:4][o:5][c:6]([H:11])[c:7]1[H:12])[H:8]"
O       -1.40334364       0.49807405       0.42873545
C       -1.59363282      -0.98306528      -0.15228744
C       -0.08655564       0.23222541      -0.03539062
N        0.26700167       0.90618430      -1.10230412
O        1.66094587       0.85227023      -1.11340877
C        2.06639140       0.25134365       0.00694496
C        1.03388264      -0.14538797       0.76909432
H       -1.77395068       1.20555829      -0.12676441
H       -2.22846882      -1.45723397       0.59708364
H       -2.11362858      -0.82790495      -1.09769750
H        3.13434667       0.16174303       0.13272641
H        1.03701197      -0.69380674       1.69326807
12
Frame=1 idx=007454 GeodesicLength=0.059058728401349646 rxn_smarts="[O:1]([C:2]([c:3]1[n:4][o:5][c:6]([H:11])[c:7]1[H:12])([H:9])[H:10])[H:8]>>[C:2]([H:9])[H:10].[O:1]([c:3]1[n:4][o:5][c:6]([H:11])[c:7]1[H:12])[H:8]"
O       -1.42060213       0.51228863       0.41771758
C       -1.59608657      -0.97711309      -0.13631937
C       -0.08493643       0.23122750      -0.03906425
N        0.27235987       0.90800787      -1.10208116
O        1.66532401       0.88366037      -1.09486734
C        2.06894953       0.25503734       0.01076827
C        1.03381674      -0.15793315       0.76119517
H       -1.77789621       1.20912666      -0.15848946
H       -2.22319572      -1.44323959       0.62471640
H       -2.11090421      -0.85086559      -1.08905734
H        3.13663928       0.16175755       0.13566576
H        1.03653184      -0.73195451       1.66981574
12
Frame=2 idx=007454 GeodesicLength=0.11807611163844348 rxn_smarts="[O:1]([C:2]([c:3]1[n:4][o:5][c:6]([H:11])[c:7]1[H:12])([H:9])[H:10])[H:8]>>[C:2]([H:9])[H:10].[O:1]([c:3]1[n:4][o:5][c:6]([H:11])[c:7]1[H:12])[H:8]"
O       -1.43820134       0.52640728       0.40604320
C       -1.59861083      -0.97086328      -0.12036445
C       -0.08326514       0.23000278      -0.04274196
N        0.27796856       0.90994290      -1.10158806
O        1.66914477       0.91543876      -1.07485228
C        2.07145555       0.25907877       0.01500934
C        1.03384808      -0.17081155       0.75301267
H       -1.78166379       1.21194260      -0.19072204
H       -2.21787926      -1.42845662       0.65238548
H       -2.10797809      -0.87411414      -1.07967872
H        3.13889999       0.16117282       0.13795805
H        1.03628151      -0.76974035       1.64553877
12
Frame=3 idx=007454 GeodesicLength=0.17699936071312072 rxn_smarts="[O:1]([C:2]([c:3]1[n:4][o:5][c:6]([H:11])[c:7]1[H:12])([H:9])[H:10])[H:8]>>[C:2]([H:9])[H:10].[O:1]([c:3]1[n:4][o:5][c:6]([H:11])[c:7]1[H:12])[H:8]"
O       -1.45623770       0.54031374       0.39392800
C       -1.60106082      -0.96425646      -0.10467488
C       -0.08157289       0.22877196      -0.04622166
N        0.28372936       0.91269261      -1.10033035
O        1.67235318       0.94568427      -1.05449082
C        2.07387684       0.26362057       0.01980658
C        1.03398442      -0.18390006       0.74463742
H       -1.78540674       1.21404297      -0.22298579
H       -2.21235141      -1.41313983       0.67965258
H       -2.10470752      -0.89732053      -1.06974260
H        3.14110465       0.16048894       0.13983722
H        1.03628863      -0.80699818       1.62058430
12
Frame=4 idx=007454 GeodesicLength=0.23578817311393874 rxn_smarts="[O:1]([C:2]([c:3]1[n:4][o:5][c:6]([H:11])[c:7]1[H:12])([H:9])[H:10])[H:8]>>[C:2]([H:9])[H:10].[O:1]([c:3]1[n:4][o:5][c:6]([H:11])[c:7]1[H:12])[H:8]"
O       -1.47478775       0.55389934       0.38153871
C       -1.60334095      -0.95728380      -0.08942701
C       -0.07988091       0.22770154      -0.04938094
N        0.28949523       0.91678337      -1.09797021
O        1.67505611       0.97327563      -1.03465996
C        2.07620413       0.26841301       0.02506237
C        1.03422998      -0.19704550       0.73615440
H       -1.78925245       1.21547105      -0.25489805
H       -2.20650740      -1.39751314       0.70621964
H       -2.10101130      -0.92026629      -1.05938570
H        3.14325011       0.16008352       0.14162414
H        1.03654522      -0.84351873       1.59512260
12
Frame=5 idx=007454 GeodesicLength=0.29452114401390944 rxn_smarts="[O:1]([C:2]([c:3]1[n:4][o:5][c:6]([H:11])[c:7]1[H:12])([H:9])[H:10])[H:8]>>[C:2]([H:9])[H:10].[O:1]([c:3]1[n:4][o:5][c:6]([H:11])[c:7]1[H:12])[H:8]"
O       -1.49400434       0.56708111       0.36907481
C       -1.60526935      -0.95002283      -0.07472432
C       -0.07822315       0.22703094      -0.05206735
N        0.29513747       0.92272361      -1.09402965
O        1.67743366       0.99800620      -1.01565198
C        2.07842441       0.27280991       0.03028447
C        1.03452420      -0.20998300       0.72759766
H       -1.79343784       1.21624128      -0.28620732
H       -2.20019670      -1.38193045       0.73182758
H       -2.09652612      -0.94295288      -1.04890873
H        3.14528455       0.15948377       0.14316444
H        1.03685320      -0.87848765       1.56964038
12
Frame=6 idx=007454 GeodesicLength=0.3530266072791356 rxn_smarts="[O:1]([C:2]([c:3]1[n:4][o:5][c:6]([H:11])[c:7]1[H:12])([H:9])[H:10])[H:8]>>[C:2]([H:9])[H:10].[O:1]([c:3]1[n:4][o:5][c:6]([H:11])[c:7]1[H:12])[H:8]"
O       -1.51358027       0.57997183       0.35621671
C       -1.60727045      -0.94238716      -0.06031360
C       -0.07652370       0.22626216      -0.05469951
N        0.30069044       0.92960546      -1.08937756
O        1.67963521       1.02065145      -0.99724423
C        2.08060937       0.27697462       0.03570581
C        1.03496879      -0.22339524       0.71855580
H       -1.79748344       1.21645637      -0.31720578
H       -2.19370767      -1.36579258       0.75711053
H       -2.09208636      -0.96533756      -1.03766062
H        3.14735648       0.16027664       0.14565311
H        1.03739161      -0.91328599       1.54325934
12
Frame=7 idx=007454 GeodesicLength=0.4114577735405513 rxn_smarts="[O:1]([C:2]([c:3]1[n:4][o:5][c:6]([H:11])[c:7]1[H:12])([H:9])[H:10])[H:8]>>[C:2]([H:9])[H:10].[O:1]([c:3]1[n:4][o:5][c:6]([H:11])[c:7]1[H:12])[H:8]"
O       -1.53393542       0.59238195       0.34307143
C       -1.60886529      -0.93458616      -0.04635338
C       -0.07486703       0.22591792      -0.05687977
N        0.30601808       0.93830673      -1.08324074
O        1.68166410       1.04176223      -0.97914393
C        2.08272765       0.28044709       0.04094147
C        1.03543867      -0.23643551       0.70956565
H       -1.80193133       1.21594463      -0.34789039
H       -2.18674791      -1.34966701       0.78156378
H       -2.08676133      -0.98766323      -1.02625849
H        3.14935172       0.15992452       0.14738794
H        1.03790809      -0.94633316       1.51723643
12
Frame=8 idx=007454 GeodesicLength=0.4698911083518792 rxn_smarts="[O:1]([C:2]([c:3]1[n:4][o:5][c:6]([H:11])[c:7]1[H:12])([H:9])[H:10])[H:8]>>[C:2]([H:9])[H:10].[O:1]([c:3]1[n:4][o:5][c:6]([H:11])[c:7]1[H:12])[H:8]"
O       -1.55486850       0.60451986       0.32935742
C       -1.61039536      -0.92650069      -0.03253756
C       -0.07317208       0.22562064      -0.05893360
N        0.31130678       0.94800365      -1.07613527
O        1.68360202       1.06199299      -0.96090186
C        2.08476220       0.28359485       0.04620748
C        1.03595119      -0.24955498       0.70025535
H       -1.80635650       1.21474009      -0.37864462
H       -2.17963564      -1.33293397       0.80580807
H       -2.08097315      -1.01012462      -1.01410233
H        3.15128038       0.15958722       0.14915060
H        1.03849865      -0.97894503       1.49047631
12
Frame=9 idx=007454 GeodesicLength=0.5283266733688604 rxn_smarts="[O:1]([C:2]([c:3]1[n:4][o:5][c:6]([H:11])[c:7]1[H:12])([H:9])[H:10])[H:8]>>[C:2]([H:9])[H:10].[O:1]([c:3]1[n:4][o:5][c:6]([H:11])[c:7]1[H:12])[H:8]"
O       -1.57648853       0.61629898       0.31505238
C       -1.61179243      -0.91819825      -0.01892430
C       -0.07146298       0.22543938      -0.06081019
N        0.31641724       0.95890545      -1.06795193
O        1.68548454       1.08151099      -0.94243149
C        2.08681306       0.28622558       0.05138902
C        1.03656314      -0.26273707       0.69064928
H       -1.81091275       1.21284251      -0.40946304
H       -2.17231313      -1.31570236       0.82975592
H       -2.07468480      -1.03270568      -1.00133643
H        3.15324345       0.15884478       0.15066897
H        1.03913319      -1.01072432       1.46340181
12
Frame=10 idx=007454 GeodesicLength=0.5864141968573022 rxn_smarts="[O:1]([C:2]([c:3]1[n:4][o:5][c:6]([H:11])[c:7]1[H:12])([H:9])[H:10])[H:8]>>[C:2]([H:9])[H:10].[O:1]([c:3]1[n:4][o:5][c:6]([H:11])[c:7]1[H:12])[H:8]"
O       -1.59869038       0.62753699       0.30007248
C       -1.61303987      -0.90969570      -0.00553898
C       -0.06972943       0.22537437      -0.06249513
N        0.32131811       0.97109211      -1.05856035
O        1.68728029       1.10042767      -0.92368647
C        2.08885438       0.28818794       0.05630660
C        1.03724816      -0.27603306       0.68065466
H       -1.81541812       1.21014349      -0.44029148
H       -2.16481614      -1.29797635       0.85327607
H       -2.06790126      -1.05529881      -0.98786614
H        3.15518963       0.15767761       0.15185957
H        1.03970464      -1.04143628       1.43626917
12
Frame=11 idx=007454 GeodesicLength=0.6445959941681703 rxn_smarts="[O:1]([C:2]([c:3]1[n:4][o:5][c:6]([H:11])[c:7]1[H:12])([H:9])[H:10])[H:8]>>[C:2]([H:9])[H:10].[O:1]([c:3]1[n:4][o:5][c:6]([H:11])[c:7]1[H:12])[H:8]"
O       -1.62149876       0.63853943       0.28421109
C       -1.61435348      -0.90088038       0.00796783
C       -0.06792725       0.22518539      -0.06421643
N        0.32614439       0.98400365      -1.04831697
O        1.68904118       1.11907130      -0.90436787
C        2.09091837       0.28993083       0.06132846
C        1.03804485      -0.28969652       0.67002891
H       -1.81977042       1.20672484      -0.47158052
H       -2.15736628      -1.27917508       0.87702598
H       -2.06083102      -1.07820426      -0.97328681
H        3.15719796       0.15688959       0.15340619
H        1.04040045      -1.07238879       1.40780014
12
Frame=12 idx=007454 GeodesicLength=0.7026826600432711 rxn_smarts="[O:1]([C:2]([c:3]1[n:4][o:5][c:6]([H:11])[c:7]1[H:12])([H:9])[H:10])[H:8]>>[C:2]([H:9])[H:10].[O:1]([c:3]1[n:4][o:5][c:6]([H:11])[c:7]1[H:12])[H:8]"
O       -1.64515702       0.64892630       0.26750880
C       -1.61541683      -0.89188228       0.02124548
C       -0.06611954       0.22525838      -0.06560936
N        0.33072882       0.99848736      -1.03647140
O        1.69075311       1.13746797      -0.88443468
C        2.09296892       0.29094857       0.06599854
C        1.03891052      -0.30331390       0.65910643
H       -1.82423788       1.20237633      -0.50307938
H       -2.14972991      -1.25980961       0.90027813
H       -2.05286108      -1.10131461      -0.95805344
H        3.15917215       0.15485917       0.15389326
H        1.04098873      -1.10200367       1.37961762
12
Frame=13 idx=007454 GeodesicLength=0.7606953188661157 rxn_smarts="[O:1]([C:2]([c:3]1[n:4][o:5][c:6]([H:11])[c:7]1[H:12])([H:9])[H:10])[H:8]>>[C:2]([H:9])[H:10].[O:1]([c:3]1[n:4][o:5][c:6]([H:11])[c:7]1[H:12])[H:8]"
O       -1.66948600       0.65888612       0.24972335
C       -1.61648240      -0.88259190       0.03462684
C       -0.06425045       0.22528716      -0.06694416
N        0.33514651       1.01397071      -1.02337108
O        1.69240300       1.15578830      -0.86368847
C        2.09506183       0.29159782       0.07057754
C        1.03990228      -0.31730376       0.64747583
H       -1.82849293       1.19716364      -0.53512864
H       -2.14222432      -1.23930916       0.92362215
H       -2.04441673      -1.12477052      -0.94163924
H        3.16121363       0.15281702       0.15427902
H        1.04162556      -1.13153543       1.35046686
12
Frame=14 idx=007454 GeodesicLength=0.8187503573426982 rxn_smarts="[O:1]([C:2]([c:3]1[n:4][o:5][c:6]([H:11])[c:7]1[H:12])([H:9])[H:10])[H:8]>>[C:2]([H:9])[H:10].[O:1]([c:3]1[n:4][o:5][c:6]([H:11])[c:7]1[H:12])[H:8]"
O       -1.69448582       0.66853343       0.23055280
C       -1.61766187      -0.87286819       0.04843270
C       -0.06230250       0.22517345      -0.06831566
N        0.33947552       1.03020789      -1.00913547
O        1.69398254       1.17427531      -0.84183198
C        2.09715631       0.29215240       0.07535529
C        1.04104656      -0.33189354       0.63488071
H       -1.83242917       1.19092022      -0.56816409
H       -2.13497490      -1.21705894       0.94750396
H       -2.03557852      -1.14877706      -0.92354782
H        3.16329350       0.15127403       0.15506669
H        1.04247836      -1.16193899       1.31920287
12
Frame=15 idx=007454 GeodesicLength=0.8766813865761356 rxn_smarts="[O:1]([C:2]([c:3]1[n:4][o:5][c:6]([H:11])[c:7]1[H:12])([H:9])[H:10])[H:8]>>[C:2]([H:9])[H:10].[O:1]([c:3]1[n:4][o:5][c:6]([H:11])[c:7]1[H:12])[H:8]"
O       -1.72026350       0.67754446       0.21006105
C       -1.61878895      -0.86281193       0.06236663
C       -0.06030104       0.22510774      -0.06951759
N        0.34353447       1.04778355      -0.99315162
O        1.69548082       1.19272339      -0.81901202
C        2.09929978       0.29208467       0.07978168
C        1.04234826      -0.34693553       0.62135209
H       -1.83610265       1.18359085      -0.60185327
H       -2.12792523      -1.19347889       0.97135388
H       -2.02607150      -1.17314463      -0.90407177
H        3.16545427       0.14956140       0.15561371
H        1.04333528      -1.19202507       1.28707723
12
Frame=16 idx=007454 GeodesicLength=0.9346353237076975 rxn_smarts="[O:1]([C:2]([c:3]1[n:4][o:5][c:6]([H:11])[c:7]1[H:12])([H:9])[H:10])[H:8]>>[C:2]([H:9])[H:10].[O:1]([c:3]1[n:4][o:5][c:6]([H:11])[c:7]1[H:12])[H:8]"
O       -1.74684333       0.68602981       0.18781091
C       -1.61998181      -0.85225604       0.07682857
C       -0.05823085       0.22499787      -0.07063790
N        0.34740096       1.06644301      -0.97547532
O        1.69686766       1.21147948      -0.79474055
C        2.10146320       0.29177926       0.08424977
C        1.04382957      -0.36264678       0.60659403
H       -1.83935939       1.17495167      -0.63678217
H       -2.12128355      -1.16780394       0.99573056
H       -2.01591268      -1.19818753      -0.88256798
H        3.16767990       0.14812503       0.15633729
H        1.04437031      -1.22291185       1.25265277
