17
Frame=0 idx=008426 GeodesicLength=0.0 rxn_smarts="[O:1]([C@@:2]1([H:9])[C:3]([H:10])([H:11])[C:4]([H:12])([H:13])[C:5]([H:14])([H:15])[C:6]([H:16])=[C:7]1[H:17])[H:8]>>[C:3](=[C:4]([H:12])[H:13])([H:10])[H:11].[O:1](/[C:2](=[C:7](/[C:6](=[C:5]([H:14])[H:15])[H:16])[H:17])[H:9])[H:8]"
O        2.50156980      -0.90271882      -0.28190473
C        1.36238457      -0.17976426      -0.44024198
C       -0.31428248      -1.48525718       0.31365058
C       -1.51475364      -0.81262768       0.22602913
C       -1.15779715       1.15223169      -0.61754729
C       -0.13646368       1.61909435       0.17953626
C        1.09602446       0.97384261       0.26512745
H        2.91966881      -0.66037777       0.54812606
H        0.92710592      -0.36121114      -1.41183156
H        0.18352423      -1.59006777       1.26825710
H       -0.05246552      -2.23053731      -0.42679812
H       -1.97357687      -0.41401479       1.12043519
H       -2.20954617      -1.06005880      -0.56734439
H       -0.93962614       0.66097714      -1.55672879
H       -2.12467207       1.64066781      -0.58459405
H       -0.35786686       2.38304490       0.91737076
H        1.79077275       1.26677704       1.04845840
17
Frame=1 idx=008426 GeodesicLength=0.07140193892522327 rxn_smarts="[O:1]([C@@:2]1([H:9])[C:3]([H:10])([H:11])[C:4]([H:12])([H:13])[C:5]([H:14])([H:15])[C:6]([H:16])=[C:7]1[H:17])[H:8]>>[C:3](=[C:4]([H:12])[H:13])([H:10])[H:11].[O:1](/[C:2](=[C:7](/[C:6](=[C:5]([H:14])[H:15])[H:16])[H:17])[H:9])[H:8]"
O        2.50748958      -0.89768431      -0.24671157
C        1.36333935      -0.18369055      -0.42544403
C       -0.31391301      -1.50639619       0.28394855
C       -1.50987004      -0.81762818       0.23566276
C       -1.16844302       1.15218938      -0.61390374
C       -0.13528772       1.63333860       0.16280584
C        1.08859665       0.97565851       0.27077727
H        2.90026693      -0.66424507       0.59813129
H        0.96535593      -0.34917403      -1.41627652
H        0.19827944      -1.65334789       1.22531983
H       -0.08158885      -2.24205867      -0.47636574
H       -1.92697832      -0.41182767       1.14766010
H       -2.24174060      -1.07456843      -0.52082517
H       -0.95791284       0.67046516      -1.56033220
H       -2.13142425       1.64873313      -0.57692846
H       -0.34232815       2.43074234       0.86900744
H        1.78615892       1.28949386       1.04347436
17
Frame=2 idx=008426 GeodesicLength=0.14141348238772478 rxn_smarts="[O:1]([C@@:2]1([H:9])[C:3]([H:10])([H:11])[C:4]([H:12])([H:13])[C:5]([H:14])([H:15])[C:6]([H:16])=[C:7]1[H:17])[H:8]>>[C:3](=[C:4]([H:12])[H:13])([H:10])[H:11].[O:1](/[C:2](=[C:7](/[C:6](=[C:5]([H:14])[H:15])[H:16])[H:17])[H:9])[H:8]"
O        2.51232933      -0.89319071      -0.20968032
C        1.36420408      -0.18765827      -0.41068827
C       -0.31377835      -1.52640834       0.25359741
C       -1.50469394      -0.82306545       0.24504949
C       -1.17924879       1.15223929      -0.60968289
C       -0.13406401       1.64682321       0.14602440
C        1.08149310       0.97797787       0.27559200
H        2.87868245      -0.66861557       0.64939186
H        1.00512689      -0.33720697      -1.41938482
H        0.21207660      -1.71467164       1.18000022
H       -0.11141794      -2.25170706      -0.52570357
H       -1.87930839      -0.41080690       1.17303702
H       -2.27210790      -1.08981599      -0.47216716
H       -0.97716653       0.68066851      -1.56367072
H       -2.13825088       1.65684012      -0.56790440
H       -0.32658229       2.47533157       0.82013841
H        1.78270659       1.31326632       1.03605133
17
Frame=3 idx=008426 GeodesicLength=0.21019077671770953 rxn_smarts="[O:1]([C@@:2]1([H:9])[C:3]([H:10])([H:11])[C:4]([H:12])([H:13])[C:5]([H:14])([H:15])[C:6]([H:16])=[C:7]1[H:17])[H:8]>>[C:3](=[C:4]([H:12])[H:13])([H:10])[H:11].[O:1](/[C:2](=[C:7](/[C:6](=[C:5]([H:14])[H:15])[H:16])[H:17])[H:9])[H:8]"
O        2.51599318      -0.88924984      -0.17087923
C        1.36499932      -0.19162103      -0.39610556
C       -0.31381035      -1.54521667       0.22262945
C       -1.49920367      -0.82891790       0.25419662
C       -1.19022021       1.15240270      -0.60488899
C       -0.13278183       1.65958442       0.12911966
C        1.07483434       0.98088517       0.27938107
H        2.85480252      -0.67339412       0.70175595
H        1.04642229      -0.32542281      -1.42114749
H        0.22505053      -1.77380878       1.13237479
H       -0.14192140      -2.25954130      -0.57463061
H       -1.83062811      -0.41088875       1.19650869
H       -2.30034041      -1.10594253      -0.42145532
H       -0.99750029       0.69161408      -1.56672209
H       -2.14513994       1.66502040      -0.55745543
H       -0.31064310       2.51699180       0.77069359
H        1.78008711       1.33750516       1.02662492
17
Frame=4 idx=008426 GeodesicLength=0.2778785057894887 rxn_smarts="[O:1]([C@@:2]1([H:9])[C:3]([H:10])([H:11])[C:4]([H:12])([H:13])[C:5]([H:14])([H:15])[C:6]([H:16])=[C:7]1[H:17])[H:8]>>[C:3](=[C:4]([H:12])[H:13])([H:10])[H:11].[O:1](/[C:2](=[C:7](/[C:6](=[C:5]([H:14])[H:15])[H:16])[H:17])[H:9])[H:8]"
O        2.51839470      -0.88584115      -0.13043184
C        1.36575957      -0.19552565      -0.38185112
C       -0.31392435      -1.56274626       0.19108804
C       -1.49334856      -0.83515959       0.26311486
C       -1.20135328       1.15270673      -0.59952475
C       -0.13142341       1.67167141       0.11200423
C        1.06875696       0.98445866       0.28194484
H        2.82842580      -0.67850832       0.75503985
H        1.08925064      -0.31394834      -1.42156964
H        0.23738113      -1.83054673       1.08250712
H       -0.17306904      -2.26563682      -0.62296001
H       -1.78099959      -0.41200388       1.21801428
H       -2.32613841      -1.12309526      -0.36871191
H       -1.01902546       0.70332959      -1.56945610
H       -2.15206414       1.67331031      -0.54551534
H       -0.29450536       2.55597105       0.72049831
H        1.77788282       1.36156426       1.01580915
17
Frame=5 idx=008426 GeodesicLength=0.3446037567274538 rxn_smarts="[O:1]([C@@:2]1([H:9])[C:3]([H:10])([H:11])[C:4]([H:12])([H:13])[C:5]([H:14])([H:15])[C:6]([H:16])=[C:7]1[H:17])[H:8]>>[C:3](=[C:4]([H:12])[H:13])([H:10])[H:11].[O:1](/[C:2](=[C:7](/[C:6](=[C:5]([H:14])[H:15])[H:16])[H:17])[H:9])[H:8]"
O        2.51945523      -0.88283475      -0.08830936
C        1.36652907      -0.19942551      -0.36788848
C       -0.31411877      -1.57907318       0.15895253
C       -1.48717241      -0.84179172       0.27175097
C       -1.21261751       1.15312139      -0.59357740
C       -0.12996539       1.68305172       0.09468452
C        1.06322369       0.98861663       0.28321762
H        2.79954577      -0.68365507       0.80913972
H        1.13368867      -0.30293123      -1.42054634
H        0.24923403      -1.88502873       1.03042316
H       -0.20485384      -2.27007374      -0.67066780
H       -1.73076752      -0.41407230       1.23747766
H       -2.34943483      -1.14115125      -0.31400833
H       -1.04185196       0.71573290      -1.57176646
H       -2.15890937       1.68174871      -0.53202072
H       -0.27807052       2.59236896       0.66956112
H        1.77608563       1.38539715       1.00357759
17
Frame=6 idx=008426 GeodesicLength=0.4105084596436641 rxn_smarts="[O:1]([C@@:2]1([H:9])[C:3]([H:10])([H:11])[C:4]([H:12])([H:13])[C:5]([H:14])([H:15])[C:6]([H:16])=[C:7]1[H:17])[H:8]>>[C:3](=[C:4]([H:12])[H:13])([H:10])[H:11].[O:1](/[C:2](=[C:7](/[C:6](=[C:5]([H:14])[H:15])[H:16])[H:17])[H:9])[H:8]"
O        2.51904540      -0.88027468      -0.04467702
C        1.36733891      -0.20320454      -0.35447816
C       -0.31428566      -1.59406446       0.12625824
C       -1.48053670      -0.84876922       0.28018756
C       -1.22402349       1.15370387      -0.58703560
C       -0.12840386       1.69384478       0.07698533
C        1.05844203       0.99349863       0.28294055
H        2.76773708      -0.68901905       0.86389294
H        1.17971997      -0.29245538      -1.41815844
H        0.26076165      -1.93690470       0.97617131
H       -0.23726258      -2.27293979      -0.71755698
H       -1.67966250      -0.41700713       1.25490573
H       -2.36976967      -1.16041500      -0.25735615
H       -1.06610996       0.72890535      -1.57361667
H       -2.16568282       1.69035515      -0.51685704
H       -0.26137942       2.62652805       0.61746352
H        1.77407161       1.40821813       0.99093091
17
Frame=7 idx=008426 GeodesicLength=0.47570387790358754 rxn_smarts="[O:1]([C@@:2]1([H:9])[C:3]([H:10])([H:11])[C:4]([H:12])([H:13])[C:5]([H:14])([H:15])[C:6]([H:16])=[C:7]1[H:17])[H:8]>>[C:3](=[C:4]([H:12])[H:13])([H:10])[H:11].[O:1](/[C:2](=[C:7](/[C:6](=[C:5]([H:14])[H:15])[H:16])[H:17])[H:9])[H:8]"
O        2.51702819      -0.87814649       0.00041441
C        1.36823736      -0.20684495      -0.34175265
C       -0.31439240      -1.60767218       0.09304439
C       -1.47337485      -0.85604344       0.28843514
C       -1.23554255       1.15448032      -0.57990701
C       -0.12669634       1.70410992       0.05876906
C        1.05451149       0.99913995       0.28088710
H        2.73272283      -0.69454730       0.91917891
H        1.22736126      -0.28267931      -1.41441931
H        0.27206851      -1.98601546       0.91983057
H       -0.27030148      -2.27435402      -0.76347126
H       -1.62771614      -0.42066177       1.27024156
H       -2.38683543      -1.18095992      -0.19885755
H       -1.09190392       0.74284170      -1.57494986
H       -2.17230516       1.69917227      -0.49997560
H       -0.24453179       2.65835288       0.56431564
H        1.77167042       1.42982780       0.97821646
17
Frame=8 idx=008426 GeodesicLength=0.5403089077400591 rxn_smarts="[O:1]([C@@:2]1([H:9])[C:3]([H:10])([H:11])[C:4]([H:12])([H:13])[C:5]([H:14])([H:15])[C:6]([H:16])=[C:7]1[H:17])[H:8]>>[C:3](=[C:4]([H:12])[H:13])([H:10])[H:11].[O:1](/[C:2](=[C:7](/[C:6](=[C:5]([H:14])[H:15])[H:16])[H:17])[H:9])[H:8]"
O        2.51321349      -0.87643411       0.04696061
C        1.36927274      -0.21035005      -0.32980923
C       -0.31442204      -1.61989056       0.05930292
C       -1.46561862      -0.86360527       0.29647199
C       -1.24712365       1.15548487      -0.57217058
C       -0.12480914       1.71387581       0.03995159
C        1.05152459       1.00548805       0.27692602
H        2.69413040      -0.70013026       0.97485340
H        1.27667195      -0.27378437      -1.40928912
H        0.28322971      -2.03225248       0.86143218
H       -0.30398984      -2.27446290      -0.80825532
H       -1.57497271      -0.42498665       1.28340915
H       -2.40032732      -1.20288771      -0.13861018
H       -1.11930910       0.75759022      -1.57566245
H       -2.17865834       1.70825691      -0.48126469
H       -0.22761466       2.68791077       0.51013808
H        1.76880255       1.45017772       0.96561562
17
Frame=9 idx=008426 GeodesicLength=0.6043825466573158 rxn_smarts="[O:1]([C@@:2]1([H:9])[C:3]([H:10])([H:11])[C:4]([H:12])([H:13])[C:5]([H:14])([H:15])[C:6]([H:16])=[C:7]1[H:17])[H:8]>>[C:3](=[C:4]([H:12])[H:13])([H:10])[H:11].[O:1](/[C:2](=[C:7](/[C:6](=[C:5]([H:14])[H:15])[H:16])[H:17])[H:9])[H:8]"
O        2.50747011      -0.87498088       0.09504768
C        1.37047434      -0.21379017      -0.31848737
C       -0.31443018      -1.63087104       0.02496816
C       -1.45736464      -0.87149246       0.30419734
C       -1.25873527       1.15664299      -0.56374039
C       -0.12275747       1.72306131       0.02062018
C        1.04930775       1.01238531       0.27120059
H        2.65204828      -0.70552404       1.03067017
H        1.32776886      -0.26579832      -1.40249399
H        0.29438410      -2.07588091       0.80099625
H       -0.33831463      -2.27339406      -0.85195678
H       -1.52187154      -0.42987011       1.29440005
H       -2.41018161      -1.22591916      -0.07687511
H       -1.14840527       0.77298798      -1.57553369
H       -2.18460092       1.71761396      -0.46061557
H       -0.21046722       2.71524391       0.45483689
H        1.76567530       1.46958568       0.95276560
17
Frame=10 idx=008426 GeodesicLength=0.6681210985185101 rxn_smarts="[O:1]([C@@:2]1([H:9])[C:3]([H:10])([H:11])[C:4]([H:12])([H:13])[C:5]([H:14])([H:15])[C:6]([H:16])=[C:7]1[H:17])[H:8]>>[C:3](=[C:4]([H:12])[H:13])([H:10])[H:11].[O:1](/[C:2](=[C:7](/[C:6](=[C:5]([H:14])[H:15])[H:16])[H:17])[H:9])[H:8]"
O        2.49946119      -0.87386104       0.14464141
C        1.37191400      -0.21710898      -0.30808782
C       -0.31434968      -1.64046750      -0.00991610
C       -1.44838220      -0.87964830       0.31169268
C       -1.27030814       1.15805716      -0.55460895
C       -0.12046675       1.73177849       0.00049352
C        1.04812906       1.01987479       0.26334668
H        2.60552075      -0.71081060       1.08658220
H        1.38069712      -0.25897879      -1.39412298
H        0.30556395      -2.11648505       0.73854590
H       -0.37331945      -2.27127589      -0.89435186
H       -1.46802541      -0.43525893       1.30314996
H       -2.41583614      -1.25046649      -0.01367828
H       -1.17927304       0.78919868      -1.57449142
H       -2.19000235       1.72730853      -0.43789347
H       -0.19337150       2.74034845       0.39850494
H        1.76204859       1.48779548       0.94019357
17
Frame=11 idx=008426 GeodesicLength=0.7317119360839215 rxn_smarts="[O:1]([C@@:2]1([H:9])[C:3]([H:10])([H:11])[C:4]([H:12])([H:13])[C:5]([H:14])([H:15])[C:6]([H:16])=[C:7]1[H:17])[H:8]>>[C:3](=[C:4]([H:12])[H:13])([H:10])[H:11].[O:1](/[C:2](=[C:7](/[C:6](=[C:5]([H:14])[H:15])[H:16])[H:17])[H:9])[H:8]"
O        2.48889631      -0.87302568       0.19580628
C        1.37365493      -0.22031275      -0.29866349
C       -0.31418097      -1.64868260      -0.04537086
C       -1.43858903      -0.88806657       0.31895587
C       -1.28177165       1.15972467      -0.54474278
C       -0.11788179       1.74002568      -0.02055374
C        1.04800252       1.02790053       0.25328091
H        2.55408651      -0.71589845       1.14236980
H        1.43555226      -0.25344168      -1.38405902
H        0.31681935      -2.15398814       0.67410568
H       -0.40901303      -2.26825780      -0.93533890
H       -1.41349037      -0.44106216       1.30962071
H       -2.41695391      -1.27654985       0.05083270
H       -1.21198729       0.80618747      -1.57238529
H       -2.19470279       1.73735955      -0.41299566
H       -0.17640318       2.76318741       0.34126542
H        1.75796213       1.50490037       0.92787239
17
Frame=12 idx=008426 GeodesicLength=0.795387772371255 rxn_smarts="[O:1]([C@@:2]1([H:9])[C:3]([H:10])([H:11])[C:4]([H:12])([H:13])[C:5]([H:14])([H:15])[C:6]([H:16])=[C:7]1[H:17])[H:8]>>[C:3](=[C:4]([H:12])[H:13])([H:10])[H:11].[O:1](/[C:2](=[C:7](/[C:6](=[C:5]([H:14])[H:15])[H:16])[H:17])[H:9])[H:8]"
O        2.47544274      -0.87240023       0.24855877
C        1.37575601      -0.22342551      -0.29024612
C       -0.31392453      -1.65553596      -0.08142385
C       -1.42794279      -0.89677307       0.32594624
C       -1.29303501       1.16166216      -0.53406010
C       -0.11496943       1.74777520      -0.04260405
C        1.04896181       1.03634390       0.24098304
H        2.49720837      -0.72062956       1.19777994
H        1.49242905      -0.24932551      -1.37211096
H        0.32823119      -2.18831472       0.60771584
H       -0.44539053      -2.26451390      -0.97480338
H       -1.35834255      -0.44725991       1.31379700
H       -2.41322053      -1.30423613       0.11644451
H       -1.24658025       0.82398588      -1.56899378
H       -2.19846683       1.74781027      -0.38577554
H       -0.15963050       2.78381204       0.28313186
H        1.75347377       1.52102504       0.91566058
17
Frame=13 idx=008426 GeodesicLength=0.8593409304844349 rxn_smarts="[O:1]([C@@:2]1([H:9])[C:3]([H:10])([H:11])[C:4]([H:12])([H:13])[C:5]([H:14])([H:15])[C:6]([H:16])=[C:7]1[H:17])[H:8]>>[C:3](=[C:4]([H:12])[H:13])([H:10])[H:11].[O:1](/[C:2](=[C:7](/[C:6](=[C:5]([H:14])[H:15])[H:16])[H:17])[H:9])[H:8]"
O        2.45891803      -0.87187682       0.30276234
C        1.37823026      -0.22651031      -0.28271543
C       -0.31362175      -1.66118046      -0.11815262
C       -1.41657739      -0.90573660       0.33260025
C       -1.30406238       1.16384352      -0.52250332
C       -0.11175968       1.75495541      -0.06565665
C        1.05084772       1.04506455       0.22660870
H        2.43518852      -0.72492655       1.25246081
H        1.55140181      -0.24655350      -1.35788123
H        0.33993215      -2.21958360       0.53950435
H       -0.48233939      -2.26039704      -1.01255935
H       -1.30302809      -0.45365193       1.31577850
H       -2.40455806      -1.33323632       0.18260851
H       -1.28309720       0.84245824      -1.56407172
H       -2.20110342       1.75873197      -0.35616273
H       -0.14308917       2.80221411       0.22421295
H        1.74871801       1.53638533       0.90316666
17
Frame=14 idx=008426 GeodesicLength=0.9240303490414843 rxn_smarts="[O:1]([C@@:2]1([H:9])[C:3]([H:10])([H:11])[C:4]([H:12])([H:13])[C:5]([H:14])([H:15])[C:6]([H:16])=[C:7]1[H:17])[H:8]>>[C:3](=[C:4]([H:12])[H:13])([H:10])[H:11].[O:1](/[C:2](=[C:7](/[C:6](=[C:5]([H:14])[H:15])[H:16])[H:17])[H:9])[H:8]"
O        2.43887818      -0.87146856       0.35837702
C        1.38117095      -0.22952572      -0.27632612
C       -0.31321237      -1.66548820      -0.15545072
C       -1.40429308      -0.91494540       0.33894679
C       -1.31471794       1.16634968      -0.51008810
C       -0.10815143       1.76160516      -0.08997690
C        1.05387518       1.05406068       0.20988950
H        2.36702837      -0.72871222       1.30603182
H        1.61248914      -0.24535274      -1.34134451
H        0.35191502      -2.24738426       0.46964701
H       -0.51984174      -2.25618387      -1.04831119
H       -1.24731052      -0.46022400       1.31546812
H       -2.39047754      -1.36383722       0.24923178
H       -1.32151800       0.86174959      -1.55752168
H       -2.20240010       1.77018003      -0.32411970
H       -0.12702470       2.81831240       0.16490563
H        1.74359058       1.55086464       0.89064124
17
Frame=15 idx=008426 GeodesicLength=0.9900185010019796 rxn_smarts="[O:1]([C@@:2]1([H:9])[C:3]([H:10])([H:11])[C:4]([H:12])([H:13])[C:5]([H:14])([H:15])[C:6]([H:16])=[C:7]1[H:17])[H:8]>>[C:3](=[C:4]([H:12])[H:13])([H:10])[H:11].[O:1](/[C:2](=[C:7](/[C:6](=[C:5]([H:14])[H:15])[H:16])[H:17])[H:9])[H:8]"
O        2.41476558      -0.87103820       0.41554429
C        1.38468775      -0.23249072      -0.27108536
C       -0.31269434      -1.66844912      -0.19344459
C       -1.39093270      -0.92444909       0.34501509
C       -1.32489771       1.16914449      -0.49665602
C       -0.10411016       1.76763418      -0.11574065
C        1.05808065       1.06324813       0.19073735
H        2.29175134      -0.73193209       1.35818711
H        1.67593585      -0.24580230      -1.32212436
H        0.36426519      -2.27173142       0.39796429
H       -0.55787593      -2.25193670      -1.08208672
H       -1.19106164      -0.46697946       1.31293026
H       -2.37053587      -1.39606104       0.31627166
H       -1.36196111       0.88181027      -1.54898415
H       -2.20202724       1.78214031      -0.28934914
H       -0.11145697       2.83232645       0.10488351
H        1.73806732       1.56456632       0.87793744
17
Frame=16 idx=008426 GeodesicLength=1.0579500662339523 rxn_smarts="[O:1]([C@@:2]1([H:9])[C:3]([H:10])([H:11])[C:4]([H:12])([H:13])[C:5]([H:14])([H:15])[C:6]([H:16])=[C:7]1[H:17])[H:8]>>[C:3](=[C:4]([H:12])[H:13])([H:10])[H:11].[O:1](/[C:2](=[C:7](/[C:6](=[C:5]([H:14])[H:15])[H:16])[H:17])[H:9])[H:8]"
O        2.38624805      -0.87050944       0.47403981
C        1.38883087      -0.23542597      -0.26697160
C       -0.31206791      -1.67010272      -0.23215772
C       -1.37652162      -0.93424189       0.35080883
C       -1.33452193       1.17224429      -0.48214119
C       -0.09965113       1.77297625      -0.14302186
C        1.06346150       1.07255705       0.16921715
H        2.20917351      -0.73458308       1.40839654
H        1.74175593      -0.24786330      -1.29977445
H        0.37706268      -2.29256025       0.32458281
H       -0.59629609      -2.24801863      -1.11365225
H       -1.13444630      -0.47383861       1.30826352
H       -2.34454371      -1.42979007       0.38333981
H       -1.40439106       0.90262637      -1.53820029
H       -2.19975200       1.79468093      -0.25179612
H       -0.09647344       2.84429298       0.04411441
H        1.73213265       1.57755608       0.86495261
