16
Frame=0 idx=004286 GeodesicLength=0.0 rxn_smarts="[C:1]([C@@:2]1([H:10])[C:3]([H:11])([H:12])[O:4][C@:5]1([C:6]([H:14])([H:15])[H:16])[H:13])([H:7])([H:8])[H:9]>>[C:1](/[C:2]([C:3]([O:4][H:10])([H:11])[H:12])=[C:5](/[C:6]([H:14])([H:15])[H:16])[H:13])([H:7])([H:8])[H:9]"
C       -1.74263023       0.80427117      -0.17230281
C       -0.75895212      -0.08837632       0.52557025
C       -0.33730042      -1.43717677      -0.00408180
O        0.85667293      -1.28235226       0.94532772
C        0.72645720       0.23644387       0.61216185
C        1.57515106       0.59125182      -0.58905734
H       -1.85318020       1.74982732       0.36447579
H       -2.73189870       0.34091431      -0.19516244
H       -1.47801737       1.05099933      -1.21366356
H        0.09190577      -1.04943623       1.67126518
H        0.12350792      -1.53708560      -0.99544331
H       -0.91070402      -2.33386079       0.23237078
H        1.07743184       0.79779908       1.48142968
H        2.63559678       0.41100038      -0.40504322
H        1.44449841       1.66387372      -0.75282532
H        1.28146114       0.08190698      -1.50502152
16
Frame=1 idx=004286 GeodesicLength=0.10412707618403456 rxn_smarts="[C:1]([C@@:2]1([H:10])[C:3]([H:11])([H:12])[O:4][C@:5]1([C:6]([H:14])([H:15])[H:16])[H:13])([H:7])([H:8])[H:9]>>[C:1](/[C:2]([C:3]([O:4][H:10])([H:11])[H:12])=[C:5](/[C:6]([H:14])([H:15])[H:16])[H:13])([H:7])([H:8])[H:9]"
C       -1.74193706       0.79764805      -0.16774855
C       -0.74894294      -0.08784338       0.52410937
C       -0.33645122      -1.43932636      -0.01040028
O        0.85198317      -1.29829918       0.93808262
C        0.72878921       0.24511035       0.60718036
C        1.58516225       0.60034032      -0.58686279
H       -1.83633238       1.75318135       0.35403758
H       -2.73268353       0.33675134      -0.16213276
H       -1.49659136       1.02270755      -1.21803284
H        0.07278977      -1.04934374       1.67527589
H        0.11003087      -1.54307559      -1.00702950
H       -0.92381801      -2.32692197       0.22704593
H        1.06908838       0.81126351       1.47782473
H        2.64384878       0.41894121      -0.39370640
H        1.45791666       1.67257113      -0.75568762
H        1.29714739       0.08629542      -1.50195576
16
Frame=2 idx=004286 GeodesicLength=0.20815827831760308 rxn_smarts="[C:1]([C@@:2]1([H:10])[C:3]([H:11])([H:12])[O:4][C@:5]1([C:6]([H:14])([H:15])[H:16])[H:13])([H:7])([H:8])[H:9]>>[C:1](/[C:2]([C:3]([O:4][H:10])([H:11])[H:12])=[C:5](/[C:6]([H:14])([H:15])[H:16])[H:13])([H:7])([H:8])[H:9]"
C       -1.74116220       0.79095339      -0.16303989
C       -0.73878613      -0.08739167       0.52251087
C       -0.33558261      -1.44154312      -0.01673944
O        0.84736356      -1.31452453       0.93058818
C        0.73114416       0.25404590       0.60210552
C        1.59530303       0.60941293      -0.58468257
H       -1.82014866       1.75593669       0.34349523
H       -2.73265809       0.33269031      -0.12936307
H       -1.51516547       0.99470810      -1.22132663
H        0.05315190      -1.04916948       1.67925832
H        0.09606616      -1.54915806      -1.01861924
H       -0.93683614      -2.31979928       0.22172508
H        1.06059193       0.82527820       1.47386263
H        2.65211489       0.42685220      -0.38222253
H        1.47159432       1.68120022      -0.75878040
H        1.31300934       0.09050822      -1.49877207
16
Frame=3 idx=004286 GeodesicLength=0.3121260672572357 rxn_smarts="[C:1]([C@@:2]1([H:10])[C:3]([H:11])([H:12])[O:4][C@:5]1([C:6]([H:14])([H:15])[H:16])[H:13])([H:7])([H:8])[H:9]>>[C:1](/[C:2]([C:3]([O:4][H:10])([H:11])[H:12])=[C:5](/[C:6]([H:14])([H:15])[H:16])[H:13])([H:7])([H:8])[H:9]"
C       -1.74030329       0.78418163      -0.15816813
C       -0.72847250      -0.08702508       0.52076816
C       -0.33469243      -1.44382867      -0.02310916
O        0.84281801      -1.33104337       0.92282539
C        0.73351891       0.26326451       0.59692873
C        1.60558260       0.61847298      -0.58251454
H       -1.80461637       1.75811029       0.33289218
H       -2.73184547       0.32870252      -0.09682369
H       -1.53372615       0.96699207      -1.22357827
H        0.03292977      -1.04890101       1.68320348
H        0.08159902      -1.55532695      -1.03020880
H       -0.94974164      -2.31249834       0.21640509
H        1.05193376       0.83985656       1.46952630
H        2.66039783       0.43474672      -0.37057287
H        1.48554503       1.68975738      -0.76211092
H        1.32907290       0.09453874      -1.49546296
16
Frame=4 idx=004286 GeodesicLength=0.41604955713319974 rxn_smarts="[C:1]([C@@:2]1([H:10])[C:3]([H:11])([H:12])[O:4][C@:5]1([C:6]([H:14])([H:15])[H:16])[H:13])([H:7])([H:8])[H:9]>>[C:1](/[C:2]([C:3]([O:4][H:10])([H:11])[H:12])=[C:5](/[C:6]([H:14])([H:15])[H:16])[H:13])([H:7])([H:8])[H:9]"
C       -1.73935609       0.77732755      -0.15312529
C       -0.71799185      -0.08674611       0.51887662
C       -0.33377962      -1.44618465      -0.02951721
O        0.83835077      -1.34787026       0.91477338
C        0.73591080       0.27278039       0.59164215
C        1.61601017       0.62752228      -0.58035773
H       -1.78973116       1.75970628       0.32228524
H       -2.73026209       0.32475807      -0.06450630
H       -1.55225549       0.93956340      -1.22480990
H        0.01206089      -1.04852249       1.68709971
H        0.06661255      -1.56157755      -1.04179253
H       -0.96251869      -2.30502543       0.21109014
H        1.04310502       0.85501611       1.46479434
H        2.66869988       0.44263605      -0.35874051
H        1.49978191       1.69823868      -0.76569061
H        1.34536299       0.09837769      -1.49202149
16
Frame=5 idx=004286 GeodesicLength=0.5199649354079312 rxn_smarts="[C:1]([C@@:2]1([H:10])[C:3]([H:11])([H:12])[O:4][C@:5]1([C:6]([H:14])([H:15])[H:16])[H:13])([H:7])([H:8])[H:9]>>[C:1](/[C:2]([C:3]([O:4][H:10])([H:11])[H:12])=[C:5](/[C:6]([H:14])([H:15])[H:16])[H:13])([H:7])([H:8])[H:9]"
C       -1.73831366       0.77037917      -0.14790011
C       -0.70733243      -0.08656448       0.51683064
C       -0.33284046      -1.44861564      -0.03597327
O        0.83396862      -1.36502336       0.90641030
C        0.73831649       0.28260867       0.58623537
C        1.62659541       0.63656446      -0.57820905
H       -1.77548423       1.76074668       0.31170733
H       -2.72791072       0.32083084      -0.03236800
H       -1.57074312       0.91241490      -1.22504069
H       -0.00953867      -1.04801647       1.69092261
H        0.05108853      -1.56790256      -1.05336009
H       -0.97514544      -2.29738912       0.20577523
H        1.03409183       0.87077552       1.45963717
H        2.67702221       0.45053755      -0.34670468
H        1.51431989       1.70663639      -0.76952669
H        1.36190576       0.10201744      -1.48843606
16
Frame=6 idx=004286 GeodesicLength=0.6238676557945381 rxn_smarts="[C:1]([C@@:2]1([H:10])[C:3]([H:11])([H:12])[O:4][C@:5]1([C:6]([H:14])([H:15])[H:16])[H:13])([H:7])([H:8])[H:9]>>[C:1](/[C:2]([C:3]([O:4][H:10])([H:11])[H:12])=[C:5](/[C:6]([H:14])([H:15])[H:16])[H:13])([H:7])([H:8])[H:9]"
C       -1.73717062       0.76333128      -0.14248061
C       -0.69648218      -0.08648045       0.51463319
C       -0.33187544      -1.45112190      -0.04248203
O        0.82967910      -1.38251599       0.89771130
C        0.74073328       0.29276465       0.58069845
C        1.63734603       0.64560089      -0.57607018
H       -1.76187606       1.76122641       0.30121982
H       -2.72481129       0.31688893      -0.00042713
H       -1.58916493       0.88556055      -1.22428434
H       -0.03192848      -1.04736507       1.69466013
H        0.03500844      -1.57429880      -1.06490384
H       -0.98760839      -2.28959809       0.20047463
H        1.02489122       0.88714838       1.45403593
H        2.68536462       0.45846089      -0.33445226
H        1.52917235       1.71494978      -0.77363270
H        1.37872236       0.10544854      -1.48470034
16
Frame=7 idx=004286 GeodesicLength=0.7277992665944486 rxn_smarts="[C:1]([C@@:2]1([H:10])[C:3]([H:11])([H:12])[O:4][C@:5]1([C:6]([H:14])([H:15])[H:16])[H:13])([H:7])([H:8])[H:9]>>[C:1](/[C:2]([C:3]([O:4][H:10])([H:11])[H:12])=[C:5](/[C:6]([H:14])([H:15])[H:16])[H:13])([H:7])([H:8])[H:9]"
C       -1.73591610       0.75617418      -0.13685716
C       -0.68542812      -0.08650372       0.51228178
C       -0.33088398      -1.45371014      -0.04904817
O        0.82550074      -1.40037142       0.88863785
C        0.74315756       0.30326024       0.57502063
C        1.64826851       0.65463751      -0.57393794
H       -1.74889905       1.76116484       0.29085531
H       -2.72096300       0.31290856       0.03134171
H       -1.60750134       0.85899654      -1.22255862
H       -0.05519257      -1.04654424       1.69828734
H        0.01834485      -1.58076094      -1.07640822
H       -0.99988774      -2.28166515       0.19519913
H        1.01549292       0.90414414       1.44796552
H        2.69372513       0.46643102      -0.32196549
H        1.54434831       1.72317194      -0.77801286
H        1.39583388       0.10866664      -1.48080080
16
Frame=8 idx=004286 GeodesicLength=0.8317821000998303 rxn_smarts="[C:1]([C@@:2]1([H:10])[C:3]([H:11])([H:12])[O:4][C@:5]1([C:6]([H:14])([H:15])[H:16])[H:13])([H:7])([H:8])[H:9]>>[C:1](/[C:2]([C:3]([O:4][H:10])([H:11])[H:12])=[C:5](/[C:6]([H:14])([H:15])[H:16])[H:13])([H:7])([H:8])[H:9]"
C       -1.73454062       0.74889703      -0.13101343
C       -0.67415643      -0.08664132       0.50978165
C       -0.32986553      -1.45638281      -0.05567684
O        0.82144637      -1.41860866       0.87915666
C        0.74558590       0.31411297       0.56918656
C        1.65937097       0.66367883      -0.57181311
H       -1.73654797       1.76056472       0.28066584
H       -2.71637764       0.30886188       0.06293430
H       -1.62573343       0.83272697      -1.21987185
H       -0.07941628      -1.04552768       1.70178446
H        0.00107926      -1.58728075      -1.08785821
H       -1.01196413      -2.27360348       0.18996107
H        1.00589141       0.92177646       1.44139824
H        2.70210148       0.47446145      -0.30923006
H        1.55986635       1.73129846      -0.78267806
H        1.41326028       0.11166593      -1.47672723
16
Frame=9 idx=004286 GeodesicLength=0.9359362270050203 rxn_smarts="[C:1]([C@@:2]1([H:10])[C:3]([H:11])([H:12])[O:4][C@:5]1([C:6]([H:14])([H:15])[H:16])[H:13])([H:7])([H:8])[H:9]>>[C:1](/[C:2]([C:3]([O:4][H:10])([H:11])[H:12])=[C:5](/[C:6]([H:14])([H:15])[H:16])[H:13])([H:7])([H:8])[H:9]"
C       -1.73303211       0.74148913      -0.12492237
C       -0.66263821      -0.08689102       0.50714535
C       -0.32882541      -1.45914328      -0.06236409
O        0.81756400      -1.43726454       0.86917162
C        0.74801588       0.32534144       0.56318504
C        1.67066257       0.67273372      -0.56968581
H       -1.72479801       1.75940941       0.27065596
H       -2.71109740       0.30473710       0.09430697
H       -1.64385175       0.80674783      -1.21621610
H       -0.10466085      -1.04431738       1.70516093
H       -0.01683298      -1.59384964      -1.09923520
H       -1.02383829      -2.26542377       0.18480511
H        0.99607780       0.94007020       1.43430282
H        2.71048810       0.48257049      -0.29622753
H        1.57575440       1.73933524      -0.78762245
H        1.43101226       0.11445509      -1.47246027
16
Frame=10 idx=004286 GeodesicLength=1.040138970248936 rxn_smarts="[C:1]([C@@:2]1([H:10])[C:3]([H:11])([H:12])[O:4][C@:5]1([C:6]([H:14])([H:15])[H:16])[H:13])([H:7])([H:8])[H:9]>>[C:1](/[C:2]([C:3]([O:4][H:10])([H:11])[H:12])=[C:5](/[C:6]([H:14])([H:15])[H:16])[H:13])([H:7])([H:8])[H:9]"
C       -1.73137499       0.73394137      -0.11858328
C       -0.65087315      -0.08727315       0.50437218
C       -0.32775953      -1.46199578      -0.06912487
O        0.81383652      -1.45634103       0.85869606
C        0.75043735       0.33696000       0.55699181
C        1.68214904       0.68180295      -0.56756444
H       -1.71366084       1.75773150       0.26091370
H       -2.70508783       0.30048869       0.12552639
H       -1.66181433       0.78106174      -1.21162138
H       -0.13104477      -1.04285161       1.70835089
H       -0.03539492      -1.60046315      -1.11052155
H       -1.03547101      -2.25714619       0.17971884
H        0.98604093       0.95902322       1.42664797
H        2.71888156       0.49077520      -0.28293989
H        1.59201643       1.74726820      -0.79286742
H        1.44911953       0.11701804      -1.46799501
16
Frame=11 idx=004286 GeodesicLength=1.1443712566797333 rxn_smarts="[C:1]([C@@:2]1([H:10])[C:3]([H:11])([H:12])[O:4][C@:5]1([C:6]([H:14])([H:15])[H:16])[H:13])([H:7])([H:8])[H:9]>>[C:1](/[C:2]([C:3]([O:4][H:10])([H:11])[H:12])=[C:5](/[C:6]([H:14])([H:15])[H:16])[H:13])([H:7])([H:8])[H:9]"
C       -1.72955237       0.72624455      -0.11198122
C       -0.63884431      -0.08779410       0.50147665
C       -0.32667045      -1.46494327      -0.07596024
O        0.81028485      -1.47585651       0.84768107
C        0.75284317       0.34898597       0.55058926
C        1.69383572       0.69089247      -0.56544966
H       -1.70313164       1.75552853       0.25149871
H       -2.69835768       0.29608630       0.15657829
H       -1.67958161       0.75567247      -1.20609643
H       -0.15865649      -1.04109958       1.71131673
H       -0.05463910      -1.60711553      -1.12169101
H       -1.04684473      -2.24878571       0.17472862
H        0.97577269       0.97864586       1.41840546
H        2.72727550       0.49909376      -0.26935304
H        1.60866717       1.75509477      -0.79842264
H        1.46759927       0.11935001      -1.46332054
16
Frame=12 idx=004286 GeodesicLength=1.2486104849203512 rxn_smarts="[C:1]([C@@:2]1([H:10])[C:3]([H:11])([H:12])[O:4][C@:5]1([C:6]([H:14])([H:15])[H:16])[H:13])([H:7])([H:8])[H:9]>>[C:1](/[C:2]([C:3]([O:4][H:10])([H:11])[H:12])=[C:5](/[C:6]([H:14])([H:15])[H:16])[H:13])([H:7])([H:8])[H:9]"
C       -1.72754494       0.71838877      -0.10510425
C       -0.62653679      -0.08846594       0.49847444
C       -0.32556342      -1.46799086      -0.08287173
O        0.80692929      -1.49583289       0.83607500
C        0.75522207       0.36143626       0.54395368
C        1.70572622       0.70000802      -0.56334183
H       -1.69320606       1.75281137       0.24246578
H       -2.69090354       0.29149768       0.18746694
H       -1.69710903       0.73058334      -1.19965597
H       -0.18758791      -1.03902325       1.71402030
H       -0.07459425      -1.61380012      -1.13271703
H       -1.05794079      -2.24036282       0.16986010
H        0.96526382       0.99894197       1.40954174
H        2.73565838       0.50754913      -0.25544866
H        1.62571904       1.76281031      -0.80429674
H        1.48646791       0.12144904      -1.45842176
16
Frame=13 idx=004286 GeodesicLength=1.3528278777314584 rxn_smarts="[C:1]([C@@:2]1([H:10])[C:3]([H:11])([H:12])[O:4][C@:5]1([C:6]([H:14])([H:15])[H:16])[H:13])([H:7])([H:8])[H:9]>>[C:1](/[C:2]([C:3]([O:4][H:10])([H:11])[H:12])=[C:5](/[C:6]([H:14])([H:15])[H:16])[H:13])([H:7])([H:8])[H:9]"
C       -1.72533051       0.71036090      -0.09793135
C       -0.61393170      -0.08929948       0.49539049
C       -0.32444266      -1.47114130      -0.08985692
O        0.80379380      -1.51629188       0.82382049
C        0.75756321       0.37432903       0.53706130
C        1.71782322       0.70915653      -0.56124226
H       -1.68387763       1.74957385       0.23387545
H       -2.68273969       0.28669014       0.21816171
H       -1.71434816       0.70580927      -1.19230599
H       -0.21792781      -1.03657913       1.71642218
H       -0.09529423      -1.62051019      -1.14356990
H       -1.06873998      -2.23189817       0.16514795
H        0.95450905       1.01991526       1.40002500
H        2.74401823       0.51615865      -0.24121285
H        1.64318729       1.77041257      -0.81049870
H        1.50573759       0.12331395      -1.45328658
16
Frame=14 idx=004286 GeodesicLength=1.4570050727484116 rxn_smarts="[C:1]([C@@:2]1([H:10])[C:3]([H:11])([H:12])[O:4][C@:5]1([C:6]([H:14])([H:15])[H:16])[H:13])([H:7])([H:8])[H:9]>>[C:1](/[C:2]([C:3]([O:4][H:10])([H:11])[H:12])=[C:5](/[C:6]([H:14])([H:15])[H:16])[H:13])([H:7])([H:8])[H:9]"
C       -1.72288326       0.70215177      -0.09045359
C       -0.60101305      -0.09031240       0.49225066
C       -0.32331636      -1.47440280      -0.09691414
O        0.80090978      -1.53726220       0.81084228
C        0.75985295       0.38767773       0.52988504
C        1.73012551       0.71834675      -0.55915048
H       -1.67513897       1.74582974       0.22578565
H       -2.67386817       0.28163501       0.24864531
H       -1.73123857       0.68135760      -1.18406318
H       -0.24976537      -1.03372326       1.71848817
H       -0.11677724      -1.62723853      -1.15421164
H       -1.07922328      -2.22341914       0.16063618
H        0.94350003       1.04156253       1.38981824
H        2.75233779       0.52495051      -0.22662970
H        1.66108094       1.77789843      -0.81702975
H        1.52541726       0.12494827      -1.44789907
16
Frame=15 idx=004286 GeodesicLength=1.5611126110623075 rxn_smarts="[C:1]([C@@:2]1([H:10])[C:3]([H:11])([H:12])[O:4][C@:5]1([C:6]([H:14])([H:15])[H:16])[H:13])([H:7])([H:8])[H:9]>>[C:1](/[C:2]([C:3]([O:4][H:10])([H:11])[H:12])=[C:5](/[C:6]([H:14])([H:15])[H:16])[H:13])([H:7])([H:8])[H:9]"
C       -1.72017383       0.69374893      -0.08265674
C       -0.58776094      -0.09152200       0.48909073
C       -0.32219280      -1.47778174      -0.10403693
O        0.79830988      -1.55877107       0.79706342
C        0.76207588       0.40149804       0.52239488
C        1.74263078       0.72758807      -0.55706753
H       -1.66698042       1.74158024       0.21826038
H       -2.66430236       0.27629966       0.27888000
H       -1.74771441       0.65724565      -1.17494113
H       -0.28319284      -1.03040145       1.72017562
H       -0.13908351      -1.63397893      -1.16460179
H       -1.08937001      -2.21495392       0.15637476
H        0.93223436       1.06387622       1.37888969
H        2.76059755       0.53394799      -0.21168671
H        1.67941038       1.78526702      -0.82389302
H        1.54551229       0.12635727      -1.44224563
16
Frame=16 idx=004286 GeodesicLength=1.6651098606645307 rxn_smarts="[C:1]([C@@:2]1([H:10])[C:3]([H:11])([H:12])[O:4][C@:5]1([C:6]([H:14])([H:15])[H:16])[H:13])([H:7])([H:8])[H:9]>>[C:1](/[C:2]([C:3]([O:4][H:10])([H:11])[H:12])=[C:5](/[C:6]([H:14])([H:15])[H:16])[H:13])([H:7])([H:8])[H:9]"
C       -1.71717043       0.68514171      -0.07453084
C       -0.57415532      -0.09294865       0.48595018
C       -0.32108247      -1.48128538      -0.11121897
O        0.79602954      -1.58084817       0.78239553
C        0.76421333       0.41580309       0.51455754
C        1.75533477       0.73689059      -0.55499299
H       -1.65939014       1.73683084       0.21136463
H       -2.65405756       0.27065563       0.30882004
H       -1.76370693       0.63348959      -1.16495773
H       -0.31829013      -1.02655734       1.72144769
H       -0.16225814      -1.64072571      -1.17469379
H       -1.09915895      -2.20653369       0.15242084
H        0.92070827       1.08684300       1.36720593
H        2.76877418       0.54317632      -0.19636980
H        1.69818509       1.79251810      -0.83108745
H        1.56602488       0.12755006      -1.43631080
