12
Frame=0 idx=000721 GeodesicLength=0.0 rxn_smarts="[C:1]([C:2](=[O:3])[C:4]([C:5]#[C:6][H:12])([H:10])[H:11])([H:7])([H:8])[H:9]>>[C:1](/[C:2]([O:3][H:11])=[C:4](\[C:5]#[C:6][H:12])[H:10])([H:7])([H:8])[H:9]"
C       -1.38452963       0.92623899      -0.16695361
C       -0.76054617      -0.38507724      -0.44683277
O       -1.44049104      -1.39852926      -0.80127030
C        0.61351167      -0.78907547      -0.35424428
C        1.53720154      -0.19366872       0.55466908
C        2.30341647       0.28437765       1.34658828
H       -2.46716901       0.84840812      -0.10077244
H       -1.10482084       1.62825240      -0.95571475
H       -0.97151442       1.31944516       0.76377496
H        1.00887514      -1.01430209      -1.34586975
H       -0.32347042      -1.92202510      -0.54092597
H        2.98953667       0.69595559       2.04755155
12
Frame=1 idx=000721 GeodesicLength=0.03998355505507604 rxn_smarts="[C:1]([C:2](=[O:3])[C:4]([C:5]#[C:6][H:12])([H:10])[H:11])([H:7])([H:8])[H:9]>>[C:1](/[C:2]([O:3][H:11])=[C:4](\[C:5]#[C:6][H:12])[H:10])([H:7])([H:8])[H:9]"
C       -1.38143309       0.92669061      -0.16468769
C       -0.76186164      -0.38393006      -0.45788721
O       -1.44673404      -1.40496013      -0.78181021
C        0.61161017      -0.78986285      -0.36054907
C        1.53549442      -0.17693250       0.53760047
C        2.30069326       0.29917847       1.33152297
H       -2.46684344       0.86115070      -0.14580250
H       -1.05944292       1.64659190      -0.92034244
H       -1.00728758       1.28789397       0.79506553
H        1.00911624      -1.02626230      -1.34870542
H       -0.32122905      -1.93433440      -0.52509561
H        2.98791767       0.69477657       2.04069119
12
Frame=2 idx=000721 GeodesicLength=0.080218439777292 rxn_smarts="[C:1]([C:2](=[O:3])[C:4]([C:5]#[C:6][H:12])([H:10])[H:11])([H:7])([H:8])[H:9]>>[C:1](/[C:2]([O:3][H:11])=[C:4](\[C:5]#[C:6][H:12])[H:10])([H:7])([H:8])[H:9]"
C       -1.37784499       0.92714518      -0.16220238
C       -0.76313318      -0.38269935      -0.46982706
O       -1.45291823      -1.41058564      -0.76266404
C        0.60960685      -0.79093288      -0.36685690
C        1.53324857      -0.16159453       0.52134618
C        2.29728288       0.31432372       1.31639229
H       -2.46392509       0.87497803      -0.18895369
H       -1.01571185       1.66341698      -0.88293651
H       -1.04254852       1.25601347       0.82327316
H        1.00979862      -1.03826688      -1.35123955
H       -0.31904328      -1.94640372      -0.50972889
H        2.98518823       0.69460563       2.03339738
12
Frame=3 idx=000721 GeodesicLength=0.12096333761001993 rxn_smarts="[C:1]([C:2](=[O:3])[C:4]([C:5]#[C:6][H:12])([H:10])[H:11])([H:7])([H:8])[H:9]>>[C:1](/[C:2]([O:3][H:11])=[C:4](\[C:5]#[C:6][H:12])[H:10])([H:7])([H:8])[H:9]"
C       -1.37316612       0.92759099      -0.15891525
C       -0.76435111      -0.38150707      -0.48272786
O       -1.45947274      -1.41488452      -0.74536067
C        0.60725431      -0.79323671      -0.37302224
C        1.53022588      -0.14979309       0.50697584
C        2.29282999       0.32811798       1.30209867
H       -2.45799155       0.89062415      -0.23047859
H       -0.97193775       1.67899595      -0.84223397
H       -1.07723788       1.22280903       0.84964681
H        1.01103753      -1.05076183      -1.35336638
H       -0.31785020      -1.95861047      -0.49594379
H        2.98065964       0.70065558       2.02332743
12
Frame=4 idx=000721 GeodesicLength=0.1620375481710446 rxn_smarts="[C:1]([C:2](=[O:3])[C:4]([C:5]#[C:6][H:12])([H:10])[H:11])([H:7])([H:8])[H:9]>>[C:1](/[C:2]([O:3][H:11])=[C:4](\[C:5]#[C:6][H:12])[H:10])([H:7])([H:8])[H:9]"
C       -1.36879047       0.92778768      -0.15573866
C       -0.76575943      -0.38012528      -0.49659573
O       -1.46575938      -1.41799036      -0.73043699
C        0.60441864      -0.79568244      -0.37788444
C        1.52530542      -0.13980540       0.49626583
C        2.28549477       0.34228929       1.29103498
H       -2.45024686       0.90729539      -0.27250827
H       -0.92939887       1.69314358      -0.79871917
H       -1.11385073       1.18848638       0.87336362
H        1.01342809      -1.06264909      -1.35345874
H       -0.31695862      -1.97041920      -0.48296159
H        2.98211746       0.70766946       2.00763915
12
Frame=5 idx=000721 GeodesicLength=0.20326040220233602 rxn_smarts="[C:1]([C:2](=[O:3])[C:4]([C:5]#[C:6][H:12])([H:10])[H:11])([H:7])([H:8])[H:9]>>[C:1](/[C:2]([O:3][H:11])=[C:4](\[C:5]#[C:6][H:12])[H:10])([H:7])([H:8])[H:9]"
C       -1.36345641       0.92796321      -0.15206624
C       -0.76714180      -0.37894758      -0.51003022
O       -1.47218220      -1.42042213      -0.71538684
C        0.60152949      -0.79856865      -0.38331310
C        1.52078825      -0.13140158       0.48520399
C        2.27910591       0.35589277       1.27844703
H       -2.43981803       0.92503352      -0.31102335
H       -0.88841832       1.70454864      -0.75470265
H       -1.14839772       1.15524432       0.89401962
H        1.01532875      -1.07406643      -1.35448250
H       -0.31624059      -1.98222818      -0.47094027
H        2.97890266       0.71695209       1.99427455
12
Frame=6 idx=000721 GeodesicLength=0.2449756326148536 rxn_smarts="[C:1]([C:2](=[O:3])[C:4]([C:5]#[C:6][H:12])([H:10])[H:11])([H:7])([H:8])[H:9]>>[C:1](/[C:2]([O:3][H:11])=[C:4](\[C:5]#[C:6][H:12])[H:10])([H:7])([H:8])[H:9]"
C       -1.35823161       0.92812393      -0.14837476
C       -0.76868471      -0.37781159      -0.52329463
O       -1.47837707      -1.42225553      -0.70140106
C        0.59848806      -0.80153680      -0.38824688
C        1.51557441      -0.12413807       0.47584842
C        2.27182745       0.36902694       1.26728453
H       -2.42779860       0.94354345      -0.34814968
H       -0.84928051       1.71395087      -0.70981343
H       -1.18331125       1.12281984       0.91176145
H        1.01771286      -1.08454478      -1.35495302
H       -0.31545023      -1.99404013      -0.45973147
H        2.97753119       0.72686186       1.97907054
12
Frame=7 idx=000721 GeodesicLength=0.2870969964985869 rxn_smarts="[C:1]([C:2](=[O:3])[C:4]([C:5]#[C:6][H:12])([H:10])[H:11])([H:7])([H:8])[H:9]>>[C:1](/[C:2]([O:3][H:11])=[C:4](\[C:5]#[C:6][H:12])[H:10])([H:7])([H:8])[H:9]"
C       -1.35275310       0.92803930      -0.14434019
C       -0.77029058      -0.37659985      -0.53686183
O       -1.48471396      -1.42289651      -0.68977090
C        0.59507374      -0.80505711      -0.39245470
C        1.50946445      -0.11922855       0.46907151
C        2.26318307       0.38148787       1.25805598
H       -2.41367163       0.96323859      -0.38455625
H       -0.81100739       1.72135727      -0.66257711
H       -1.21880434       1.08997523       0.92725610
H        1.02059655      -1.09468756      -1.35435016
H       -0.31539888      -2.00576341      -0.44965251
H        2.97832206       0.74013473       1.96018007
12
Frame=8 idx=000721 GeodesicLength=0.32975532991259754 rxn_smarts="[C:1]([C:2](=[O:3])[C:4]([C:5]#[C:6][H:12])([H:10])[H:11])([H:7])([H:8])[H:9]>>[C:1](/[C:2]([O:3][H:11])=[C:4](\[C:5]#[C:6][H:12])[H:10])([H:7])([H:8])[H:9]"
C       -1.34608990       0.92787586      -0.13937280
C       -0.77177167      -0.37549201      -0.55019695
O       -1.49140613      -1.42248769      -0.68012447
C        0.59131737      -0.80982892      -0.39661813
C        1.50315532      -0.11772096       0.46376040
C        2.25474601       0.39322787       1.24801071
H       -2.39660225       0.98461272      -0.41856643
H       -0.77263716       1.72641699      -0.61325633
H       -1.25336212       1.05718108       0.94106440
H        1.02331962      -1.10499564      -1.35391751
H       -0.31644319      -2.01790193      -0.44117844
H        2.97577411       0.75911262       1.94039556
12
Frame=9 idx=000721 GeodesicLength=0.3731892311307348 rxn_smarts="[C:1]([C:2](=[O:3])[C:4]([C:5]#[C:6][H:12])([H:10])[H:11])([H:7])([H:8])[H:9]>>[C:1](/[C:2]([O:3][H:11])=[C:4](\[C:5]#[C:6][H:12])[H:10])([H:7])([H:8])[H:9]"
C       -1.33908956       0.92760434      -0.13385427
C       -0.77319833      -0.37428213      -0.56351821
O       -1.49822919      -1.42115815      -0.67304601
C        0.58726926      -0.81540061      -0.40007515
C        1.49613443      -0.11884915       0.46106402
C        2.24557743       0.40450273       1.23900686
H       -2.37727075       1.00746636      -0.45154621
H       -0.73490800       1.72938548      -0.56155692
H       -1.28867635       1.02439775       0.95288970
H        1.02653333      -1.11516043      -1.35266229
H       -0.31831811      -2.03035208      -0.43394477
H        2.97417584       0.78184588       1.91724325
12
Frame=10 idx=000721 GeodesicLength=0.4173213772084684 rxn_smarts="[C:1]([C:2](=[O:3])[C:4]([C:5]#[C:6][H:12])([H:10])[H:11])([H:7])([H:8])[H:9]>>[C:1](/[C:2]([O:3][H:11])=[C:4](\[C:5]#[C:6][H:12])[H:10])([H:7])([H:8])[H:9]"
C       -1.33160545       0.92706667      -0.12770077
C       -0.77442491      -0.37289046      -0.57691049
O       -1.50526913      -1.41870006      -0.66901946
C        0.58285575      -0.82175039      -0.40265701
C        1.48823419      -0.12274706       0.46136614
C        2.23540846       0.41574600       1.23092992
H       -2.35532873       1.03173472      -0.48336905
H       -0.69771709       1.72996176      -0.50723890
H       -1.32470651       0.99137428       0.96266710
H        1.03028705      -1.12523119      -1.35020389
H       -0.32128678      -2.04295132      -0.42794495
H        2.97355315       0.80838704       1.89008136
12
Frame=11 idx=000721 GeodesicLength=0.4621966633676958 rxn_smarts="[C:1]([C:2](=[O:3])[C:4]([C:5]#[C:6][H:12])([H:10])[H:11])([H:7])([H:8])[H:9]>>[C:1](/[C:2]([O:3][H:11])=[C:4](\[C:5]#[C:6][H:12])[H:10])([H:7])([H:8])[H:9]"
C       -1.32325767       0.92642878      -0.12072224
C       -0.77540428      -0.37138892      -0.58995534
O       -1.51251053      -1.41544738      -0.66654908
C        0.57831697      -0.82896820      -0.40519887
C        1.48045741      -0.12916266       0.46277346
C        2.22597365       0.42621282       1.22172061
H       -2.33066082       1.05743562      -0.51293268
H       -0.66096939       1.72800031      -0.45110225
H       -1.36024733       0.95907604       0.97054761
H        1.03394317      -1.13549101      -1.34786585
H       -0.32510265      -2.05590646      -0.42295367
H        2.96946147       0.83921106       1.86223831
12
Frame=12 idx=000721 GeodesicLength=0.5077042169756262 rxn_smarts="[C:1]([C:2](=[O:3])[C:4]([C:5]#[C:6][H:12])([H:10])[H:11])([H:7])([H:8])[H:9]>>[C:1](/[C:2]([O:3][H:11])=[C:4](\[C:5]#[C:6][H:12])[H:10])([H:7])([H:8])[H:9]"
C       -1.31475295       0.92560684      -0.11335294
C       -0.77612960      -0.36963291      -0.60269420
O       -1.51956927      -1.41149828      -0.66587119
C        0.57368508      -0.83642368      -0.40709539
C        1.47223543      -0.13703997       0.46613332
C        2.21646926       0.43711123       1.21207337
H       -2.30386819       1.08404047      -0.54089042
H       -0.62573650       1.72351947      -0.39362254
H       -1.39628409       0.92759336       0.97605542
H        1.03793265      -1.14536764      -1.34472088
H       -0.32923795      -2.06886510      -0.41845802
H        2.96525614       0.87095622       1.83244346
12
Frame=13 idx=000721 GeodesicLength=0.5537677576125781 rxn_smarts="[C:1]([C:2](=[O:3])[C:4]([C:5]#[C:6][H:12])([H:10])[H:11])([H:7])([H:8])[H:9]>>[C:1](/[C:2]([O:3][H:11])=[C:4](\[C:5]#[C:6][H:12])[H:10])([H:7])([H:8])[H:9]"
C       -1.30602190       0.92466468      -0.10557199
C       -0.77659167      -0.36765473      -0.61504650
O       -1.52645234      -1.40703416      -0.66631874
C        0.56907340      -0.84402705      -0.40874257
C        1.46397397      -0.14591970       0.47051217
C        2.20718840       0.44722059       1.20234620
H       -2.27505309       1.11133440      -0.56682569
H       -0.59210620       1.71660511      -0.33536490
H       -1.43226277       0.89748798       0.97931563
H        1.04208374      -1.15493880      -1.34132611
H       -0.33356728      -2.08187805      -0.41436843
H        2.95973573       0.90413974       1.80139093
12
Frame=14 idx=000721 GeodesicLength=0.6002310663390825 rxn_smarts="[C:1]([C:2](=[O:3])[C:4]([C:5]#[C:6][H:12])([H:10])[H:11])([H:7])([H:8])[H:9]>>[C:1](/[C:2]([O:3][H:11])=[C:4](\[C:5]#[C:6][H:12])[H:10])([H:7])([H:8])[H:9]"
C       -1.29735981       0.92359823      -0.09760947
C       -0.77682890      -0.36542796      -0.62694918
O       -1.53297109      -1.40222654      -0.66747895
C        0.56455694      -0.85141741      -0.41010318
C        1.45568252      -0.15502113       0.47564180
C        2.19819622       0.45694503       1.19242196
H       -2.24468014       1.13889276      -0.59081821
H       -0.56061314       1.70740309      -0.27697000
H       -1.46827706       0.86901676       0.98018574
H        1.04641276      -1.16394177      -1.33760071
H       -0.33771185      -2.09477731      -0.41027737
H        2.95359356       0.93695625       1.76955756
12
Frame=15 idx=000721 GeodesicLength=0.6469641823355081 rxn_smarts="[C:1]([C:2](=[O:3])[C:4]([C:5]#[C:6][H:12])([H:10])[H:11])([H:7])([H:8])[H:9]>>[C:1](/[C:2]([O:3][H:11])=[C:4](\[C:5]#[C:6][H:12])[H:10])([H:7])([H:8])[H:9]"
C       -1.28873966       0.92243599      -0.08948661
C       -0.77686437      -0.36298059      -0.63838346
O       -1.53913585      -1.39716704      -0.66899362
C        0.56017496      -0.85854905      -0.41138321
C        1.44756617      -0.16409167       0.48099685
C        2.18956798       0.46559330       1.18273219
H       -2.21289502       1.16654389      -0.61272826
H       -0.53127145       1.69606982      -0.21883717
H       -1.50396452       0.84241046       0.97883682
H        1.05079233      -1.17239659      -1.33383626
H       -0.34158514      -2.10757379      -0.40611883
H        2.94635457       0.96970527       1.73720155
12
Frame=16 idx=000721 GeodesicLength=0.6938411437313107 rxn_smarts="[C:1]([C:2](=[O:3])[C:4]([C:5]#[C:6][H:12])([H:10])[H:11])([H:7])([H:8])[H:9]>>[C:1](/[C:2]([O:3][H:11])=[C:4](\[C:5]#[C:6][H:12])[H:10])([H:7])([H:8])[H:9]"
C       -1.28027931       0.92119176      -0.08129366
C       -0.77673034      -0.36031779      -0.64935084
O       -1.54489708      -1.39194703      -0.67068537
C        0.55595148      -0.86530572      -0.41259407
C        1.43962275      -0.17284449       0.48644423
C        2.18127799       0.47313394       1.17354627
H       -2.17996705       1.19408292      -0.63261179
H       -0.50423126       1.68279206      -0.16129224
H       -1.53929345       0.81776440       0.97533848
H        1.05523640      -1.18020459      -1.33003925
H       -0.34503564      -2.12023502      -0.40179166
H        2.93834551       1.00188958       1.70432991
