15
Frame=0 idx=011151 GeodesicLength=0.0 rxn_smarts="[C:1]([C:2]([C@@:3]1([C:6]#[C:7][H:15])[C:4]([H:13])([H:14])[O:5]1)([H:11])[H:12])([H:8])([H:9])[H:10]>>[C:1]([C:2]([C:3](=[O+:5][C-:4]([H:13])[H:14])[C:6]#[C:7][H:15])([H:11])[H:12])([H:8])([H:9])[H:10]"
C       -1.97642169      -0.35744920       0.04459913
C       -0.70025184      -0.85778454       0.72932679
C        0.51503943      -0.07431056       0.37548757
C        0.97877133       1.95732244       0.14672326
O        0.71357717       1.05525090       1.09403019
C        1.46385318      -0.50877052      -0.56320682
C        2.22789081      -1.03006342      -1.34008222
H       -2.83979071      -0.94417728       0.36287084
H       -1.89123767      -0.43997521      -1.04042679
H       -2.17179546       0.68734174       0.29372088
H       -0.82198765      -0.79098604       1.81655540
H       -0.52716822      -1.90468702       0.47380518
H        1.80189282       2.63483487       0.32490254
H        0.30930765       2.03447053      -0.69353148
H        2.91832090      -1.46101669      -2.02477452
15
Frame=1 idx=011151 GeodesicLength=0.04372328712937269 rxn_smarts="[C:1]([C:2]([C@@:3]1([C:6]#[C:7][H:15])[C:4]([H:13])([H:14])[O:5]1)([H:11])[H:12])([H:8])([H:9])[H:10]>>[C:1]([C:2]([C:3](=[O+:5][C-:4]([H:13])[H:14])[C:6]#[C:7][H:15])([H:11])[H:12])([H:8])([H:9])[H:10]"
C       -1.96670128      -0.37113820       0.02425826
C       -0.69987626      -0.84339643       0.74433849
C        0.51698679      -0.06411084       0.38332608
C        0.98318090       1.95030196       0.16590705
O        0.73889240       1.04932006       1.12005519
C        1.46088227      -0.51118504      -0.55598769
C        2.20415137      -1.01923313      -1.36060838
H       -2.83136077      -0.95616391       0.34236269
H       -1.86244537      -0.48192380      -1.05656649
H       -2.17513113       0.67793302       0.24286029
H       -0.84092679      -0.74804084       1.82683580
H       -0.51835746      -1.89714199       0.52471271
H        1.81048897       2.62571880       0.33295916
H        0.30959178       2.04589750      -0.66941872
H        2.87062459      -1.45683715      -2.06503443
15
Frame=2 idx=011151 GeodesicLength=0.08758244575713527 rxn_smarts="[C:1]([C:2]([C@@:3]1([C:6]#[C:7][H:15])[C:4]([H:13])([H:14])[O:5]1)([H:11])[H:12])([H:8])([H:9])[H:10]>>[C:1]([C:2]([C:3](=[O+:5][C-:4]([H:13])[H:14])[C:6]#[C:7][H:15])([H:11])[H:12])([H:8])([H:9])[H:10]"
C       -1.95758154      -0.38510042       0.00490028
C       -0.70108265      -0.82862828       0.75956103
C        0.51826667      -0.05524989       0.39088190
C        0.98898024       1.94138442       0.18379596
O        0.76478834       1.04176524       1.14440917
C        1.45652510      -0.51668109      -0.54882832
C        2.17793073      -1.01071305      -1.38102424
H       -2.82401862      -0.96705995       0.32397476
H       -1.83461543      -0.52551274      -1.07049169
H       -2.17724216       0.66790914       0.19109363
H       -0.86118512      -0.70350421       1.83611065
H       -0.51257642      -1.88836136       0.57706352
H        1.82070648       2.61416576       0.33994290
H        0.31213529       2.05571399      -0.64683691
H        2.82896908      -1.44012753      -2.10455264
15
Frame=3 idx=011151 GeodesicLength=0.1314517346703212 rxn_smarts="[C:1]([C:2]([C@@:3]1([C:6]#[C:7][H:15])[C:4]([H:13])([H:14])[O:5]1)([H:11])[H:12])([H:8])([H:9])[H:10]>>[C:1]([C:2]([C:3](=[O+:5][C-:4]([H:13])[H:14])[C:6]#[C:7][H:15])([H:11])[H:12])([H:8])([H:9])[H:10]"
C       -1.94931286      -0.39925284      -0.01349647
C       -0.70455624      -0.81335237       0.77568087
C        0.51871505      -0.04841458       0.39884582
C        0.99666822       1.92964206       0.19948074
O        0.79091822       1.03254886       1.16695501
C        1.45091563      -0.52709146      -0.54013384
C        2.15156467      -1.00937262      -1.39612984
H       -2.81846425      -0.97612806       0.30770284
H       -1.80766921      -0.57146929      -1.08197146
H       -2.17791376       0.65750104       0.13762690
H       -0.88372116      -0.65635524       1.84481429
H       -0.51096647      -1.87836275       0.63231994
H        1.83305323       2.59926934       0.34489355
H        0.31794740       2.06242894      -0.62720194
H        2.79282153      -1.40159105      -2.14938642
15
Frame=4 idx=011151 GeodesicLength=0.175061337816682 rxn_smarts="[C:1]([C:2]([C@@:3]1([C:6]#[C:7][H:15])[C:4]([H:13])([H:14])[O:5]1)([H:11])[H:12])([H:8])([H:9])[H:10]>>[C:1]([C:2]([C:3](=[O+:5][C-:4]([H:13])[H:14])[C:6]#[C:7][H:15])([H:11])[H:12])([H:8])([H:9])[H:10]"
C       -1.94011291      -0.41400745      -0.03130066
C       -0.70563540      -0.79807442       0.78783576
C        0.51992593      -0.03883585       0.40368009
C        1.00180335       1.92193058       0.21828730
O        0.81732785       1.02325092       1.18889968
C        1.44497864      -0.53027454      -0.53758137
C        2.12690459      -0.99781653      -1.41608498
H       -2.81055848      -0.98771800       0.29206784
H       -1.78156750      -0.61467573      -1.09235948
H       -2.17815575       0.64473070       0.08756737
H       -0.90211308      -0.61271922       1.84908170
H       -0.50599269      -1.86627555       0.68020386
H        1.84194349       2.58897912       0.35440860
H        0.32049806       2.07506099      -0.60309478
H        2.75075390      -1.39355501      -2.18161092
15
Frame=5 idx=011151 GeodesicLength=0.21861012938856086 rxn_smarts="[C:1]([C:2]([C@@:3]1([C:6]#[C:7][H:15])[C:4]([H:13])([H:14])[O:5]1)([H:11])[H:12])([H:8])([H:9])[H:10]>>[C:1]([C:2]([C:3](=[O+:5][C-:4]([H:13])[H:14])[C:6]#[C:7][H:15])([H:11])[H:12])([H:8])([H:9])[H:10]"
C       -1.93109069      -0.42937625      -0.04864676
C       -0.70783959      -0.78226116       0.80006029
C        0.52078032      -0.02995421       0.40858573
C        1.00786901       1.91324254       0.23639182
O        0.84364951       1.01302927       1.20966716
C        1.43848047      -0.53536263      -0.53442297
C        2.10324260      -0.99025624      -1.43206822
H       -2.80336131      -0.99867391       0.27771240
H       -1.75563952      -0.65998445      -1.10090714
H       -2.17708166       0.63083513       0.03593659
H       -0.92169315      -0.56728590       1.85208313
H       -0.50308974      -1.85272057       0.72939625
H        1.85179974       2.57743835       0.36380010
H        0.32509885       2.08673605      -0.58009852
H        2.70887517      -1.37540600      -2.21748987
15
Frame=6 idx=011151 GeodesicLength=0.26160164007846676 rxn_smarts="[C:1]([C:2]([C@@:3]1([C:6]#[C:7][H:15])[C:4]([H:13])([H:14])[O:5]1)([H:11])[H:12])([H:8])([H:9])[H:10]>>[C:1]([C:2]([C:3](=[O+:5][C-:4]([H:13])[H:14])[C:6]#[C:7][H:15])([H:11])[H:12])([H:8])([H:9])[H:10]"
C       -1.92266258      -0.44439364      -0.06444833
C       -0.70986333      -0.76658761       0.81036161
C        0.52149449      -0.02081376       0.41144324
C        1.01301079       1.90523932       0.25463015
O        0.87030988       1.00157548       1.22861114
C        1.43056428      -0.53872904      -0.53513126
C        2.07961095      -0.98196478      -1.44957335
H       -2.79638776      -1.00946646       0.26547473
H       -1.73187853      -0.70318086      -1.10743711
H       -2.17568180       0.61627679      -0.01258187
H       -0.93932520      -0.52355127       1.85271943
H       -0.50054224      -1.83804758       0.77472691
H        1.86039363       2.56680419       0.37386100
H        0.32854732       2.09998811      -0.55604848
H        2.67241010      -1.36314890      -2.24660783
15
Frame=7 idx=011151 GeodesicLength=0.3043065251450421 rxn_smarts="[C:1]([C:2]([C@@:3]1([C:6]#[C:7][H:15])[C:4]([H:13])([H:14])[O:5]1)([H:11])[H:12])([H:8])([H:9])[H:10]>>[C:1]([C:2]([C:3](=[O+:5][C-:4]([H:13])[H:14])[C:6]#[C:7][H:15])([H:11])[H:12])([H:8])([H:9])[H:10]"
C       -1.91471376      -0.45946571      -0.07930498
C       -0.71287480      -0.75062141       0.82049589
C        0.52186639      -0.01260179       0.41409943
C        1.01861136       1.89604916       0.27167623
O        0.89669870       0.98902821       1.24595168
C        1.42189979      -0.54400720      -0.53563728
C        2.05712785      -0.97867016      -1.46335679
H       -2.79035496      -1.01913765       0.25480574
H       -1.70903222      -0.74705758      -1.11185626
H       -2.17319433       0.60102054      -0.06114972
H       -0.95736175      -0.47881060       1.85205366
H       -0.50010834      -1.82214211       0.82036381
H        1.86938125       2.55484192       0.38314748
H        0.33342372       2.11185545      -0.53349133
H        2.63863109      -1.34028106      -2.27779756
15
Frame=8 idx=011151 GeodesicLength=0.3468598593482497 rxn_smarts="[C:1]([C:2]([C@@:3]1([C:6]#[C:7][H:15])[C:4]([H:13])([H:14])[O:5]1)([H:11])[H:12])([H:8])([H:9])[H:10]>>[C:1]([C:2]([C:3](=[O+:5][C-:4]([H:13])[H:14])[C:6]#[C:7][H:15])([H:11])[H:12])([H:8])([H:9])[H:10]"
C       -1.90638069      -0.47466458      -0.09364054
C       -0.71477302      -0.73474762       0.82839930
C        0.52258358      -0.00296218       0.41518342
C        1.02276595       1.88896666       0.29048383
O        0.92282227       0.97619370       1.26248672
C        1.41310297      -0.54527067      -0.53932603
C        2.03555092      -0.97036147      -1.47964649
H       -2.78332264      -1.02976888       0.24467124
H       -1.68669223      -0.78903672      -1.11541280
H       -2.17033078       0.58453411      -0.10752763
H       -0.97325459      -0.43616111       1.84884838
H       -0.49806986      -1.80508387       0.86161956
H        1.87634129       2.54545419       0.39534419
H        0.33678848       2.12670157      -0.50829256
H        2.60286834      -1.33379313      -2.30319059
15
Frame=9 idx=011151 GeodesicLength=0.38956281142407834 rxn_smarts="[C:1]([C:2]([C@@:3]1([C:6]#[C:7][H:15])[C:4]([H:13])([H:14])[O:5]1)([H:11])[H:12])([H:8])([H:9])[H:10]>>[C:1]([C:2]([C:3](=[O+:5][C-:4]([H:13])[H:14])[C:6]#[C:7][H:15])([H:11])[H:12])([H:8])([H:9])[H:10]"
C       -1.89804079      -0.49045199      -0.10755907
C       -0.71768094      -0.71842930       0.83659332
C        0.52314004       0.00579362       0.41686509
C        1.02774466       1.88068791       0.30841582
O        0.94824324       0.96272305       1.27809428
C        1.40429285      -0.54876199      -0.54133113
C        2.01388651      -0.96445168      -1.49382296
H       -2.77698768      -1.03955429       0.23535252
H       -1.66411907      -0.83302330      -1.11701354
H       -2.16593378       0.56678169      -0.15542034
H       -0.99026973      -0.39169774       1.84445027
H       -0.49803883      -1.78666096       0.90446667
H        1.88424829       2.53456133       0.40720345
H        0.34238036       2.13983009      -0.48471993
H        2.56713487      -1.31734644      -2.33157445
15
Frame=10 idx=011151 GeodesicLength=0.4316591943441285 rxn_smarts="[C:1]([C:2]([C@@:3]1([C:6]#[C:7][H:15])[C:4]([H:13])([H:14])[O:5]1)([H:11])[H:12])([H:8])([H:9])[H:10]>>[C:1]([C:2]([C:3](=[O+:5][C-:4]([H:13])[H:14])[C:6]#[C:7][H:15])([H:11])[H:12])([H:8])([H:9])[H:10]"
C       -1.89015414      -0.50573668      -0.12026952
C       -0.72051420      -0.70235575       0.84351480
C        0.52363397       0.01454969       0.41744277
C        1.03191846       1.87268730       0.32604540
O        0.97312780       0.94859682       1.29211322
C        1.39489286      -0.55137323      -0.54517155
C        1.99362382      -0.95978601      -1.50728119
H       -2.77095343      -1.04891173       0.22733328
H       -1.64297220      -0.87488055      -1.11710534
H       -2.16129293       0.54872528      -0.20059164
H       -1.00587311      -0.34869480       1.83845461
H       -0.49839354      -1.76759570       0.94442050
H        1.89105076       2.52419334       0.41933612
H        0.34748358       2.15332111      -0.46109715
H        2.53442230      -1.30273909      -2.35714430
15
Frame=11 idx=011151 GeodesicLength=0.47344780672988007 rxn_smarts="[C:1]([C:2]([C@@:3]1([C:6]#[C:7][H:15])[C:4]([H:13])([H:14])[O:5]1)([H:11])[H:12])([H:8])([H:9])[H:10]>>[C:1]([C:2]([C:3](=[O+:5][C-:4]([H:13])[H:14])[C:6]#[C:7][H:15])([H:11])[H:12])([H:8])([H:9])[H:10]"
C       -1.88238808      -0.52067002      -0.13210296
C       -0.72304054      -0.68652376       0.84922082
C        0.52420781       0.02355334       0.41718286
C        1.03522803       1.86523840       0.34385567
O        0.99735702       0.93405563       1.30493345
C        1.38524420      -0.55260015      -0.55052926
C        1.97394140      -0.95390016      -1.52138377
H       -2.76486276      -1.05807945       0.22016001
H       -1.62268427      -0.91487780      -1.11604880
H       -2.15626742       0.53026796      -0.24354615
H       -1.02011485      -0.30717640       1.83096033
H       -0.49865478      -1.74795413       0.98161417
H        1.89657710       2.51473578       0.43245453
H        0.35209277       2.16742221      -0.43698654
H        2.50336435      -1.29349143      -2.37978436
15
Frame=12 idx=011151 GeodesicLength=0.5150734485369787 rxn_smarts="[C:1]([C:2]([C@@:3]1([C:6]#[C:7][H:15])[C:4]([H:13])([H:14])[O:5]1)([H:11])[H:12])([H:8])([H:9])[H:10]>>[C:1]([C:2]([C:3](=[O+:5][C-:4]([H:13])[H:14])[C:6]#[C:7][H:15])([H:11])[H:12])([H:8])([H:9])[H:10]"
C       -1.87464598      -0.53562329      -0.14332453
C       -0.72577077      -0.67068648       0.85440156
C        0.52480378       0.03234343       0.41679081
C        1.03836864       1.85765150       0.36133787
O        1.02070633       0.91924460       1.31680508
C        1.37566117      -0.55399324      -0.55579019
C        1.95518767      -0.94881272      -1.53440775
H       -2.75899541      -1.06684358       0.21358881
H       -1.60264916      -0.95451446      -1.11363992
H       -2.15045931       0.51108765      -0.28578541
H       -1.03406209      -0.26583939       1.82219037
H       -0.49962983      -1.72752253       1.01792361
H        1.90178086       2.50522571       0.44595457
H        0.35737423       2.18106560      -0.41345171
H        2.47232988      -1.28278280      -2.40259317
15
Frame=13 idx=011151 GeodesicLength=0.5568005676303402 rxn_smarts="[C:1]([C:2]([C@@:3]1([C:6]#[C:7][H:15])[C:4]([H:13])([H:14])[O:5]1)([H:11])[H:12])([H:8])([H:9])[H:10]>>[C:1]([C:2]([C:3](=[O+:5][C-:4]([H:13])[H:14])[C:6]#[C:7][H:15])([H:11])[H:12])([H:8])([H:9])[H:10]"
C       -1.86696764      -0.55098001      -0.15401566
C       -0.72933722      -0.65451971       0.85975779
C        0.52529807       0.04026869       0.41690113
C        1.04212177       1.84898495       0.37774936
O        1.04302493       0.90411919       1.32789085
C        1.36621334      -0.55747368      -0.55937470
C        1.93720375      -0.94709245      -1.54470093
H       -2.75381958      -1.07477235       0.20763090
H       -1.58258242      -0.99546107      -1.10926239
H       -2.14336820       0.49070359      -0.32879073
H       -1.04871334      -0.22317001       1.81217405
H       -0.50245080      -1.70585876       1.05534675
H        1.90775815       2.49433608       0.45889473
H        0.36456156       2.19295466      -0.39181109
H        2.44105763      -1.26203912      -2.42839005
15
Frame=14 idx=011151 GeodesicLength=0.5987117475186202 rxn_smarts="[C:1]([C:2]([C@@:3]1([C:6]#[C:7][H:15])[C:4]([H:13])([H:14])[O:5]1)([H:11])[H:12])([H:8])([H:9])[H:10]>>[C:1]([C:2]([C:3](=[O+:5][C-:4]([H:13])[H:14])[C:6]#[C:7][H:15])([H:11])[H:12])([H:8])([H:9])[H:10]"
C       -1.85886388      -0.56655365      -0.16446388
C       -0.73251461      -0.63839543       0.86407716
C        0.52602644       0.04866088       0.41657826
C        1.04543495       1.84100743       0.39489839
O        1.06458557       0.88885140       1.33848040
C        1.35701888      -0.55941552      -0.56379114
C        1.91933256      -0.94216948      -1.55641715
H       -2.74818949      -1.08287012       0.20176584
H       -1.56230184      -1.03591784      -1.10395013
H       -2.13541389       0.46925187      -0.37118304
H       -1.06257831      -0.18128610       1.80048540
H       -0.50490230      -1.68338708       1.09094764
H        1.91310867       2.48422662       0.47351182
H        0.37178976       2.20568600      -0.36920516
H        2.40746749      -1.24768898      -2.45173440
15
Frame=15 idx=011151 GeodesicLength=0.6409848625846847 rxn_smarts="[C:1]([C:2]([C@@:3]1([C:6]#[C:7][H:15])[C:4]([H:13])([H:14])[O:5]1)([H:11])[H:12])([H:8])([H:9])[H:10]>>[C:1]([C:2]([C:3](=[O+:5][C-:4]([H:13])[H:14])[C:6]#[C:7][H:15])([H:11])[H:12])([H:8])([H:9])[H:10]"
C       -1.85043411      -0.58280549      -0.17467800
C       -0.73616599      -0.62191354       0.86824710
C        0.52682699       0.05667898       0.41664151
C        1.04922773       1.83256921       0.41182538
O        1.08516983       0.87339790       1.34877547
C        1.34818391      -0.56227603      -0.56706612
C        1.90152346      -0.93730340      -1.56733383
H       -2.74279897      -1.09053965       0.19608774
H       -1.54150086      -1.07793278      -1.09677682
H       -2.12590853       0.44611634      -0.41470823
H       -1.07695884      -0.13831274       1.78713652
H       -0.50855220      -1.65953768       1.12721134
H        1.91910303       2.47334785       0.48860433
H        0.38057957       2.21761579      -0.34734953
H        2.37170496      -1.22910477      -2.47661686
15
Frame=16 idx=011151 GeodesicLength=0.6830023873824289 rxn_smarts="[C:1]([C:2]([C@@:3]1([C:6]#[C:7][H:15])[C:4]([H:13])([H:14])[O:5]1)([H:11])[H:12])([H:8])([H:9])[H:10]>>[C:1]([C:2]([C:3](=[O+:5][C-:4]([H:13])[H:14])[C:6]#[C:7][H:15])([H:11])[H:12])([H:8])([H:9])[H:10]"
C       -1.84208865      -0.59873489      -0.18414881
C       -0.73968770      -0.60566669       0.87158450
C        0.52768049       0.06470796       0.41622668
C        1.05249556       1.82433326       0.42853870
O        1.10481666       0.85784423       1.35819667
C        1.33935046      -0.56454624      -0.57098642
C        1.88470549      -0.93241064      -1.57794873
H       -2.73743497      -1.09798172       0.19086021
H       -1.52125029      -1.11831886      -1.08853538
H       -2.11604621       0.42260581      -0.45630952
H       -1.09037938      -0.09655288       1.77258269
H       -0.51241987      -1.63526697       1.16149974
H        1.92430916       2.46290890       0.50428705
H        0.38936467       2.22954234      -0.32567684
H        2.33658458      -1.21246361      -2.50017054
