10
Frame=0 idx=004376 GeodesicLength=0.0 rxn_smarts="[N:1](=[C:2]1/[C:3]([H:7])([H:8])[C:4]([H:9])([H:10])[O:5]1)\[H:6]>>[C:3](=[C:4]([H:9])[H:10])([H:7])[H:8].[N:1](=[C:2]=[O:5])[H:6]"
N        1.80754117      -0.51819882       0.20764534
C        0.86034958       0.22960753      -0.12169109
C       -0.61400183      -0.72730399      -0.36135367
C       -1.17225537       0.38901407       0.25952034
O        0.58066527       1.44259681      -0.27425573
H        2.63268599       0.03012505       0.44290097
H       -0.45116430      -1.62538913       0.21436517
H       -0.77188166      -0.85201862      -1.42595867
H       -1.19860399       0.45486311       1.34188039
H       -1.67333486       1.17670399      -0.28305306
10
Frame=1 idx=004376 GeodesicLength=0.08487914614134712 rxn_smarts="[N:1](=[C:2]1/[C:3]([H:7])([H:8])[C:4]([H:9])([H:10])[O:5]1)\[H:6]>>[C:3](=[C:4]([H:9])[H:10])([H:7])[H:8].[N:1](=[C:2]=[O:5])[H:6]"
N        1.82829062      -0.51968175       0.20923664
C        0.87664371       0.24038126      -0.06901860
C       -0.61244102      -0.72609686      -0.35149320
C       -1.18966499       0.39489151       0.24732678
O        0.59524869       1.45537228      -0.20522407
H        2.68495694       0.01430764       0.34314184
H       -0.47494094      -1.62355903       0.23263031
H       -0.75165701      -0.86386358      -1.41731097
H       -1.26863708       0.45829443       1.32733575
H       -1.68779892       1.16995410      -0.31662448
10
Frame=2 idx=004376 GeodesicLength=0.16911991803565346 rxn_smarts="[N:1](=[C:2]1/[C:3]([H:7])([H:8])[C:4]([H:9])([H:10])[O:5]1)\[H:6]>>[C:3](=[C:4]([H:9])[H:10])([H:7])[H:8].[N:1](=[C:2]=[O:5])[H:6]"
N        1.85044572      -0.51915286       0.21250660
C        0.89366282       0.25016975      -0.01034220
C       -0.60963273      -0.72501454      -0.34037032
C       -1.20552754       0.40116514       0.23432436
O        0.60987435       1.46690931      -0.12968856
H        2.72695755      -0.00159346       0.23232009
H       -0.49903735      -1.62164444       0.25161832
H       -0.72855307      -0.87615911      -1.40705625
H       -1.33993444       0.46198126       1.30907867
H       -1.69825529       1.16333895      -0.35239070
10
Frame=3 idx=004376 GeodesicLength=0.25242397516446463 rxn_smarts="[N:1](=[C:2]1/[C:3]([H:7])([H:8])[C:4]([H:9])([H:10])[O:5]1)\[H:6]>>[C:3](=[C:4]([H:9])[H:10])([H:7])[H:8].[N:1](=[C:2]=[O:5])[H:6]"
N        1.87408200      -0.51673481       0.21327962
C        0.91177421       0.25840069       0.05122917
C       -0.60584272      -0.72421775      -0.32832454
C       -1.21859974       0.40784941       0.22102830
O        0.62461847       1.47655595      -0.05002282
H        2.75515894      -0.01572468       0.11876977
H       -0.52298874      -1.61965678       0.27083945
H       -0.70477822      -0.88928910      -1.39523163
H       -1.40919525       0.46604376       1.28752185
H       -1.70422896       1.15677330      -0.38908916
10
Frame=4 idx=004376 GeodesicLength=0.33546004794005535 rxn_smarts="[N:1](=[C:2]1/[C:3]([H:7])([H:8])[C:4]([H:9])([H:10])[O:5]1)\[H:6]>>[C:3](=[C:4]([H:9])[H:10])([H:7])[H:8].[N:1](=[C:2]=[O:5])[H:6]"
N        1.89924437      -0.51239118       0.21184332
C        0.93117695       0.26434264       0.11556405
C       -0.60120969      -0.72395891      -0.31541977
C       -1.22867590       0.41501338       0.20731794
O        0.63966102       1.48366366       0.03433877
H        2.76886366      -0.02664446       0.00241376
H       -0.54722775      -1.61782228       0.29028539
H       -0.68053765      -0.90356339      -1.38187085
H       -1.47620778       0.47083130       1.26232440
H       -1.70508725       1.15052924      -0.42679700
10
Frame=5 idx=004376 GeodesicLength=0.41836790172211397 rxn_smarts="[N:1](=[C:2]1/[C:3]([H:7])([H:8])[C:4]([H:9])([H:10])[O:5]1)\[H:6]>>[C:3](=[C:4]([H:9])[H:10])([H:7])[H:8].[N:1](=[C:2]=[O:5])[H:6]"
N        1.92560325      -0.50569694       0.20833333
C        0.95210859       0.26770275       0.18129045
C       -0.59584026      -0.72438270      -0.30180333
C       -1.23536267       0.42266046       0.19316593
O        0.65490632       1.48779149       0.12352214
H        2.76723829      -0.03376034      -0.11536188
H       -0.57173435      -1.61607844       0.30993523
H       -0.65641574      -0.91934149      -1.36705133
H       -1.54006116       0.47651362       1.23337566
H       -1.70044226       1.14459159      -0.46540620
10
Frame=6 idx=004376 GeodesicLength=0.5014549305440498 rxn_smarts="[N:1](=[C:2]1/[C:3]([H:7])([H:8])[C:4]([H:9])([H:10])[O:5]1)\[H:6]>>[C:3](=[C:4]([H:9])[H:10])([H:7])[H:8].[N:1](=[C:2]=[O:5])[H:6]"
N        1.95309526      -0.49626384       0.20198990
C        0.97480397       0.26819037       0.24715301
C       -0.58993947      -0.72568430      -0.28753235
C       -1.23840861       0.43082551       0.17849473
O        0.67021051       1.48833505       0.21787027
H        2.74998987      -0.03637263      -0.23278446
H       -0.59654905      -1.61433949       0.32999682
H       -0.63306722      -0.93711166      -1.35075474
H       -1.60022162       0.48341125       1.20049277
H       -1.68991365       1.13900974      -0.50492595
10
Frame=7 idx=004376 GeodesicLength=0.5849487824993197 rxn_smarts="[N:1](=[C:2]1/[C:3]([H:7])([H:8])[C:4]([H:9])([H:10])[O:5]1)\[H:6]>>[C:3](=[C:4]([H:9])[H:10])([H:7])[H:8].[N:1](=[C:2]=[O:5])[H:6]"
N        1.98161847      -0.48404300       0.19103909
C        0.99945316       0.26530105       0.31157427
C       -0.58405352      -0.72816844      -0.27271882
C       -1.23768891       0.43954094       0.16332783
O        0.68548074       1.48435009       0.31699030
H        2.71839574      -0.03278283      -0.34648416
H       -0.62209402      -1.61258843       0.35068067
H       -0.61180733      -0.95753205      -1.33301648
H       -1.65604343       0.49208722       1.16374212
H       -1.67326088       1.13383543      -0.54513482
10
Frame=8 idx=004376 GeodesicLength=0.6690766938962399 rxn_smarts="[N:1](=[C:2]1/[C:3]([H:7])([H:8])[C:4]([H:9])([H:10])[O:5]1)\[H:6]>>[C:3](=[C:4]([H:9])[H:10])([H:7])[H:8].[N:1](=[C:2]=[O:5])[H:6]"
N        2.01086303      -0.46838818       0.17442830
C        1.02629538       0.25866081       0.37416678
C       -0.57846713      -0.73207387      -0.25716788
C       -1.23309321       0.44883911       0.14741487
O        0.70051299       1.47463160       0.42177914
H        2.67310388      -0.02198404      -0.45584891
H       -0.64869895      -1.61064167       0.37264608
H       -0.59305995      -0.98122813      -1.31354207
H       -1.70762329       0.50305049       1.12259010
H       -1.64983275       1.12913389      -0.58646642
10
Frame=9 idx=004376 GeodesicLength=0.7539971958776939 rxn_smarts="[N:1](=[C:2]1/[C:3]([H:7])([H:8])[C:4]([H:9])([H:10])[O:5]1)\[H:6]>>[C:3](=[C:4]([H:9])[H:10])([H:7])[H:8].[N:1](=[C:2]=[O:5])[H:6]"
N        2.04033817      -0.44879375       0.15040282
C        1.05553609       0.24744993       0.43445338
C       -0.57375354      -0.73783459      -0.24062931
C       -1.22444742       0.45871900       0.13048257
O        0.71517256       1.45736436       0.53290796
H        2.61551106      -0.00147334      -0.55954468
H       -0.67726430      -1.60833369       0.39670603
H       -0.57776246      -1.00921433      -1.29192170
H       -1.75477634       0.51730908       1.07652986
H       -1.61855382       1.12480733      -0.62938694
10
Frame=10 idx=004376 GeodesicLength=0.8398728885762715 rxn_smarts="[N:1](=[C:2]1/[C:3]([H:7])([H:8])[C:4]([H:9])([H:10])[O:5]1)\[H:6]>>[C:3](=[C:4]([H:9])[H:10])([H:7])[H:8].[N:1](=[C:2]=[O:5])[H:6]"
N        2.06924400      -0.42394296       0.11936082
C        1.08746241       0.23172930       0.49180238
C       -0.57012590      -0.74556535      -0.22310616
C       -1.21155731       0.46903017       0.11248607
O        0.72912171       1.43110959       0.64940811
H        2.54599267       0.02886891      -0.65663512
H       -0.70792420      -1.60548832       0.42301673
H       -0.56615457      -1.04159329      -1.26804091
H       -1.79671919       0.53529482       1.02543481
H       -1.57933961       1.12055714      -0.67372675
10
Frame=11 idx=004376 GeodesicLength=0.9267024489409446 rxn_smarts="[N:1](=[C:2]1/[C:3]([H:7])([H:8])[C:4]([H:9])([H:10])[O:5]1)\[H:6]>>[C:3](=[C:4]([H:9])[H:10])([H:7])[H:8].[N:1](=[C:2]=[O:5])[H:6]"
N        2.09648813      -0.39317266       0.08099728
C        1.12221383       0.21109044       0.54544304
C       -0.56817631      -0.75545519      -0.20459332
C       -1.19431528       0.47948772       0.09336769
O        0.74239749       1.39431334       0.76937255
H        2.46652587       0.07091238      -0.74488716
H       -0.74156568      -1.60174542       0.45178715
H       -0.55918200      -1.07863937      -1.24175131
H       -1.83220963       0.55774399       0.96973144
H       -1.53217641       1.11546477      -0.71946737
10
Frame=12 idx=004376 GeodesicLength=1.0148847234106146 rxn_smarts="[N:1](=[C:2]1/[C:3]([H:7])([H:8])[C:4]([H:9])([H:10])[O:5]1)\[H:6]>>[C:3](=[C:4]([H:9])[H:10])([H:7])[H:8].[N:1](=[C:2]=[O:5])[H:6]"
N        2.12127077      -0.35509261       0.03881649
C        1.15989412       0.18736235       0.59452883
C       -0.56759879      -0.76688109      -0.18583691
C       -1.17311267       0.48971179       0.07369265
O        0.75467506       1.34767766       0.88839766
H        2.37739793       0.12001712      -0.82290583
H       -0.77715701      -1.59705785       0.48141618
H       -0.55575006      -1.11838177      -1.21403845
H       -1.85985040       0.58395582       0.91109608
H       -1.47976896       1.10868858      -0.76516669
10
Frame=13 idx=004376 GeodesicLength=1.1046936928955864 rxn_smarts="[N:1](=[C:2]1/[C:3]([H:7])([H:8])[C:4]([H:9])([H:10])[O:5]1)\[H:6]>>[C:3](=[C:4]([H:9])[H:10])([H:7])[H:8].[N:1](=[C:2]=[O:5])[H:6]"
N        2.14271920      -0.30982647      -0.00614071
C        1.20050019       0.16108648       0.63829345
C       -0.56871383      -0.77951491      -0.16711043
C       -1.14848943       0.49936739       0.05361106
O        0.76645327       1.29164465       1.00329315
H        2.28165552       0.17557329      -0.88858520
H       -0.81501702      -1.59099006       0.51136533
H       -0.55607233      -1.16003230      -1.18523104
H       -1.87893671       0.61357747       0.85106233
H       -1.42409885       1.09911446      -0.81055794
10
Frame=14 idx=004376 GeodesicLength=1.196440640284977 rxn_smarts="[N:1](=[C:2]1/[C:3]([H:7])([H:8])[C:4]([H:9])([H:10])[O:5]1)\[H:6]>>[C:3](=[C:4]([H:9])[H:10])([H:7])[H:8].[N:1](=[C:2]=[O:5])[H:6]"
N        2.16071726      -0.25753775      -0.05027400
C        1.24379805       0.13470119       0.67618926
C       -0.57113186      -0.79238435      -0.14934595
C       -1.12165768       0.50823269       0.03378597
O        0.77781012       1.22891407       1.11015926
H        2.18172226       0.23134568      -0.94123099
H       -0.85381702      -1.58361481       0.53963719
H       -0.55873383      -1.20109744      -1.15678978
H       -1.88943928       0.64513713       0.79212838
H       -1.36926802       1.08630359      -0.85425936
10
Frame=15 idx=004376 GeodesicLength=1.2902324602385458 rxn_smarts="[N:1](=[C:2]1/[C:3]([H:7])([H:8])[C:4]([H:9])([H:10])[O:5]1)\[H:6]>>[C:3](=[C:4]([H:9])[H:10])([H:7])[H:8].[N:1](=[C:2]=[O:5])[H:6]"
N        2.17512546      -0.19907382      -0.09242181
C        1.28960525       0.10925260       0.70809581
C       -0.57485469      -0.80502592      -0.13274863
C       -1.09354658       0.51622839       0.01429022
O        0.78925760       1.16097040       1.20772252
H        2.08076238       0.28534197      -0.98089623
H       -0.89336597      -1.57476488       0.56571559
H       -0.56330950      -1.24080462      -1.12908786
H       -1.89221624       0.67778318       0.73551278
H       -1.31745771       1.07009270      -0.89618239
10
Frame=16 idx=004376 GeodesicLength=1.3858507575408885 rxn_smarts="[N:1](=[C:2]1/[C:3]([H:7])([H:8])[C:4]([H:9])([H:10])[O:5]1)\[H:6]>>[C:3](=[C:4]([H:9])[H:10])([H:7])[H:8].[N:1](=[C:2]=[O:5])[H:6]"
N        2.18635365      -0.13528789      -0.13076278
C        1.33754319       0.08630927       0.73426475
C       -0.57965094      -0.81681913      -0.11773901
C       -1.06528315       0.52340966      -0.00464939
O        0.80100477       1.08991961       1.29507007
H        1.98165297       0.33370518      -1.00871319
H       -0.93294561      -1.56456099       0.58866509
H       -0.56892027      -1.27792852      -1.10290445
H       -1.88851268       0.71039036       0.68259706
H       -1.27124193       1.05086245      -0.93582815
