10
Frame=0 idx=005432 GeodesicLength=0.0 rxn_smarts="[N:1]([C:2](=[O:3])[C:4](=[O:5])[N:6]([H:9])[H:10])([H:7])[H:8]>>[N:1]([C:2](=[O:3])/[C:4]([O:5][H:9])=[N:6]\[H:10])([H:7])[H:8]"
N       -1.70077203       0.09009551       0.34899757
C       -0.53309939       0.68334812       0.04740896
O       -0.35177441       1.86838739      -0.10771807
C        0.60948473      -0.30231892      -0.09465324
O        0.48472577      -1.57036246       0.07272340
N        1.83471265      -0.04133429      -0.39300661
H       -1.74312601      -0.90808388       0.45885801
H       -2.52397408       0.65363259       0.46399883
H        1.73991565      -1.36151590      -0.22599745
H        2.18390711       0.88815183      -0.57061140
10
Frame=1 idx=005432 GeodesicLength=0.03605426533677197 rxn_smarts="[N:1]([C:2](=[O:3])[C:4](=[O:5])[N:6]([H:9])[H:10])([H:7])[H:8]>>[N:1]([C:2](=[O:3])/[C:4]([O:5][H:9])=[N:6]\[H:10])([H:7])[H:8]"
N       -1.69931197       0.09153984       0.34986949
C       -0.52941151       0.68414410       0.05623916
O       -0.34527234       1.86713606      -0.11129863
C        0.60086746      -0.30869238      -0.12937784
O        0.48562226      -1.57107774       0.08140477
N        1.83292449      -0.04204350      -0.39700979
H       -1.74011401      -0.90578591       0.46799652
H       -2.52235059       0.65647396       0.45889892
H        1.74909516      -1.36879486      -0.22507954
H        2.16795105       0.89710043      -0.55164307
10
Frame=2 idx=005432 GeodesicLength=0.07220530699744673 rxn_smarts="[N:1]([C:2](=[O:3])[C:4](=[O:5])[N:6]([H:9])[H:10])([H:7])[H:8]>>[N:1]([C:2](=[O:3])/[C:4]([O:5][H:9])=[N:6]\[H:10])([H:7])[H:8]"
N       -1.69814963       0.09278144       0.34898455
C       -0.52643321       0.68438076       0.06106270
O       -0.33789821       1.86621096      -0.11032788
C        0.59507159      -0.31369099      -0.15060168
O        0.48693569      -1.57103783       0.09185557
N        1.83065920      -0.04264641      -0.40185612
H       -1.73847826      -0.90418982       0.47043878
H       -2.52024805       0.65950099       0.45565166
H        1.75818404      -1.37593237      -0.22493767
H        2.15035683       0.90462326      -0.54026992
10
Frame=3 idx=005432 GeodesicLength=0.10840076353896695 rxn_smarts="[N:1]([C:2](=[O:3])[C:4](=[O:5])[N:6]([H:9])[H:10])([H:7])[H:8]>>[N:1]([C:2](=[O:3])/[C:4]([O:5][H:9])=[N:6]\[H:10])([H:7])[H:8]"
N       -1.69689950       0.09407550       0.34873722
C       -0.52376069       0.68450977       0.06464697
O       -0.33081662       1.86523339      -0.11008301
C        0.59029893      -0.31808282      -0.16661007
O        0.48791132      -1.57097705       0.10044217
N        1.82811205      -0.04328064      -0.40779419
H       -1.73699657      -0.90268826       0.47219997
H       -2.51815412       0.66251086       0.45261441
H        1.76735935      -1.38296525      -0.22505539
H        2.13294585       0.91166449      -0.52909809
10
Frame=4 idx=005432 GeodesicLength=0.14458737712802153 rxn_smarts="[N:1]([C:2](=[O:3])[C:4](=[O:5])[N:6]([H:9])[H:10])([H:7])[H:8]>>[N:1]([C:2](=[O:3])/[C:4]([O:5][H:9])=[N:6]\[H:10])([H:7])[H:8]"
N       -1.69560744       0.09539372       0.34884240
C       -0.52158757       0.68452150       0.06613094
O       -0.32443482       1.86406415      -0.11243130
C        0.58569600      -0.32224429      -0.18131908
O        0.48876161      -1.57075600       0.10767114
N        1.82492546      -0.04395777      -0.41653641
H       -1.73520438      -0.90106187       0.47511952
H       -2.51580998       0.66559407       0.45116205
H        1.77669488      -1.38964389      -0.22547170
H        2.11656623       0.91809037      -0.51316755
10
Frame=5 idx=005432 GeodesicLength=0.18081493814058935 rxn_smarts="[N:1]([C:2](=[O:3])[C:4](=[O:5])[N:6]([H:9])[H:10])([H:7])[H:8]>>[N:1]([C:2](=[O:3])/[C:4]([O:5][H:9])=[N:6]\[H:10])([H:7])[H:8]"
N       -1.69423115       0.09676939       0.34954680
C       -0.51948091       0.68457748       0.06759083
O       -0.31817117       1.86294359      -0.11463958
C        0.58142315      -0.32610502      -0.19417159
O        0.48937601      -1.57055550       0.11362247
N        1.82189134      -0.04442023      -0.42428192
H       -1.73349921      -0.89949609       0.47760046
H       -2.51359362       0.66859093       0.44932412
H        1.78621333      -1.39615924      -0.22573534
H        2.10007223       0.92385469      -0.49885626
10
Frame=6 idx=005432 GeodesicLength=0.21705268746301648 rxn_smarts="[N:1]([C:2](=[O:3])[C:4](=[O:5])[N:6]([H:9])[H:10])([H:7])[H:8]>>[N:1]([C:2](=[O:3])/[C:4]([O:5][H:9])=[N:6]\[H:10])([H:7])[H:8]"
N       -1.69290136       0.09814654       0.35032687
C       -0.51744242       0.68466233       0.06909315
O       -0.31186507       1.86192487      -0.11606967
C        0.57738633      -0.32974156      -0.20557549
O        0.48991251      -1.57030542       0.11908962
N        1.81891376      -0.04473240      -0.43151894
H       -1.73213417      -0.89811630       0.47860279
H       -2.51136875       0.67160208       0.44787841
H        1.79607020      -1.40240250      -0.22509993
H        2.08342897       0.92896236      -0.48672681
10
Frame=7 idx=005432 GeodesicLength=0.25331787020433316 rxn_smarts="[N:1]([C:2](=[O:3])[C:4](=[O:5])[N:6]([H:9])[H:10])([H:7])[H:8]>>[N:1]([C:2](=[O:3])/[C:4]([O:5][H:9])=[N:6]\[H:10])([H:7])[H:8]"
N       -1.69163707       0.09951233       0.35106671
C       -0.51547498       0.68476970       0.07059512
O       -0.30558003       1.86097218      -0.11703836
C        0.57350021      -0.33319139      -0.21598099
O        0.49034206      -1.57003463       0.12398074
N        1.81596729      -0.04492800      -0.43840935
H       -1.73093231      -0.89682140       0.47897887
H       -2.50917093       0.67460706       0.44661316
H        1.80620014      -1.40841806      -0.22389130
H        2.06678561       0.93353221      -0.47591462
10
Frame=8 idx=005432 GeodesicLength=0.2895941828354629 rxn_smarts="[N:1]([C:2](=[O:3])[C:4](=[O:5])[N:6]([H:9])[H:10])([H:7])[H:8]>>[N:1]([C:2](=[O:3])/[C:4]([O:5][H:9])=[N:6]\[H:10])([H:7])[H:8]"
N       -1.69043620       0.10086458       0.35174628
C       -0.51353846       0.68489918       0.07226157
O       -0.29927115       1.86008557      -0.11735435
C        0.56972724      -0.33646852      -0.22558874
O        0.49060131      -1.56979671       0.12812341
N        1.81307424      -0.04502444      -0.44482879
H       -1.72979332      -0.89554667       0.47921739
H       -2.50707859       0.67755966       0.44506971
H        1.81658079      -1.41422750      -0.22212625
H        2.05013414       0.93765485      -0.46652024
10
Frame=9 idx=005432 GeodesicLength=0.32589988216560845 rxn_smarts="[N:1]([C:2](=[O:3])[C:4](=[O:5])[N:6]([H:9])[H:10])([H:7])[H:8]>>[N:1]([C:2](=[O:3])/[C:4]([O:5][H:9])=[N:6]\[H:10])([H:7])[H:8]"
N       -1.68934327       0.10217799       0.35212798
C       -0.51172304       0.68502886       0.07365141
O       -0.29312005       1.85920131      -0.11786888
C        0.56598845      -0.33961900      -0.23481329
O        0.49072175      -1.56957283       0.13157905
N        1.81015940      -0.04503161      -0.45116335
H       -1.72866793      -0.89427692       0.47946607
H       -2.50492608       0.68055304       0.44414393
H        1.82720778      -1.41980484      -0.21992523
H        2.03370300       0.94134400      -0.45719769
10
Frame=10 idx=005432 GeodesicLength=0.3622324038770449 rxn_smarts="[N:1]([C:2](=[O:3])[C:4](=[O:5])[N:6]([H:9])[H:10])([H:7])[H:8]>>[N:1]([C:2](=[O:3])/[C:4]([O:5][H:9])=[N:6]\[H:10])([H:7])[H:8]"
N       -1.68827263       0.10349994       0.35264317
C       -0.50995185       0.68517470       0.07510441
O       -0.28700025       1.85835646      -0.11805313
C        0.56227003      -0.34265114      -0.24362089
O        0.49073716      -1.56935406       0.13454343
N        1.80719951      -0.04498435      -0.45747295
H       -1.72762138      -0.89304306       0.47948442
H       -2.50283484       0.68352419       0.44314128
H        1.83808885      -1.42514409      -0.21720021
H        2.01738539       0.94462141      -0.44856952
10
Frame=11 idx=005432 GeodesicLength=0.39859469623536176 rxn_smarts="[N:1]([C:2](=[O:3])[C:4](=[O:5])[N:6]([H:9])[H:10])([H:7])[H:8]>>[N:1]([C:2](=[O:3])/[C:4]([O:5][H:9])=[N:6]\[H:10])([H:7])[H:8]"
N       -1.68724776       0.10481756       0.35317500
C       -0.50824681       0.68532804       0.07651832
O       -0.28092086       1.85754216      -0.11798330
C        0.55852441      -0.34558265      -0.25220147
O        0.49065341      -1.56913907       0.13698900
N        1.80414333      -0.04489117      -0.46397580
H       -1.72655660      -0.89179137       0.47970491
H       -2.50082125       0.68646381       0.44197541
H        1.84921501      -1.43021637      -0.21404311
H        2.00125711       0.94746906      -0.44015897
10
Frame=12 idx=005432 GeodesicLength=0.43498974042099864 rxn_smarts="[N:1]([C:2](=[O:3])[C:4](=[O:5])[N:6]([H:9])[H:10])([H:7])[H:8]>>[N:1]([C:2](=[O:3])/[C:4]([O:5][H:9])=[N:6]\[H:10])([H:7])[H:8]"
N       -1.68625427       0.10613826       0.35378703
C       -0.50658401       0.68548816       0.07797747
O       -0.27485609       1.85676036      -0.11757853
C        0.55475033      -0.34841953      -0.26056792
O        0.49045202      -1.56895342       0.13890281
N        1.80101264      -0.04476402      -0.47057263
H       -1.72552048      -0.89054530       0.47994103
H       -2.49887507       0.68937968       0.44066416
H        1.86060071      -1.43501088      -0.21032408
H        1.98527420       0.94992670      -0.43222936
10
Frame=13 idx=005432 GeodesicLength=0.4714209889624556 rxn_smarts="[N:1]([C:2](=[O:3])[C:4](=[O:5])[N:6]([H:9])[H:10])([H:7])[H:8]>>[N:1]([C:2](=[O:3])/[C:4]([O:5][H:9])=[N:6]\[H:10])([H:7])[H:8]"
N       -1.68530592       0.10745412       0.35440092
C       -0.50496891       0.68564785       0.07943996
O       -0.26881078       1.85600075      -0.11689765
C        0.55092595      -0.35117246      -0.26882086
O        0.49012465      -1.56880896       0.14024524
N        1.79779527      -0.04460912      -0.47731307
H       -1.72448459      -0.88928822       0.48031886
H       -2.49698234       0.69228055       0.43926657
H        1.87224756      -1.43950092      -0.20602348
H        1.96945912       0.95199641      -0.42461649
10
Frame=14 idx=005432 GeodesicLength=0.507883091289121 rxn_smarts="[N:1]([C:2](=[O:3])[C:4](=[O:5])[N:6]([H:9])[H:10])([H:7])[H:8]>>[N:1]([C:2](=[O:3])/[C:4]([O:5][H:9])=[N:6]\[H:10])([H:7])[H:8]"
N       -1.68445085       0.10873773       0.35476985
C       -0.50342066       0.68579123       0.08080615
O       -0.26281252       1.85524212      -0.11608621
C        0.54707335      -0.35384707      -0.27697321
O        0.48964584      -1.56873034       0.14099105
N        1.79454633      -0.04443292      -0.48401705
H       -1.72352674      -0.88806011       0.48048405
H       -2.49502639       0.69524067       0.43841661
H        1.88417955      -1.44366532      -0.20092865
H        1.95379211       0.95372400      -0.41746260
10
Frame=15 idx=005432 GeodesicLength=0.5443631556413808 rxn_smarts="[N:1]([C:2](=[O:3])[C:4](=[O:5])[N:6]([H:9])[H:10])([H:7])[H:8]>>[N:1]([C:2](=[O:3])/[C:4]([O:5][H:9])=[N:6]\[H:10])([H:7])[H:8]"
N       -1.68365709       0.11000433       0.35504629
C       -0.50191978       0.68592789       0.08216531
O       -0.25684740       1.85449041      -0.11508109
C        0.54319465      -0.35643236      -0.28499792
O        0.48901169      -1.56872865       0.14115064
N        1.79127456      -0.04424714      -0.49065212
H       -1.72264041      -0.88685887       0.48047345
H       -2.49305340       0.69822685       0.43787098
H        1.89636219      -1.44751865      -0.19511524
H        1.93827500       0.95513620      -0.41086030
10
Frame=16 idx=005432 GeodesicLength=0.580851405226489 rxn_smarts="[N:1]([C:2](=[O:3])[C:4](=[O:5])[N:6]([H:9])[H:10])([H:7])[H:8]>>[N:1]([C:2](=[O:3])/[C:4]([O:5][H:9])=[N:6]\[H:10])([H:7])[H:8]"
N       -1.68292872       0.11124898       0.35519837
C       -0.50046331       0.68605490       0.08352000
O       -0.25091754       1.85374089      -0.11389985
C        0.53929750      -0.35892621      -0.29290154
O        0.48820828      -1.56881949       0.14071128
N        1.78800309      -0.04406472      -0.49715508
H       -1.72184885      -0.88569780       0.48018443
H       -2.49104000       0.70125018       0.43775804
H        1.90878468      -1.45105650      -0.18851786
H        1.92290485       0.95626977      -0.40489780
