17
Frame=0 idx=006436 GeodesicLength=0.0 rxn_smarts="[C:1]([C@@:2]12[C:3]([H:11])([H:12])[C@@:4]3([H:13])[C@@:5]([H:14])([C:6]1([H:15])[H:16])[C@@:7]23[H:17])([H:8])([H:9])[H:10]>>[C:1](=[C:2]1[C:6]([H:15])([H:16])[C:5]([C:4](=[C:3]([H:11])[H:12])[H:13])([H:14])[C:7]1([H:10])[H:17])([H:8])[H:9]"
C        1.61977605      -1.14319443      -0.15031994
C        0.34160538      -0.50563349       0.12212567
C       -1.18826586      -0.90797006       0.03762823
C       -1.53411412       0.49612907      -0.32037962
C       -0.52473924       1.40080931       0.20269594
C        0.24584446       0.58982525       1.23175542
C        0.34089416       0.63417283      -0.87924009
H        2.17299203      -1.68432440       0.61600550
H        1.72423724      -1.55838014      -1.15012623
H        1.64412293       0.48651429      -0.70566965
H       -1.57319506      -1.27244270       0.99114612
H       -1.43002396      -1.62054060      -0.75303185
H       -2.21459091       0.78582076      -1.11012121
H       -0.66243221       2.47572725       0.19847882
H       -0.27249435       0.31821372       2.15249872
H        1.22321783       1.01591733       1.44624154
H        0.08716567       0.48935605      -1.92968736
17
Frame=1 idx=006436 GeodesicLength=0.11632276002386797 rxn_smarts="[C:1]([C@@:2]12[C:3]([H:11])([H:12])[C@@:4]3([H:13])[C@@:5]([H:14])([C:6]1([H:15])[H:16])[C@@:7]23[H:17])([H:8])([H:9])[H:10]>>[C:1](=[C:2]1[C:6]([H:15])([H:16])[C:5]([C:4](=[C:3]([H:11])[H:12])[H:13])([H:14])[C:7]1([H:10])[H:17])([H:8])[H:9]"
C        1.63644713      -1.13475544      -0.15002663
C        0.35594854      -0.50572492       0.12182156
C       -1.20958725      -0.90840265       0.03632079
C       -1.53876911       0.49444582      -0.32485744
C       -0.52394838       1.39488959       0.20292582
C        0.24956418       0.58597372       1.23208506
C        0.33641886       0.63586989      -0.88225535
H        2.18782523      -1.66866224       0.62260911
H        1.74106187      -1.56600607      -1.14299858
H        1.65917952       0.48352261      -0.72536292
H       -1.59247728      -1.26612230       0.99326358
H       -1.46273554      -1.62230092      -0.74933404
H       -2.22324357       0.79280797      -1.10781771
H       -0.65756396       2.47015345       0.19998933
H       -0.26778731       0.29913083       2.14881927
H        1.21971652       1.02219605       1.45906754
H        0.08995054       0.49298461      -1.93424939
17
Frame=2 idx=006436 GeodesicLength=0.2325605887842938 rxn_smarts="[C:1]([C@@:2]12[C:3]([H:11])([H:12])[C@@:4]3([H:13])[C@@:5]([H:14])([C:6]1([H:15])[H:16])[C@@:7]23[H:17])([H:8])([H:9])[H:10]>>[C:1](=[C:2]1[C:6]([H:15])([H:16])[C:5]([C:4](=[C:3]([H:11])[H:12])[H:13])([H:14])[C:7]1([H:10])[H:17])([H:8])[H:9]"
C        1.65368999      -1.12598875      -0.14982323
C        0.37081555      -0.50574542       0.12140360
C       -1.23165804      -0.90874801       0.03506613
C       -1.54343761       0.49275320      -0.32949727
C       -0.52308906       1.38873987       0.20310329
C        0.25323140       0.58185803       1.23240377
C        0.33190990       0.63732366      -0.88533920
H        2.20329891      -1.65239448       0.62915187
H        1.75854503      -1.57363574      -1.13549993
H        1.67446664       0.48038021      -0.74563606
H       -1.61209469      -1.25948110       0.99561334
H       -1.49658860      -1.62378483      -0.74541559
H       -2.23192725       0.80009575      -1.10537069
H       -0.65257001       2.46434567       0.20151426
H       -0.26308918       0.27959609       2.14482564
H        1.21572000       1.02822876       1.47235571
H        0.09277700       0.49645709      -1.93885566
17
Frame=3 idx=006436 GeodesicLength=0.34875426056536296 rxn_smarts="[C:1]([C@@:2]12[C:3]([H:11])([H:12])[C@@:4]3([H:13])[C@@:5]([H:14])([C:6]1([H:15])[H:16])[C@@:7]23[H:17])([H:8])([H:9])[H:10]>>[C:1](=[C:2]1[C:6]([H:15])([H:16])[C:5]([C:4](=[C:3]([H:11])[H:12])[H:13])([H:14])[C:7]1([H:10])[H:17])([H:8])[H:9]"
C        1.67154206      -1.11687058      -0.14971536
C        0.38624433      -0.50568582       0.12086694
C       -1.25453475      -0.90898811       0.03387343
C       -1.54812152       0.49104532      -0.33430778
C       -0.52215750       1.38233953       0.20322233
C        0.25684223       0.57745435       1.23270952
C        0.32736444       0.63850842      -0.88849727
H        2.21946382      -1.63546766       0.63562948
H        1.77674327      -1.58124586      -1.12760697
H        1.69000090       0.47707630      -0.76651518
H       -1.63207873      -1.25249413       0.99820473
H       -1.53166864      -1.62495671      -0.74125405
H       -2.24063751       0.80770117      -1.10276788
H       -0.64743780       2.45828380       0.20304757
H       -0.25840475       0.25956951       2.14049588
H        1.21119400       1.03398344       1.48612476
H        0.09564613       0.49974702      -1.94351013
17
Frame=4 idx=006436 GeodesicLength=0.46492521678588855 rxn_smarts="[C:1]([C@@:2]12[C:3]([H:11])([H:12])[C@@:4]3([H:13])[C@@:5]([H:14])([C:6]1([H:15])[H:16])[C@@:7]23[H:17])([H:8])([H:9])[H:10]>>[C:1](=[C:2]1[C:6]([H:15])([H:16])[C:5]([C:4](=[C:3]([H:11])[H:12])[H:13])([H:14])[C:7]1([H:10])[H:17])([H:8])[H:9]"
C        1.69004574      -1.10737102      -0.14970784
C        0.40227256      -0.50553908       0.12020464
C       -1.27827515      -0.90910206       0.03275349
C       -1.55282334       0.48931578      -0.33929939
C       -0.52114881       1.37566511       0.20327602
C        0.26039238       0.57273350       1.23299900
C        0.32277996       0.63939436      -0.89173609
H        2.23637469      -1.61781542       0.64203846
H        1.79572217      -1.58880842      -1.11929315
H        1.70579592       0.47359716      -0.78803112
H       -1.65246575      -1.24513126       1.00104792
H       -1.56807114      -1.62577503      -0.73682251
H       -2.24936763       0.81564413      -1.09999435
H       -0.64215133       2.45194477       0.20458272
H       -0.25373897       0.23900517       2.13580474
H        1.20609972       1.03941858       1.50039523
H        0.09855898       0.50282373      -1.94821776
17
Frame=5 idx=006436 GeodesicLength=0.5810902135985648 rxn_smarts="[C:1]([C@@:2]12[C:3]([H:11])([H:12])[C@@:4]3([H:13])[C@@:5]([H:14])([C:6]1([H:15])[H:16])[C@@:7]23[H:17])([H:8])([H:9])[H:10]>>[C:1](=[C:2]1[C:6]([H:15])([H:16])[C:5]([C:4](=[C:3]([H:11])[H:12])[H:13])([H:14])[C:7]1([H:10])[H:17])([H:8])[H:9]"
C        1.70924338      -1.09745772      -0.14980703
C        0.41893907      -0.50529693       0.11941200
C       -1.30294270      -0.90906291       0.03172048
C       -1.55754749       0.48755742      -0.34448185
C       -0.52005922       1.36869134       0.20325677
C        0.26387753       0.56766613       1.23326840
C        0.31815096       0.63994693      -0.89506308
H        2.25408444      -1.59938364       0.64838121
H        1.81555232      -1.59628548      -1.11053478
H        1.72186892       0.46993245      -0.81020892
H       -1.67328913      -1.23736694       1.00415492
H       -1.60588822      -1.62618941      -0.73209340
H       -2.25811251       0.82394411      -1.09703763
H       -0.63669500       2.44530412       0.20611143
H       -0.24909555       0.21785631       2.13072484
H        1.20039850       1.04449153       1.51518091
H        0.10151470       0.50565270      -1.95298428
17
Frame=6 idx=006436 GeodesicLength=0.697280177965805 rxn_smarts="[C:1]([C@@:2]12[C:3]([H:11])([H:12])[C@@:4]3([H:13])[C@@:5]([H:14])([C:6]1([H:15])[H:16])[C@@:7]23[H:17])([H:8])([H:9])[H:10]>>[C:1](=[C:2]1[C:6]([H:15])([H:16])[C:5]([C:4](=[C:3]([H:11])[H:12])[H:13])([H:14])[C:7]1([H:10])[H:17])([H:8])[H:9]"
C        1.72918730      -1.08709178      -0.15001734
C        0.43629020      -0.50495000       0.11848071
C       -1.32861050      -0.90884300       0.03078845
C       -1.56229629       0.48575960      -0.34986832
C       -0.51888337       1.36138763       0.20315596
C        0.26729205       0.56221445       1.23351320
C        0.31347554       0.64012835      -0.89848558
H        2.27266151      -1.58008334       0.65465183
H        1.83631405      -1.60364497      -1.10129694
H        1.73823477       0.46606564      -0.83308696
H       -1.69459143      -1.22916370       1.00753643
H       -1.64524358      -1.62613950      -0.72703200
H       -2.26685999       0.83262360      -1.09388077
H       -0.63105058       2.43833085       0.20762558
H       -0.24447845       0.19606076       2.12522307
H        1.19404268       1.04915136       1.53050819
H        0.10451610       0.50819406      -1.95781551
17
Frame=7 idx=006436 GeodesicLength=0.8135079440050521 rxn_smarts="[C:1]([C@@:2]12[C:3]([H:11])([H:12])[C@@:4]3([H:13])[C@@:5]([H:14])([C:6]1([H:15])[H:16])[C@@:7]23[H:17])([H:8])([H:9])[H:10]>>[C:1](=[C:2]1[C:6]([H:15])([H:16])[C:5]([C:4](=[C:3]([H:11])[H:12])[H:13])([H:14])[C:7]1([H:10])[H:17])([H:8])[H:9]"
C        1.74993088      -1.07623034      -0.15034508
C        0.45437300      -0.50448867       0.11740372
C       -1.35535338      -0.90840842       0.02997388
C       -1.56707411       0.48391126      -0.35547191
C       -0.51761613       1.35372047       0.20296399
C        0.27062937       0.55633764       1.23372832
C        0.30874920       0.63989406      -0.90201158
H        2.29217585      -1.55982715       0.66084827
H        1.85809829      -1.61084259      -1.09154610
H        1.75490882       0.46198006      -0.85670208
H       -1.71641650      -1.22048539       1.01120697
H       -1.68626504      -1.62555517      -0.72159965
H       -2.27559680       0.84170521      -1.09050903
H       -0.62519670       2.43099266       0.20911565
H       -0.23989291       0.17355387       2.11926286
H        1.18698170       1.05333958       1.54639942
H        0.10756447       0.51040292      -1.96271764
17
Frame=8 idx=006436 GeodesicLength=0.9297814665728753 rxn_smarts="[C:1]([C@@:2]12[C:3]([H:11])([H:12])[C@@:4]3([H:13])[C@@:5]([H:14])([C:6]1([H:15])[H:16])[C@@:7]23[H:17])([H:8])([H:9])[H:10]>>[C:1](=[C:2]1[C:6]([H:15])([H:16])[C:5]([C:4](=[C:3]([H:11])[H:12])[H:13])([H:14])[C:7]1([H:10])[H:17])([H:8])[H:9]"
C        1.77153194      -1.06482359      -0.15079708
C        0.47323618      -0.50390537       0.11617022
C       -1.38325601      -0.90771813       0.02930148
C       -1.57188653       0.48199911      -0.36130622
C       -0.51625264       1.34565096       0.20267027
C        0.27388220       0.54998733       1.23390702
C        0.30396675       0.63919410      -0.90565006
H        2.31270077      -1.53850994       0.66696603
H        1.88100915      -1.61782789      -1.08124238
H        1.77190584       0.45765447      -0.88109587
H       -1.73881680      -1.21128040       1.01518313
H       -1.72908032      -1.62435360      -0.71575213
H       -2.28430637       0.85121238      -1.08690729
H       -0.61911092       2.42325041       0.21057120
H       -0.23534284       0.15025790       2.11280067
H        1.17915917       1.05698367       1.56287915
H        0.11066042       0.51222860      -1.96769815
17
Frame=9 idx=006436 GeodesicLength=1.0463895893232575 rxn_smarts="[C:1]([C@@:2]12[C:3]([H:11])([H:12])[C@@:4]3([H:13])[C@@:5]([H:14])([C:6]1([H:15])[H:16])[C@@:7]23[H:17])([H:8])([H:9])[H:10]>>[C:1](=[C:2]1[C:6]([H:15])([H:16])[C:5]([C:4](=[C:3]([H:11])[H:12])[H:13])([H:14])[C:7]1([H:10])[H:17])([H:8])[H:9]"
C        1.79414955      -1.05271753      -0.15136454
C        0.49300283      -0.50319319       0.11479106
C       -1.41254215      -0.90665693       0.02881420
C       -1.57674320       0.48000686      -0.36739937
C       -0.51475737       1.33708050       0.20225526
C        0.27703127       0.54302266       1.23403299
C        0.29910918       0.63787068      -0.90942863
H        2.33444048      -1.51581228       0.67302509
H        1.90527146      -1.62446756      -1.07029022
H        1.78921193       0.45304789      -0.90639143
H       -1.76192993      -1.20145598       1.01949614
H       -1.77398743      -1.62230902      -0.70942716
H       -2.29294880       0.86123874      -1.08302417
H       -0.61268535       2.41500925       0.21197282
H       -0.23085203       0.12595620       2.10573708
H        1.17045567       1.05990406       1.57997518
H        0.11377388       0.51347566      -1.97277430
17
Frame=10 idx=006436 GeodesicLength=1.163041769932602 rxn_smarts="[C:1]([C@@:2]12[C:3]([H:11])([H:12])[C@@:4]3([H:13])[C@@:5]([H:14])([C:6]1([H:15])[H:16])[C@@:7]23[H:17])([H:8])([H:9])[H:10]>>[C:1](=[C:2]1[C:6]([H:15])([H:16])[C:5]([C:4](=[C:3]([H:11])[H:12])[H:13])([H:14])[C:7]1([H:10])[H:17])([H:8])[H:9]"
C        1.81775968      -1.03993210      -0.15206382
C        0.51366352      -0.50234283       0.11323684
C       -1.44318723      -0.90522580       0.02852082
C       -1.58164977       0.47791621      -0.37375633
C       -0.51314940       1.32800569       0.20171112
C        0.28007629       0.53545188       1.23410260
C        0.29418006       0.63593836      -0.91334290
H        2.35737378      -1.49175445       0.67900378
H        1.93091880      -1.63075160      -1.05868540
H        1.80686641       0.44814305      -0.93256326
H       -1.78573736      -1.19099194       1.02415347
H       -1.82102090      -1.61941115      -0.70257594
H       -2.30151403       0.87175469      -1.07886764
H       -0.60595704       2.40626178       0.21330999
H       -0.22640556       0.10065731       2.09805338
H        1.16085067       1.06208863       1.59771158
H        0.11693206       0.51419227      -1.97794829
17
Frame=11 idx=006436 GeodesicLength=1.2797222467085232 rxn_smarts="[C:1]([C@@:2]12[C:3]([H:11])([H:12])[C@@:4]3([H:13])[C@@:5]([H:14])([C:6]1([H:15])[H:16])[C@@:7]23[H:17])([H:8])([H:9])[H:10]>>[C:1](=[C:2]1[C:6]([H:15])([H:16])[C:5]([C:4](=[C:3]([H:11])[H:12])[H:13])([H:14])[C:7]1([H:10])[H:17])([H:8])[H:9]"
C        1.84242803      -1.02639806      -0.15289835
C        0.53527505      -0.50134231       0.11149643
C       -1.47529260      -0.90336489       0.02844747
C       -1.58661646       0.47570718      -0.38039500
C       -0.51142127       1.31837273       0.20102385
C        0.28300730       0.52720241       1.23410272
C        0.28917135       0.63332445      -0.91740735
H        2.38159519      -1.46617711       0.68490468
H        1.95808521      -1.63660458      -1.04637366
H        1.82488714       0.44290933      -0.95965935
H       -1.81030546      -1.17981961       1.02917445
H       -1.87034682      -1.61554133      -0.69513733
H       -2.30997507       0.88279173      -1.07441149
H       -0.59889139       2.39695455       0.21457009
H       -0.22200296       0.07424908       2.08968274
H        1.15026858       1.06343164       1.61611227
H        0.12013417       0.51430479      -1.98323219
17
Frame=12 idx=006436 GeodesicLength=1.396424057422336 rxn_smarts="[C:1]([C@@:2]12[C:3]([H:11])([H:12])[C@@:4]3([H:13])[C@@:5]([H:14])([C:6]1([H:15])[H:16])[C@@:7]23[H:17])([H:8])([H:9])[H:10]>>[C:1](=[C:2]1[C:6]([H:15])([H:16])[C:5]([C:4](=[C:3]([H:11])[H:12])[H:13])([H:14])[C:7]1([H:10])[H:17])([H:8])[H:9]"
C        1.86823385      -1.01202339      -0.15387142
C        0.55790139      -0.50018696       0.10955807
C       -1.50898169      -0.90099365       0.02862835
C       -1.59165563       0.47335968      -0.38733228
C       -0.50956095       1.30811526       0.20017691
C        0.28581118       0.51818260       1.23401906
C        0.28407111       0.62993186      -0.92163702
H        2.40721401      -1.43886763       0.69072887
H        1.98693790      -1.64192707      -1.03328778
H        1.84328387       0.43730571      -0.98773978
H       -1.83570850      -1.16786379       1.03458485
H       -1.92216077      -1.61054008      -0.68703809
H       -2.31829492       0.89439033      -1.06963528
H       -0.59143651       2.38702062       0.21573577
H       -0.21764843       0.04659125       2.08054317
H        1.13862068       1.06379360       1.63520441
H        0.12337342       0.51371166      -1.98863781
17
Frame=13 idx=006436 GeodesicLength=1.5131221157784955 rxn_smarts="[C:1]([C@@:2]12[C:3]([H:11])([H:12])[C@@:4]3([H:13])[C@@:5]([H:14])([C:6]1([H:15])[H:16])[C@@:7]23[H:17])([H:8])([H:9])[H:10]>>[C:1](=[C:2]1[C:6]([H:15])([H:16])[C:5]([C:4](=[C:3]([H:11])[H:12])[H:13])([H:14])[C:7]1([H:10])[H:17])([H:8])[H:9]"
C        1.89525401      -0.99671725      -0.15498727
C        0.58160860      -0.49886268       0.10741018
C       -1.54437495      -0.89802744       0.02910521
C       -1.59678317       0.47084561      -0.39458673
C       -0.50756176       1.29716200       0.19915232
C        0.28847301       0.50829733       1.23383490
C        0.27886601       0.62566126      -0.92604834
H        2.43433560      -1.40963073       0.69648047
H        2.01765014      -1.64660191      -1.01936849
H        1.86207609       0.43129127      -1.01685517
H       -1.86202029      -1.15504179       1.04041586
H       -1.97666015      -1.60422600      -0.67819436
H       -2.32643023       0.90657803      -1.06452254
H       -0.58354961       2.37638819       0.21678719
H       -0.21334316       0.01753946       2.07054317
H        1.12581372       1.06303256       1.65501265
H        0.12664614       0.51231209      -1.99417906
17
Frame=14 idx=006436 GeodesicLength=1.629804064134992 rxn_smarts="[C:1]([C@@:2]12[C:3]([H:11])([H:12])[C@@:4]3([H:13])[C@@:5]([H:14])([C:6]1([H:15])[H:16])[C@@:7]23[H:17])([H:8])([H:9])[H:10]>>[C:1](=[C:2]1[C:6]([H:15])([H:16])[C:5]([C:4](=[C:3]([H:11])[H:12])[H:13])([H:14])[C:7]1([H:10])[H:17])([H:8])[H:9]"
C        1.92358466      -0.98035025      -0.15624855
C        0.60647267      -0.49736820       0.10503503
C       -1.58162184      -0.89435578       0.02992555
C       -1.60201604       0.46813442      -0.40217878
C       -0.50540830       1.28542298       0.19792871
C        0.29097415       0.49741869       1.23353019
C        0.27354161       0.62038269      -0.93065919
H        2.46308400      -1.37816478       0.70215286
H        2.05044021      -1.65050145      -1.00451872
H        1.88126386       0.42481077      -1.04708757
H       -1.88932855      -1.14124681       1.04670080
H       -2.03408973      -1.59637290      -0.66850595
H       -2.33431442       0.91940020      -1.05904912
H       -0.57516226       2.36496498       0.21770253
H       -0.20909281      -0.01309698       2.05956666
H        1.11172984       1.06095263       1.67557616
H        0.12994294       0.50996978      -1.99987060
17
Frame=15 idx=006436 GeodesicLength=1.7464554706682442 rxn_smarts="[C:1]([C@@:2]12[C:3]([H:11])([H:12])[C@@:4]3([H:13])[C@@:5]([H:14])([C:6]1([H:15])[H:16])[C@@:7]23[H:17])([H:8])([H:9])[H:10]>>[C:1](=[C:2]1[C:6]([H:15])([H:16])[C:5]([C:4](=[C:3]([H:11])[H:12])[H:13])([H:14])[C:7]1([H:10])[H:17])([H:8])[H:9]"
C        1.95332407      -0.96278056      -0.15766036
C        0.63257561      -0.49569080       0.10241740
C       -1.62088234      -0.88984993       0.03114845
C       -1.60737640       0.46518980      -0.41012734
C       -0.50308805       1.27279906       0.19648382
C        0.29329322       0.48540606       1.23308108
C        0.26807867       0.61395222      -0.93548897
H        2.49358339      -1.34416526       0.70774249
H        2.08553908      -1.65346700      -0.98864230
H        1.90085520       0.41779929      -1.07851263
H       -1.91772212      -1.12636544       1.05348252
H       -2.09469656      -1.58672038      -0.65785794
H       -2.34187121       0.93289352      -1.05320570
H       -0.56620497       2.35264976       0.21845818
H       -0.20489985      -0.04552936       2.04747839
H        1.09624052       1.05734318       1.69693166
H        0.13325175       0.50653581      -2.00572873
17
Frame=16 idx=006436 GeodesicLength=1.8630503872670008 rxn_smarts="[C:1]([C@@:2]12[C:3]([H:11])([H:12])[C@@:4]3([H:13])[C@@:5]([H:14])([C:6]1([H:15])[H:16])[C@@:7]23[H:17])([H:8])([H:9])[H:10]>>[C:1](=[C:2]1[C:6]([H:15])([H:16])[C:5]([C:4](=[C:3]([H:11])[H:12])[H:13])([H:14])[C:7]1([H:10])[H:17])([H:8])[H:9]"
C        1.98457831      -0.94383472      -0.15922800
C        0.66000391      -0.49382463       0.09954091
C       -1.66232867      -0.88435530       0.03284346
C       -1.61289242       0.46197170      -0.41844854
C       -0.50058422       1.25917305       0.19479334
C        0.29540535       0.47208892       1.23246000
C        0.26245221       0.60619362      -0.94055789
H        2.52596466      -1.30724547       0.71324080
H        2.12321850      -1.65530497      -0.97161891
H        1.92085037       0.41017210      -1.11121932
H       -1.94730041      -1.11026214       1.06081259
H       -2.15875688      -1.57494745      -0.64611827
H       -2.34900456       0.94709726      -1.04698994
H       -0.55658892       2.33932168       0.21902676
H       -0.20076855      -0.08000938       2.03411406
H        1.07919831       1.05193744       1.71911883
H        0.13655300       0.50182829      -2.01176988
