12
Frame=0 idx=003724 GeodesicLength=0.0 rxn_smarts="[C:1]([C:2]#[C:3][C:4](=[O:5])[C:6]([H:10])([H:11])[H:12])([H:7])([H:8])[H:9]>>[C:1](=[C:2]=[C:3]=[C:4]([O:5][H:8])[C:6]([H:10])([H:11])[H:12])([H:7])[H:9]"
C       -2.24789483       0.07202202      -0.51022117
C       -1.33047061       0.81367448       0.16717216
C       -0.20071847       1.03559028       0.68315157
C        0.64632915      -0.07431946       0.20726297
O        0.16204250      -1.08803216      -0.34844664
C        2.11805616      -0.00186124       0.38735064
H       -2.61669189       0.41340897      -1.47278036
H       -1.00331245      -0.78109321      -0.55968605
H       -2.94504957      -0.52377233       0.07368505
H        2.46083648       0.96689703       0.01943846
H        2.32285224      -0.01090787       1.46016408
H        2.63402132      -0.82160651      -0.10709072
12
Frame=1 idx=003724 GeodesicLength=0.09627497364919504 rxn_smarts="[C:1]([C:2]#[C:3][C:4](=[O:5])[C:6]([H:10])([H:11])[H:12])([H:7])([H:8])[H:9]>>[C:1](=[C:2]=[C:3]=[C:4]([O:5][H:8])[C:6]([H:10])([H:11])[H:12])([H:7])[H:9]"
C       -2.25462146       0.07787148      -0.51832052
C       -1.33485366       0.81300959       0.16727205
C       -0.20363280       1.00640529       0.68916707
C        0.65278242      -0.09595943       0.22738307
O        0.17473653      -1.11273922      -0.33262478
C        2.12552965       0.00557441       0.38701860
H       -2.61960950       0.44032042      -1.47492141
H       -1.01253776      -0.81121675      -0.56386246
H       -2.97156860      -0.49769000       0.06186421
H        2.44845334       0.97692909       0.00837364
H        2.34503993       0.00559625       1.45701022
H        2.65028192      -0.80810112      -0.10835969
12
Frame=2 idx=003724 GeodesicLength=0.19249200036137176 rxn_smarts="[C:1]([C:2]#[C:3][C:4](=[O:5])[C:6]([H:10])([H:11])[H:12])([H:7])([H:8])[H:9]>>[C:1](=[C:2]=[C:3]=[C:4]([O:5][H:8])[C:6]([H:10])([H:11])[H:12])([H:7])[H:9]"
C       -2.26130049       0.08364414      -0.52585856
C       -1.33906529       0.81255567       0.16739897
C       -0.20630480       0.97744308       0.69348801
C        0.65975377      -0.11713598       0.24626164
O        0.18816363      -1.13704736      -0.31808817
C        2.13261308       0.01291390       0.38697298
H       -2.62299814       0.46699592      -1.47587000
H       -1.02206747      -0.84179796      -0.56854716
H       -2.99693707      -0.47146485       0.05083736
H        2.43624511       0.98640311      -0.00178777
H        2.36549698       0.02211551       1.45415554
H        2.66640068      -0.79462520      -0.10896284
12
Frame=3 idx=003724 GeodesicLength=0.28866512151034474 rxn_smarts="[C:1]([C:2]#[C:3][C:4](=[O:5])[C:6]([H:10])([H:11])[H:12])([H:7])([H:8])[H:9]>>[C:1](=[C:2]=[C:3]=[C:4]([O:5][H:8])[C:6]([H:10])([H:11])[H:12])([H:7])[H:9]"
C       -2.26775880       0.08955330      -0.53314552
C       -1.34319023       0.81210249       0.16807908
C       -0.20896833       0.94813545       0.69711900
C        0.66708505      -0.13824711       0.26468896
O        0.20212416      -1.16146232      -0.30381103
C        2.13928381       0.02030190       0.38690847
H       -2.62580932       0.49387272      -1.47618841
H       -1.03201053      -0.87308900      -0.57327773
H       -3.02158398      -0.44480329       0.03968376
H        2.42359693       0.99550645      -0.01182353
H        2.38495177       0.03908856       1.45116776
H        2.68227947      -0.78095915      -0.10940080
12
Frame=4 idx=003724 GeodesicLength=0.3847473607961759 rxn_smarts="[C:1]([C:2]#[C:3][C:4](=[O:5])[C:6]([H:10])([H:11])[H:12])([H:7])([H:8])[H:9]>>[C:1](=[C:2]=[C:3]=[C:4]([O:5][H:8])[C:6]([H:10])([H:11])[H:12])([H:7])[H:9]"
C       -2.27411527       0.09554518      -0.53998483
C       -1.34723671       0.81179847       0.16905965
C       -0.21147200       0.91881453       0.69935939
C        0.67487082      -0.15904618       0.28216320
O        0.21674164      -1.18574565      -0.29030581
C        2.14556597       0.02765419       0.38700676
H       -2.62858859       0.52068964      -1.47552839
H       -1.04237500      -0.90493491      -0.57841222
H       -3.04523442      -0.41794036       0.02896685
H        2.41091377       1.00412806      -0.02133559
H        2.40295069       0.05629025       1.44831526
H        2.69797912      -0.76725323      -0.10930428
12
Frame=5 idx=003724 GeodesicLength=0.48084672598165723 rxn_smarts="[C:1]([C:2]#[C:3][C:4](=[O:5])[C:6]([H:10])([H:11])[H:12])([H:7])([H:8])[H:9]>>[C:1](=[C:2]=[C:3]=[C:4]([O:5][H:8])[C:6]([H:10])([H:11])[H:12])([H:7])[H:9]"
C       -2.28020914       0.10182980      -0.54669053
C       -1.35130278       0.81137519       0.17101194
C       -0.21408703       0.88886276       0.70136766
C        0.68292758      -0.17997013       0.29960302
O        0.23182502      -1.21040630      -0.27647834
C        2.15144425       0.03512519       0.38692732
H       -2.63021413       0.54796347      -1.47453642
H       -1.05325689      -0.93758080      -0.58348919
H       -3.06838956      -0.39058552       0.01761400
H        2.39751258       1.01244050      -0.03118050
H        2.42032477       0.07419453       1.44513008
H        2.71342535      -0.75324870      -0.10927906
12
Frame=6 idx=003724 GeodesicLength=0.5768640867466108 rxn_smarts="[C:1]([C:2]#[C:3][C:4](=[O:5])[C:6]([H:10])([H:11])[H:12])([H:7])([H:8])[H:9]>>[C:1](=[C:2]=[C:3]=[C:4]([O:5][H:8])[C:6]([H:10])([H:11])[H:12])([H:7])[H:9]"
C       -2.28623130       0.10828324      -0.55292947
C       -1.35535850       0.81112096       0.17337814
C       -0.21654451       0.85888122       0.70189838
C        0.69141614      -0.20059803       0.31614418
O        0.24757707      -1.23501521      -0.26325893
C        2.15696071       0.04256406       0.38700468
H       -2.63172542       0.57520502      -1.47259135
H       -1.06464205      -0.97075866      -0.58912353
H       -3.09055668      -0.36311361       0.00667905
H        2.38411010       1.02024495      -0.04064348
H        2.43627761       0.09240958       1.44209574
H        2.72871681      -0.73922353      -0.10865339
12
Frame=7 idx=003724 GeodesicLength=0.6728595704135492 rxn_smarts="[C:1]([C:2]#[C:3][C:4](=[O:5])[C:6]([H:10])([H:11])[H:12])([H:7])([H:8])[H:9]>>[C:1](=[C:2]=[C:3]=[C:4]([O:5][H:8])[C:6]([H:10])([H:11])[H:12])([H:7])[H:9]"
C       -2.29211667       0.11502375      -0.55884206
C       -1.35946061       0.81089837       0.17651040
C       -0.21897576       0.82856553       0.70148059
C        0.70024623      -0.22114536       0.33225692
O        0.26392994      -1.25982993      -0.25009579
C        2.16211152       0.05004240       0.38707708
H       -2.63260288       0.60269060      -1.46998304
H       -1.07657361      -1.00455290      -0.59520080
H       -3.11197123      -0.33542611      -0.00433859
H        2.37038313       1.02760341      -0.05016730
H        2.45120452       0.11118455       1.43899449
H        2.74382544      -0.72505432      -0.10769189
12
Frame=8 idx=003724 GeodesicLength=0.768791244580407 rxn_smarts="[C:1]([C:2]#[C:3][C:4](=[O:5])[C:6]([H:10])([H:11])[H:12])([H:7])([H:8])[H:9]>>[C:1](=[C:2]=[C:3]=[C:4]([O:5][H:8])[C:6]([H:10])([H:11])[H:12])([H:7])[H:9]"
C       -2.29799733       0.12201109      -0.56424634
C       -1.36359197       0.81088097       0.18011770
C       -0.22123718       0.79822116       0.69940900
C        0.70947988      -0.24142051       0.34753685
O        0.28098342      -1.28466764      -0.23739625
C        2.16694324       0.05748397       0.38733028
H       -2.63342374       0.63018253      -1.46640642
H       -1.08905478      -1.03881494      -0.60212652
H       -3.13240954      -0.30774273      -0.01486979
H        2.35673898       1.03440469      -0.05945558
H        2.46473080       0.13036974       1.43609553
H        2.75883820      -0.71090834      -0.10598846
12
Frame=9 idx=003724 GeodesicLength=0.8648862699710755 rxn_smarts="[C:1]([C:2]#[C:3][C:4](=[O:5])[C:6]([H:10])([H:11])[H:12])([H:7])([H:8])[H:9]>>[C:1](=[C:2]=[C:3]=[C:4]([O:5][H:8])[C:6]([H:10])([H:11])[H:12])([H:7])[H:9]"
C       -2.30377738       0.12937171      -0.56931783
C       -1.36782170       0.81078492       0.18481861
C       -0.22353494       0.76746760       0.69633045
C        0.71898997      -0.26170529       0.36267953
O        0.29869430      -1.30987282      -0.22435659
C        2.17145276       0.06497426       0.38754918
H       -2.63353198       0.65816991      -1.46218595
H       -1.10215669      -1.07356732      -0.60993245
H       -3.15220828      -0.28000852      -0.02564374
H        2.34273982       1.04065755      -0.06914931
H        2.47738883       0.15037945       1.43305660
H        2.77376529      -0.69665145      -0.10384850
12
Frame=10 idx=003724 GeodesicLength=0.9609489692340284 rxn_smarts="[C:1]([C:2]#[C:3][C:4](=[O:5])[C:6]([H:10])([H:11])[H:12])([H:7])([H:8])[H:9]>>[C:1](=[C:2]=[C:3]=[C:4]([O:5][H:8])[C:6]([H:10])([H:11])[H:12])([H:7])[H:9]"
C       -2.30966308       0.13703423      -0.57380855
C       -1.37209231       0.81091531       0.18997313
C       -0.22561675       0.73676409       0.69119340
C        0.72889490      -0.28168140       0.37698722
O        0.31719832      -1.33514562      -0.21166455
C        2.17570892       0.07239776       0.38802033
H       -2.63387771       0.68620420      -1.45685096
H       -1.11579561      -1.10865490      -0.61911664
H       -3.17104512      -0.25245123      -0.03567829
H        2.32903260       1.04621871      -0.07873406
H        2.48855609       0.17092611       1.43032339
H        2.78869975      -0.68252725      -0.10064439
12
Frame=11 idx=003724 GeodesicLength=1.0569919514137391 rxn_smarts="[C:1]([C:2]#[C:3][C:4](=[O:5])[C:6]([H:10])([H:11])[H:12])([H:7])([H:8])[H:9]>>[C:1](=[C:2]=[C:3]=[C:4]([O:5][H:8])[C:6]([H:10])([H:11])[H:12])([H:7])[H:9]"
C       -2.31563165       0.14507088      -0.57778518
C       -1.37644726       0.81111687       0.19587076
C       -0.22756978       0.70594429       0.68421981
C        0.73913352      -0.30145710       0.39077542
O        0.33649476      -1.36065744      -0.19890622
C        2.17971361       0.07978890       0.38865382
H       -2.63420710       0.71454964      -1.45048325
H       -1.12994471      -1.14406287      -0.62983144
H       -3.18909887      -0.22507789      -0.04526306
H        2.31544814       1.05105408      -0.08857890
H        2.49843665       0.19224571       1.42776881
H        2.80367270      -0.66851508      -0.09644056
12
Frame=12 idx=003724 GeodesicLength=1.1529898941697856 rxn_smarts="[C:1]([C:2]#[C:3][C:4](=[O:5])[C:6]([H:10])([H:11])[H:12])([H:7])([H:8])[H:9]>>[C:1](=[C:2]=[C:3]=[C:4]([O:5][H:8])[C:6]([H:10])([H:11])[H:12])([H:7])[H:9]"
C       -2.32180776       0.15347189      -0.58112079
C       -1.38083763       0.81150512       0.20220947
C       -0.22927181       0.67522771       0.67476929
C        0.74973145      -0.32089898       0.40380502
O        0.35667030      -1.38633513      -0.18623032
C        2.18352518       0.08708703       0.38960184
H       -2.63508638       0.74307163      -1.44278911
H       -1.14455522      -1.17963278      -0.64261716
H       -3.20623308      -0.19806439      -0.05385835
H        2.30234370       1.05502130      -0.09858639
H        2.50674423       0.21433899       1.42560168
H        2.81877704      -0.65479238      -0.09078518
12
Frame=13 idx=003724 GeodesicLength=1.2489513166067003 rxn_smarts="[C:1]([C:2]#[C:3][C:4](=[O:5])[C:6]([H:10])([H:11])[H:12])([H:7])([H:8])[H:9]>>[C:1](=[C:2]=[C:3]=[C:4]([O:5][H:8])[C:6]([H:10])([H:11])[H:12])([H:7])[H:9]"
C       -2.32826546       0.16226813      -0.58382512
C       -1.38526157       0.81195968       0.20916381
C       -0.23077451       0.64453005       0.66281104
C        0.76063644      -0.34005710       0.41627634
O        0.37777303      -1.41225874      -0.17339059
C        2.18719634       0.09430051       0.39084142
H       -2.63651204       0.77196578      -1.43378497
H       -1.15958928      -1.21531265      -0.65772683
H       -3.22266003      -0.17144603      -0.06153581
H        2.28974983       1.05802750      -0.10905103
H        2.51358245       0.23739841       1.42378274
H        2.83412481      -0.64137554      -0.08356100
12
Frame=14 idx=003724 GeodesicLength=1.344876327947381 rxn_smarts="[C:1]([C:2]#[C:3][C:4](=[O:5])[C:6]([H:10])([H:11])[H:12])([H:7])([H:8])[H:9]>>[C:1](=[C:2]=[C:3]=[C:4]([O:5][H:8])[C:6]([H:10])([H:11])[H:12])([H:7])[H:9]"
C       -2.33525137       0.17140778      -0.58568591
C       -1.38959249       0.81268500       0.21616823
C       -0.23186751       0.61423196       0.64727543
C        0.77187654      -0.35871020       0.42781970
O        0.39991801      -1.43829958      -0.16062513
C        2.19083486       0.10132517       0.39263209
H       -2.63947680       0.80098954      -1.42301842
H       -1.17493373      -1.25082519      -0.67602674
H       -3.23818851      -0.14548511      -0.06736883
H        2.27827991       1.05983221      -0.11982910
H        2.51851186       0.26143400       1.42265335
H        2.84988924      -0.62858559      -0.07399467
12
Frame=15 idx=003724 GeodesicLength=1.4407741992346548 rxn_smarts="[C:1]([C:2]#[C:3][C:4](=[O:5])[C:6]([H:10])([H:11])[H:12])([H:7])([H:8])[H:9]>>[C:1](=[C:2]=[C:3]=[C:4]([O:5][H:8])[C:6]([H:10])([H:11])[H:12])([H:7])[H:9]"
C       -2.34300723       0.18085414      -0.58657417
C       -1.39369471       0.81376374       0.22291221
C       -0.23245473       0.58450109       0.62746465
C        0.78341858      -0.37675319       0.43832461
O        0.42320116      -1.46439983      -0.14797635
C        2.19456634       0.10810195       0.39512828
H       -2.64463772       0.83006184      -1.41026616
H       -1.19052459      -1.28596810      -0.69815198
H       -3.25288422      -0.12032781      -0.07076737
H        2.26839242       1.06023224      -0.13100403
H        2.52134034       0.28654956       1.42241622
H        2.86628436      -0.61661563      -0.06150591
12
Frame=16 idx=003724 GeodesicLength=1.5366789017976972 rxn_smarts="[C:1]([C:2]#[C:3][C:4](=[O:5])[C:6]([H:10])([H:11])[H:12])([H:7])([H:8])[H:9]>>[C:1](=[C:2]=[C:3]=[C:4]([O:5][H:8])[C:6]([H:10])([H:11])[H:12])([H:7])[H:9]"
C       -2.35195740       0.19050363      -0.58620712
C       -1.39729756       0.81548156       0.22861503
C       -0.23228162       0.55575422       0.60200462
C        0.79523543      -0.39395252       0.44741702
O        0.44775859      -1.49037200      -0.13576702
C        2.19859060       0.11450328       0.39866731
H       -2.65330913       0.85884690      -1.39510822
H       -1.20624622      -1.32039667      -0.72512108
H       -3.26669243      -0.09622421      -0.07048299
H        2.26095627       1.05890533      -0.14249452
H        2.52161553       0.31279787       1.42350608
H        2.88362794      -0.60584738      -0.04502912
