17
Frame=0 idx=010180 GeodesicLength=0.0 rxn_smarts="[C:1]([C:2]([C:3]1([C:6]#[C:7][H:17])[C:4]([H:13])([H:14])[C:5]1([H:15])[H:16])([H:11])[H:12])([H:8])([H:9])[H:10]>>[C:1]([C:2]([C:5]([C:4]([C-:3]=[C:6]=[C+:7][H:17])([H:13])[H:14])([H:15])[H:16])([H:11])[H:12])([H:8])([H:9])[H:10]"
C        1.82268632       0.52458005       0.50124756
C        0.95595420      -0.71833751       0.36767130
C       -0.29302617       0.08252079      -0.96806245
C       -1.41045326      -0.88192012      -1.07608598
C       -0.85132544      -1.15163652       0.27866291
C       -0.70686421       1.34578421      -0.46290296
C       -1.04293152       2.46173280      -0.15368274
H        2.06458318       0.95083437      -0.47009093
H        2.74291348       0.23356402       1.01625103
H        1.33564488       1.29274346       1.10113830
H        1.41308874      -1.44561380      -0.29727201
H        0.93496973      -1.14889402       1.37679399
H       -2.41090734      -0.46147560      -1.06641294
H       -1.28540106      -1.68225059      -1.80047888
H       -0.58971644      -2.18699044       0.44942516
H       -1.36243250      -0.67245261       1.10344451
H       -1.31678262       3.45781149       0.10035415
17
Frame=1 idx=010180 GeodesicLength=0.07088639127934075 rxn_smarts="[C:1]([C:2]([C:3]1([C:6]#[C:7][H:17])[C:4]([H:13])([H:14])[C:5]1([H:15])[H:16])([H:11])[H:12])([H:8])([H:9])[H:10]>>[C:1]([C:2]([C:5]([C:4]([C-:3]=[C:6]=[C+:7][H:17])([H:13])[H:14])([H:15])[H:16])([H:11])[H:12])([H:8])([H:9])[H:10]"
C        1.83521703       0.51562833       0.48966337
C        0.95133582      -0.71780391       0.37588876
C       -0.30931950       0.10517421      -0.94460616
C       -1.39655009      -0.88681855      -1.08186787
C       -0.85961735      -1.15389612       0.28346802
C       -0.72682694       1.36460989      -0.45264362
C       -1.08113628       2.46804954      -0.10775756
H        2.06842667       0.93189792      -0.48841714
H        2.76142292       0.22087504       0.99135314
H        1.36462429       1.29203082       1.09236205
H        1.40194847      -1.45572125      -0.28288655
H        0.93889374      -1.13993631       1.38885045
H       -2.40495197      -0.48547662      -1.09218691
H       -1.23348938      -1.67544835      -1.81155371
H       -0.60789874      -2.19133874       0.45839754
H       -1.38548065      -0.68132054       1.10305071
H       -1.31659805       3.48949465       0.07888547
17
Frame=2 idx=010180 GeodesicLength=0.14145973452571586 rxn_smarts="[C:1]([C:2]([C:3]1([C:6]#[C:7][H:17])[C:4]([H:13])([H:14])[C:5]1([H:15])[H:16])([H:11])[H:12])([H:8])([H:9])[H:10]>>[C:1]([C:2]([C:5]([C:4]([C-:3]=[C:6]=[C+:7][H:17])([H:13])[H:14])([H:15])[H:16])([H:11])[H:12])([H:8])([H:9])[H:10]"
C        1.84842166       0.50541951       0.47736632
C        0.94677812      -0.71748081       0.38467412
C       -0.32527216       0.12822382      -0.92004284
C       -1.38157644      -0.88957675      -1.08710396
C       -0.86815475      -1.15523467       0.28863556
C       -0.74543656       1.38454175      -0.44214617
C       -1.11365418       2.47688241      -0.06548370
H        2.07259618       0.91083700      -0.50765977
H        2.78028575       0.20632018       0.96544752
H        1.39537225       1.29065353       1.08232639
H        1.39040662      -1.46673860      -0.26714459
H        0.94256713      -1.13039999       1.40161730
H       -2.39694888      -0.50701714      -1.11810420
H       -1.18094160      -1.66542305      -1.82112751
H       -0.62725618      -2.19494166       0.46711092
H       -1.40873746      -0.68916144       1.10263158
H       -1.32844950       3.51309593       0.05900302
17
Frame=3 idx=010180 GeodesicLength=0.21220781062310035 rxn_smarts="[C:1]([C:2]([C:3]1([C:6]#[C:7][H:17])[C:4]([H:13])([H:14])[C:5]1([H:15])[H:16])([H:11])[H:12])([H:8])([H:9])[H:10]>>[C:1]([C:2]([C:5]([C:4]([C-:3]=[C:6]=[C+:7][H:17])([H:13])[H:14])([H:15])[H:16])([H:11])[H:12])([H:8])([H:9])[H:10]"
C        1.86112498       0.49477735       0.46472898
C        0.94223329      -0.71732756       0.39387504
C       -0.34194894       0.15135510      -0.89387386
C       -1.36583526      -0.89128884      -1.09165638
C       -0.87666717      -1.15717807       0.29401569
C       -0.76475314       1.40468193      -0.43020916
C       -1.14244336       2.48889992      -0.02849236
H        2.07533160       0.88922865      -0.52724936
H        2.79867791       0.19128971       0.93865457
H        1.42608015       1.28869670       1.07184168
H        1.37895804      -1.47788854      -0.25065523
H        0.94652018      -1.12080500       1.41472923
H       -2.38753675      -0.52800252      -1.14365550
H       -1.12764650      -1.65275713      -1.82952561
H       -0.64655901      -2.19926762       0.47469159
H       -1.43217380      -0.69842503       1.10240271
H       -1.34336221       3.53401096       0.04037797
17
Frame=4 idx=010180 GeodesicLength=0.2832025145983469 rxn_smarts="[C:1]([C:2]([C:3]1([C:6]#[C:7][H:17])[C:4]([H:13])([H:14])[C:5]1([H:15])[H:16])([H:11])[H:12])([H:8])([H:9])[H:10]>>[C:1]([C:2]([C:5]([C:4]([C-:3]=[C:6]=[C+:7][H:17])([H:13])[H:14])([H:15])[H:16])([H:11])[H:12])([H:8])([H:9])[H:10]"
C        1.87310773       0.48380504       0.45170396
C        0.93769012      -0.71735099       0.40349743
C       -0.35948281       0.17439976      -0.86598721
C       -1.34924584      -0.89213268      -1.09553038
C       -0.88508278      -1.15999085       0.29954224
C       -0.78504166       1.42477611      -0.41673736
C       -1.16896852       2.50367006       0.00421206
H        2.07629791       0.86721289      -0.54720460
H        2.81641000       0.17601121       0.91086365
H        1.45645902       1.28617949       1.06087877
H        1.36771676      -1.48912156      -0.23338194
H        0.95076405      -1.11110039       1.42819153
H       -2.37661489      -0.54869067      -1.16889342
H       -1.07346931      -1.63752209      -1.83674452
H       -0.66558598      -2.20456254       0.48095754
H       -1.45580333      -0.70952862       1.10228800
H       -1.35915045       3.55394583       0.02234425
17
Frame=5 idx=010180 GeodesicLength=0.3543883827732538 rxn_smarts="[C:1]([C:2]([C:3]1([C:6]#[C:7][H:17])[C:4]([H:13])([H:14])[C:5]1([H:15])[H:16])([H:11])[H:12])([H:8])([H:9])[H:10]>>[C:1]([C:2]([C:5]([C:4]([C-:3]=[C:6]=[C+:7][H:17])([H:13])[H:14])([H:15])[H:16])([H:11])[H:12])([H:8])([H:9])[H:10]"
C        1.88485995       0.47202860       0.43813097
C        0.93325143      -0.71769369       0.41364796
C       -0.37740064       0.19742003      -0.83645808
C       -1.33161431      -0.89163195      -1.09875845
C       -0.89343271      -1.16321258       0.30521259
C       -0.80536886       1.44513399      -0.40210789
C       -1.19303033       2.52072954       0.03436235
H        2.07609447       0.84405300      -0.56772364
H        2.83383774       0.15975631       0.88195930
H        1.48733162       1.28289913       1.04910852
H        1.35656395      -1.50088798      -0.21498412
H        0.95517718      -1.10115492       1.44220014
H       -2.36379946      -0.56819572      -1.19402869
H       -1.01848313      -1.61943407      -1.84262944
H       -0.68474587      -2.21042625       0.48603254
H       -1.47957183      -0.72171294       1.10213486
H       -1.37966920       3.57232950       0.00390110
17
Frame=6 idx=010180 GeodesicLength=0.4259706877777607 rxn_smarts="[C:1]([C:2]([C:3]1([C:6]#[C:7][H:17])[C:4]([H:13])([H:14])[C:5]1([H:15])[H:16])([H:11])[H:12])([H:8])([H:9])[H:10]>>[C:1]([C:2]([C:5]([C:4]([C-:3]=[C:6]=[C+:7][H:17])([H:13])[H:14])([H:15])[H:16])([H:11])[H:12])([H:8])([H:9])[H:10]"
C        1.89554371       0.46012617       0.42408907
C        0.92879577      -0.71818828       0.42427313
C       -0.39642135       0.22012662      -0.80498085
C       -1.31305735      -0.89037067      -1.10126292
C       -0.90158563      -1.16765042       0.31093100
C       -0.82704764       1.46515041      -0.38578562
C       -1.21672271       2.53988038       0.06147659
H        2.07353874       0.82074103      -0.58863282
H        2.85031116       0.14363282       0.85184420
H        1.51746411       1.27915478       1.03679800
H        1.34577055      -1.51265239      -0.19568108
H        0.95990850      -1.09094241       1.45662327
H       -2.34931274      -0.58755985      -1.21889472
H       -0.96253324      -1.59869584      -1.84726949
H       -0.70331616      -2.21760012       0.48945831
H       -1.50352313      -0.73633157       1.10197291
H       -1.39781256       3.59117932      -0.01495898
17
Frame=7 idx=010180 GeodesicLength=0.4979150632829821 rxn_smarts="[C:1]([C:2]([C:3]1([C:6]#[C:7][H:17])[C:4]([H:13])([H:14])[C:5]1([H:15])[H:16])([H:11])[H:12])([H:8])([H:9])[H:10]>>[C:1]([C:2]([C:5]([C:4]([C-:3]=[C:6]=[C+:7][H:17])([H:13])[H:14])([H:15])[H:16])([H:11])[H:12])([H:8])([H:9])[H:10]"
C        1.90573970       0.44754091       0.40940712
C        0.92444045      -0.71898597       0.43551387
C       -0.41597515       0.24261817      -0.77168859
C       -1.29338100      -0.88776759      -1.10306059
C       -0.90960495      -1.17271075       0.31670022
C       -0.84895648       1.48525039      -0.36829073
C       -1.23923374       2.56081446       0.08679420
H        2.06936303       0.79639722      -0.61013830
H        2.86624804       0.12677137       0.82043109
H        1.54781753       1.27472896       1.02353177
H        1.33517953      -1.52493394      -0.17504313
H        0.96481674      -1.08029310       1.47169969
H       -2.33275288      -0.60570068      -1.24371357
H       -0.90573578      -1.57501188      -1.85043148
H       -0.72182351      -2.22555807       0.49140846
H       -1.52761674      -0.75240036       1.10160744
H       -1.41852479       3.60924087      -0.03472745
17
Frame=8 idx=010180 GeodesicLength=0.570389582196107 rxn_smarts="[C:1]([C:2]([C:3]1([C:6]#[C:7][H:17])[C:4]([H:13])([H:14])[C:5]1([H:15])[H:16])([H:11])[H:12])([H:8])([H:9])[H:10]>>[C:1]([C:2]([C:5]([C:4]([C-:3]=[C:6]=[C+:7][H:17])([H:13])[H:14])([H:15])[H:16])([H:11])[H:12])([H:8])([H:9])[H:10]"
C        1.91486815       0.43468227       0.39421447
C        0.92015038      -0.72005651       0.44733489
C       -0.43661252       0.26473088      -0.73611313
C       -1.27271071      -0.88400514      -1.10396251
C       -0.91733355      -1.17902879       0.32247291
C       -0.87200786       1.50499954      -0.34882103
C       -1.26159334       2.58367570       0.10980397
H        2.06266692       0.77178167      -0.63199049
H        2.88121497       0.10984232       0.78759936
H        1.57756461       1.26969087       1.00969139
H        1.32500180      -1.53734570      -0.15337584
H        0.97012140      -1.06940170       1.48728270
H       -2.31428279      -0.62305912      -1.26813776
H       -0.84811972      -1.54812736      -1.85216936
H       -0.73967997      -2.23490698       0.49136538
H       -1.55174997      -0.77109016       1.10117533
H       -1.43749781       3.62761822      -0.05637029
17
Frame=9 idx=010180 GeodesicLength=0.6434662216904172 rxn_smarts="[C:1]([C:2]([C:3]1([C:6]#[C:7][H:17])[C:4]([H:13])([H:14])[C:5]1([H:15])[H:16])([H:11])[H:12])([H:8])([H:9])[H:10]>>[C:1]([C:2]([C:5]([C:4]([C-:3]=[C:6]=[C+:7][H:17])([H:13])[H:14])([H:15])[H:16])([H:11])[H:12])([H:8])([H:9])[H:10]"
C        1.92303023       0.42142965       0.37837312
C        0.91593259      -0.72140188       0.45985473
C       -0.45818283       0.28638444      -0.69829265
C       -1.25094083      -0.87891189      -1.10396655
C       -0.92480255      -1.18641519       0.32819868
C       -0.89583475       1.52447314      -0.32768943
C       -1.28387384       2.60810231       0.13093696
H        2.05354290       0.74655276      -0.65432335
H        2.89524762       0.09267021       0.75321831
H        1.60696329       1.26409569       0.99493892
H        1.31517389      -1.55006450      -0.13035452
H        0.97572340      -1.05800032       1.50354631
H       -2.29366314      -0.63924783      -1.29236937
H       -0.78967182      -1.51800395      -1.85225049
H       -0.75706059      -2.24545289       0.48934225
H       -1.57595115      -0.79207724       1.10045386
H       -1.45563241       3.64586751      -0.07961679
17
Frame=10 idx=010180 GeodesicLength=0.7170794243198001 rxn_smarts="[C:1]([C:2]([C:3]1([C:6]#[C:7][H:17])[C:4]([H:13])([H:14])[C:5]1([H:15])[H:16])([H:11])[H:12])([H:8])([H:9])[H:10]>>[C:1]([C:2]([C:5]([C:4]([C-:3]=[C:6]=[C+:7][H:17])([H:13])[H:14])([H:15])[H:16])([H:11])[H:12])([H:8])([H:9])[H:10]"
C        1.93095100       0.40689546       0.36162124
C        0.91189882      -0.72317594       0.47331130
C       -0.47983150       0.30784065      -0.65841776
C       -1.22770191      -0.87167971      -1.10307451
C       -0.93209506      -1.19397173       0.33387700
C       -0.91884125       1.54431534      -0.30551242
C       -1.30435760       2.63400793       0.15126414
H        2.04290476       0.71930686      -0.67745393
H        2.90879882       0.07386993       0.71713319
H        1.63730015       1.25751715       0.97859880
H        1.30538424      -1.56373344      -0.10530607
H        0.98136816      -1.04573631       1.52086273
H       -2.27026617      -0.65281219      -1.31668480
H       -0.73030028      -1.48426559      -1.85037185
H       -0.77467739      -2.25631709       0.48553433
H       -1.60022591      -0.81393431       1.09917561
H       -1.48030890       3.66187300      -0.10455700
17
Frame=11 idx=010180 GeodesicLength=0.7916917156220277 rxn_smarts="[C:1]([C:2]([C:3]1([C:6]#[C:7][H:17])[C:4]([H:13])([H:14])[C:5]1([H:15])[H:16])([H:11])[H:12])([H:8])([H:9])[H:10]>>[C:1]([C:2]([C:5]([C:4]([C-:3]=[C:6]=[C+:7][H:17])([H:13])[H:14])([H:15])[H:16])([H:11])[H:12])([H:8])([H:9])[H:10]"
C        1.93784263       0.39172930       0.34411757
C        0.90800014      -0.72531120       0.48768285
C       -0.50236833       0.32880848      -0.61591353
C       -1.20322399      -0.86265406      -1.10104000
C       -0.93903605      -1.20257879       0.33943162
C       -0.94233091       1.56391063      -0.28131847
C       -1.32453537       2.66151965       0.16979672
H        2.02952113       0.69114859      -0.70105302
H        2.92130196       0.05447809       0.67916635
H        1.66743950       1.25018182       0.96111855
H        1.29592148      -1.57781322      -0.07861706
H        0.98739233      -1.03284353       1.53905569
H       -2.24439982      -0.66445569      -1.34068363
H       -0.67006740      -1.44670000      -1.84651086
H       -0.79175450      -2.26832350       0.47930429
H       -1.62448428      -0.83824045       1.09744304
H       -1.50521852       3.67714389      -0.13198012
17
Frame=12 idx=010180 GeodesicLength=0.8674307894640478 rxn_smarts="[C:1]([C:2]([C:3]1([C:6]#[C:7][H:17])[C:4]([H:13])([H:14])[C:5]1([H:15])[H:16])([H:11])[H:12])([H:8])([H:9])[H:10]>>[C:1]([C:2]([C:5]([C:4]([C-:3]=[C:6]=[C+:7][H:17])([H:13])[H:14])([H:15])[H:16])([H:11])[H:12])([H:8])([H:9])[H:10]"
C        1.94357094       0.37590335       0.32572124
C        0.90420561      -0.72773925       0.50308986
C       -0.52575821       0.34915152      -0.57085265
C       -1.17738334      -0.85175058      -1.09779777
C       -0.94561070      -1.21210316       0.34479636
C       -0.96613616       1.58322333      -0.25542263
C       -1.34470040       2.69018627       0.18658656
H        2.01321374       0.66184843      -0.72520934
H        2.93255118       0.03447614       0.63917641
H        1.69729804       1.24217511       0.94213006
H        1.28675009      -1.59230908      -0.05001395
H        0.99373392      -1.01900881       1.55825585
H       -2.21580874      -0.67394224      -1.36446111
H       -0.60888541      -1.40534128      -1.84035980
H       -0.80830110      -2.28126641       0.47059614
H       -1.64874268      -0.86479129       1.09501172
H       -1.52999679       3.69128794      -0.16124695
17
Frame=13 idx=010180 GeodesicLength=0.9446473456907876 rxn_smarts="[C:1]([C:2]([C:3]1([C:6]#[C:7][H:17])[C:4]([H:13])([H:14])[C:5]1([H:15])[H:16])([H:11])[H:12])([H:8])([H:9])[H:10]>>[C:1]([C:2]([C:5]([C:4]([C-:3]=[C:6]=[C+:7][H:17])([H:13])[H:14])([H:15])[H:16])([H:11])[H:12])([H:8])([H:9])[H:10]"
C        1.94761380       0.35976424       0.30644688
C        0.90046737      -0.73039069       0.51958474
C       -0.55044945       0.36860779      -0.52291739
C       -1.15025088      -0.83904262      -1.09313152
C       -0.95168928      -1.22293041       0.34989322
C       -0.99088039       1.60186292      -0.22733534
C       -1.36577683       2.71972873       0.20121558
H        1.99320343       0.63188158      -0.74976048
H        2.94208935       0.01442139       0.59694678
H        1.72619604       1.23369447       0.92169888
H        1.27800356      -1.60691802      -0.01963296
H        1.00055218      -1.00423225       1.57840629
H       -2.18450671      -0.68142305      -1.38777503
H       -0.54679350      -1.35998742      -1.83168070
H       -0.82386568      -2.29544384       0.45900002
H       -1.67290375      -0.89434286       1.09180070
H       -1.55100926       3.70475004      -0.19275967
17
Frame=14 idx=010180 GeodesicLength=1.0235695276520524 rxn_smarts="[C:1]([C:2]([C:3]1([C:6]#[C:7][H:17])[C:4]([H:13])([H:14])[C:5]1([H:15])[H:16])([H:11])[H:12])([H:8])([H:9])[H:10]>>[C:1]([C:2]([C:5]([C:4]([C-:3]=[C:6]=[C+:7][H:17])([H:13])[H:14])([H:15])[H:16])([H:11])[H:12])([H:8])([H:9])[H:10]"
C        1.95104302       0.34199538       0.28600564
C        0.89695159      -0.73338312       0.53747220
C       -0.57500235       0.38761124      -0.47299597
C       -1.12130220      -0.82364647      -1.08716845
C       -0.95747023      -1.23352601       0.35465987
C       -1.01391740       1.62087083      -0.19875488
C       -1.38518019       2.74988321       0.21502348
H        1.97100544       0.59913207      -0.77504006
H        2.95052114      -0.00775669       0.55262883
H        1.75591515       1.22406723       0.89874603
H        1.26913854      -1.62241467       0.01348153
H        1.00755403      -0.98795978       1.59995047
H       -2.14962717      -0.68507215      -1.41118635
H       -0.48365400      -1.31084794      -1.81995300
H       -0.83964429      -2.30927230       0.44504326
H       -1.69704028      -0.92425675       1.08723190
H       -1.57929079       3.71457592      -0.22514450
17
Frame=15 idx=010180 GeodesicLength=1.1049852669369917 rxn_smarts="[C:1]([C:2]([C:3]1([C:6]#[C:7][H:17])[C:4]([H:13])([H:14])[C:5]1([H:15])[H:16])([H:11])[H:12])([H:8])([H:9])[H:10]>>[C:1]([C:2]([C:5]([C:4]([C-:3]=[C:6]=[C+:7][H:17])([H:13])[H:14])([H:15])[H:16])([H:11])[H:12])([H:8])([H:9])[H:10]"
C        1.95325682       0.32291967       0.26453305
C        0.89366211      -0.73670897       0.55677412
C       -0.59993052       0.40597164      -0.42063337
C       -1.09067882      -0.80558848      -1.07957744
C       -0.96275720      -1.24438232       0.35901616
C       -1.03597398       1.63981732      -0.16871007
C       -1.40351543       2.78082606       0.22722811
H        1.94569466       0.56428247      -0.80068081
H        2.95732801      -0.03154983       0.50603895
H        1.78565065       1.21330809       0.87359242
H        1.26032543      -1.63839625       0.04892203
H        1.01511043      -0.97050167       1.62270220
H       -2.11129681      -0.68499694      -1.43419242
H       -0.41958652      -1.25760808      -1.80496914
H       -0.85501687      -2.32312674       0.42812302
H       -1.72096019      -0.95552315       1.08132689
H       -1.61131175       3.72125718      -0.25949369
17
Frame=16 idx=010180 GeodesicLength=1.189582163626802 rxn_smarts="[C:1]([C:2]([C:3]1([C:6]#[C:7][H:17])[C:4]([H:13])([H:14])[C:5]1([H:15])[H:16])([H:11])[H:12])([H:8])([H:9])[H:10]>>[C:1]([C:2]([C:5]([C:4]([C-:3]=[C:6]=[C+:7][H:17])([H:13])[H:14])([H:15])[H:16])([H:11])[H:12])([H:8])([H:9])[H:10]"
C        1.95319696       0.30346306       0.24187255
C        0.89036980      -0.73989037       0.57753448
C       -0.62612096       0.42306618      -0.36604269
C       -1.05851382      -0.78561142      -1.07022977
C       -0.96739577      -1.25605870       0.36281140
C       -1.05848996       1.65777743      -0.13722025
C       -1.42401772       2.81091175       0.23754186
H        1.91596500       0.52806964      -0.82666818
H        2.96155225      -0.05549675       0.45691127
H        1.81387477       1.20227969       0.84583340
H        1.25178174      -1.65411283       0.08671490
H        1.02325863      -0.95117930       1.64658049
H       -2.06957644      -0.68236155      -1.45668124
H       -0.35453191      -1.20079525      -1.78633429
H       -0.86916154      -2.33733783       0.40804639
H       -1.74465382      -0.98911514       1.07372967
H       -1.63753721       3.72639138      -0.29439999
