10
Frame=0 idx=001965 GeodesicLength=0.0 rxn_smarts="[O:1]([C@@:2]([C:3](=[O:4])[H:9])([C:5]#[C:6][H:10])[H:8])[H:7]>>[O:1]1[C@@:2]([C:5]#[C:6][H:10])([H:8])[C@@:3]1([O:4][H:7])[H:9]"
O       -0.70701282       1.47121548       0.45141809
C       -0.11808275       0.27239223       0.70573882
C       -1.21049618      -0.51423381       0.06245666
O       -1.60217457      -0.14853423      -1.08775674
C        1.20054766       0.01497107       0.07885557
C        2.25148508      -0.19072084      -0.45813799
H       -1.17089851       0.77404381      -1.11864440
H       -0.05141365      -0.00489497       1.77111581
H       -1.78475677      -1.31901493       0.52286089
H        3.19280251      -0.35522380      -0.92790671
10
Frame=1 idx=001965 GeodesicLength=0.0731836647143545 rxn_smarts="[O:1]([C@@:2]([C:3](=[O:4])[H:9])([C:5]#[C:6][H:10])[H:8])[H:7]>>[O:1]1[C@@:2]([C:5]#[C:6][H:10])([H:8])[C@@:3]1([O:4][H:7])[H:9]"
O       -0.71250148       1.46079828       0.43912321
C       -0.11498122       0.26640017       0.70823646
C       -1.21606302      -0.50829345       0.06584527
O       -1.59984226      -0.15143301      -1.09108890
C        1.19978505       0.00691312       0.07929637
C        2.24712999      -0.19665627      -0.46529109
H       -1.16763880       0.78867820      -1.11414475
H       -0.05097975      -0.00055939       1.77551454
H       -1.78122330      -1.31917493       0.52651979
H        3.19631478      -0.34667272      -0.92401091
10
Frame=2 idx=001965 GeodesicLength=0.14636139093785833 rxn_smarts="[O:1]([C@@:2]([C:3](=[O:4])[H:9])([C:5]#[C:6][H:10])[H:8])[H:7]>>[O:1]1[C@@:2]([C:5]#[C:6][H:10])([H:8])[C@@:3]1([O:4][H:7])[H:9]"
O       -0.71697390       1.45043648       0.42665351
C       -0.11208642       0.26017750       0.71102608
C       -1.22178865      -0.50223121       0.06926491
O       -1.59709945      -0.15465990      -1.09455499
C        1.19905586      -0.00253689       0.08097000
C        2.24309853      -0.20492031      -0.47020793
H       -1.16238492       0.80264479      -1.11055014
H       -0.05138344       0.00406891       1.78027614
H       -1.77848933      -1.31854975       0.53042081
H        3.19805172      -0.33442962      -0.92329838
10
Frame=3 idx=001965 GeodesicLength=0.21951143460845401 rxn_smarts="[O:1]([C@@:2]([C:3](=[O:4])[H:9])([C:5]#[C:6][H:10])[H:8])[H:7]>>[O:1]1[C@@:2]([C:5]#[C:6][H:10])([H:8])[C@@:3]1([O:4][H:7])[H:9]"
O       -0.72262728       1.44012904       0.41543150
C       -0.10933032       0.25437839       0.71351631
C       -1.22700359      -0.49645598       0.07233504
O       -1.59503282      -0.15787374      -1.09773934
C        1.19821828      -0.00980503       0.08163374
C        2.23895351      -0.20949337      -0.47660286
H       -1.15783478       0.81707972      -1.10670812
H       -0.05106610       0.00848299       1.78444036
H       -1.77414976      -1.31894069       0.53382668
H        3.19987286      -0.32750134      -0.92013331
10
Frame=4 idx=001965 GeodesicLength=0.29261826571549326 rxn_smarts="[O:1]([C@@:2]([C:3](=[O:4])[H:9])([C:5]#[C:6][H:10])[H:8])[H:7]>>[O:1]1[C@@:2]([C:5]#[C:6][H:10])([H:8])[C@@:3]1([O:4][H:7])[H:9]"
O       -0.72805953       1.42985487       0.40449940
C       -0.10676531       0.24855003       0.71611841
C       -1.23212806      -0.49074708       0.07528043
O       -1.59287726      -0.16134987      -1.10095976
C        1.19737921      -0.01722230       0.08280967
C        2.23505608      -0.21431481      -0.48188577
H       -1.15222702       0.83128208      -1.10332252
H       -0.05109765       0.01298525       1.78866221
H       -1.76991896      -1.31907585       0.53724446
H        3.20063849      -0.31996232      -0.91844653
10
Frame=5 idx=001965 GeodesicLength=0.3656902232716248 rxn_smarts="[O:1]([C@@:2]([C:3](=[O:4])[H:9])([C:5]#[C:6][H:10])[H:8])[H:7]>>[O:1]1[C@@:2]([C:5]#[C:6][H:10])([H:8])[C@@:3]1([O:4][H:7])[H:9]"
O       -0.73345305       1.41959895       0.39395567
C       -0.10435144       0.24272018       0.71871916
C       -1.23713234      -0.48515529       0.07808397
O       -1.59085234      -0.16505691      -1.10415006
C        1.19650915      -0.02451628       0.08413580
C        2.23132128      -0.21890248      -0.48661349
H       -1.14591285       0.84538717      -1.10022561
H       -0.05123285       0.01749253       1.79279336
H       -1.76568765      -1.31905671       0.54068249
H        3.20079209      -0.31251115      -0.91738129
10
Frame=6 idx=001965 GeodesicLength=0.438912388135843 rxn_smarts="[O:1]([C@@:2]([C:3](=[O:4])[H:9])([C:5]#[C:6][H:10])[H:8])[H:7]>>[O:1]1[C@@:2]([C:5]#[C:6][H:10])([H:8])[C@@:3]1([O:4][H:7])[H:9]"
O       -0.73923320       1.40936288       0.38406321
C       -0.10207251       0.23700310       0.72116760
C       -1.24192006      -0.47977245       0.08069252
O       -1.58918228      -0.16900168      -1.10718856
C        1.19555441      -0.03099719       0.08508641
C        2.22757134      -0.22218182      -0.49165472
H       -1.13949817       0.85968820      -1.09717032
H       -0.05115043       0.02188184       1.79661451
H       -1.76096587      -1.31915533       0.54403505
H        3.20089676      -0.30682754      -0.91564569
10
Frame=7 idx=001965 GeodesicLength=0.511962930372354 rxn_smarts="[O:1]([C@@:2]([C:3](=[O:4])[H:9])([C:5]#[C:6][H:10])[H:8])[H:7]>>[O:1]1[C@@:2]([C:5]#[C:6][H:10])([H:8])[C@@:3]1([O:4][H:7])[H:9]"
O       -0.74500602       1.39912391       0.37452173
C       -0.09992128       0.23126892       0.72359395
C       -1.24657521      -0.47453614       0.08314494
O       -1.58765797      -0.17318142      -1.11022144
C        1.19458018      -0.03734088       0.08613426
C        2.22397689      -0.22522946      -0.49622836
H       -1.13247309       0.87394058      -1.09431691
H       -0.05113898       0.02625451       1.80032548
H       -1.75636697      -1.31907498       0.54747163
H        3.20058245      -0.30122502      -0.91442528
10
Frame=8 idx=001965 GeodesicLength=0.5851868004304007 rxn_smarts="[O:1]([C@@:2]([C:3](=[O:4])[H:9])([C:5]#[C:6][H:10])[H:8])[H:7]>>[O:1]1[C@@:2]([C:5]#[C:6][H:10])([H:8])[C@@:3]1([O:4][H:7])[H:9]"
O       -0.75075488       1.38887836       0.36531877
C       -0.09789923       0.22548670       0.72598347
C       -1.25112783      -0.46946075       0.08545761
O       -1.58628594      -0.17770843      -1.11321186
C        1.19356503      -0.04359425       0.08722597
C        2.22052037      -0.22804374      -0.50041491
H       -1.12482413       0.88823129      -1.09165707
H       -0.05118708       0.03057011       1.80390887
H       -1.75189647      -1.31871330       0.55100609
H        3.19989016      -0.29564600      -0.91361693
10
Frame=9 idx=001965 GeodesicLength=0.6583731855363905 rxn_smarts="[O:1]([C@@:2]([C:3](=[O:4])[H:9])([C:5]#[C:6][H:10])[H:8])[H:7]>>[O:1]1[C@@:2]([C:5]#[C:6][H:10])([H:8])[C@@:3]1([O:4][H:7])[H:9]"
O       -0.75672989       1.37862818       0.35657183
C       -0.09598122       0.21974143       0.72825172
C       -1.25551428      -0.46459295       0.08759692
O       -1.58522205      -0.18249716      -1.11613088
C        1.19250053      -0.04936029       0.08808354
C        2.21709946      -0.23003119      -0.50471240
H       -1.11691906       0.90267723      -1.08901790
H       -0.05110725       0.03480046       1.80725555
H       -1.74733154      -1.31832061       0.55459956
H        3.19920529      -0.29104511      -0.91249793
10
Frame=10 idx=001965 GeodesicLength=0.7315013032569679 rxn_smarts="[O:1]([C@@:2]([C:3](=[O:4])[H:9])([C:5]#[C:6][H:10])[H:8])[H:7]>>[O:1]1[C@@:2]([C:5]#[C:6][H:10])([H:8])[C@@:3]1([O:4][H:7])[H:9]"
O       -0.76284255       1.36837405       0.34820576
C       -0.09415568       0.21399010       0.73039086
C       -1.25978216      -0.45991939       0.08960255
O       -1.58449232      -0.18755706      -1.11894484
C        1.19137324      -0.05481703       0.08870448
C        2.21369740      -0.23137542      -0.50913607
H       -1.10870526       0.91727065      -1.08641841
H       -0.05090875       0.03894646       1.81036734
H       -1.74276232      -1.31782105       0.55828713
H        3.19857840      -0.28709133      -0.91105880
10
Frame=11 idx=001965 GeodesicLength=0.8046255486878957 rxn_smarts="[O:1]([C@@:2]([C:3](=[O:4])[H:9])([C:5]#[C:6][H:10])[H:8])[H:7]>>[O:1]1[C@@:2]([C:5]#[C:6][H:10])([H:8])[C@@:3]1([O:4][H:7])[H:9]"
O       -0.76901960       1.35811131       0.34015222
C       -0.09242654       0.20821261       0.73244681
C       -1.26394087      -0.45542429       0.09147237
O       -1.58399562      -0.19293854      -1.12171367
C        1.19020332      -0.06009107       0.08922991
C        2.21034163      -0.23230385      -0.51349458
H       -1.10003958       0.93200835      -1.08386975
H       -0.05067936       0.04304070       1.81330754
H       -1.73829992      -1.31716677       0.56209356
H        3.19785656      -0.28344846      -0.90962441
10
Frame=12 idx=001965 GeodesicLength=0.87773511191151 rxn_smarts="[O:1]([C@@:2]([C:3](=[O:4])[H:9])([C:5]#[C:6][H:10])[H:8])[H:7]>>[O:1]1[C@@:2]([C:5]#[C:6][H:10])([H:8])[C@@:3]1([O:4][H:7])[H:9]"
O       -0.77537984       1.34783305       0.33245647
C       -0.09078117       0.20243855       0.73437231
C       -1.26796563      -0.45114212       0.09319482
O       -1.58379242      -0.19864456      -1.12441581
C        1.18898253      -0.06501246       0.08951790
C        2.20699376      -0.23248040      -0.51802573
H       -1.09109809       0.94697462      -1.08127642
H       -0.05033097       0.04706200       1.81601724
H       -1.73384415      -1.31643598       0.56600212
H        3.19721598      -0.28059272      -0.90784290
10
Frame=13 idx=001965 GeodesicLength=0.9508426995293536 rxn_smarts="[O:1]([C@@:2]([C:3](=[O:4])[H:9])([C:5]#[C:6][H:10])[H:8])[H:7]>>[O:1]1[C@@:2]([C:5]#[C:6][H:10])([H:8])[C@@:3]1([O:4][H:7])[H:9]"
O       -0.78168476       1.33753121       0.32495786
C       -0.08922584       0.19658193       0.73623864
C       -1.27192208      -0.44702314       0.09480143
O       -1.58377306      -0.20472041      -1.12708813
C        1.18772201      -0.06999025       0.08980506
C        2.20369476      -0.23254013      -0.52237911
H       -1.08154510       0.96208481      -1.07873892
H       -0.05001584       0.05105532       1.81859427
H       -1.72966512      -1.31544291       0.57008876
H        3.19641503      -0.27753643      -0.90627987
10
Frame=14 idx=001965 GeodesicLength=1.0239501116518217 rxn_smarts="[O:1]([C@@:2]([C:3](=[O:4])[H:9])([C:5]#[C:6][H:10])[H:8])[H:7]>>[O:1]1[C@@:2]([C:5]#[C:6][H:10])([H:8])[C@@:3]1([O:4][H:7])[H:9]"
O       -0.78842763       1.32721211       0.31789750
C       -0.08774995       0.19081761       0.73792695
C       -1.27567158      -0.44319378       0.09622911
O       -1.58410283      -0.21114172      -1.12968593
C        1.18641878      -0.07422662       0.08969453
C        2.20039370      -0.23122925      -0.52714404
H       -1.07197558       0.97759417      -1.07599454
H       -0.04949513       0.05496573       1.82088210
H       -1.72524651      -1.31457215       0.57418836
H        3.19585672      -0.27622611      -0.90399403
10
Frame=15 idx=001965 GeodesicLength=1.0970581654027498 rxn_smarts="[O:1]([C@@:2]([C:3](=[O:4])[H:9])([C:5]#[C:6][H:10])[H:8])[H:7]>>[O:1]1[C@@:2]([C:5]#[C:6][H:10])([H:8])[C@@:3]1([O:4][H:7])[H:9]"
O       -0.79505531       1.31685649       0.31094924
C       -0.08636214       0.18494527       0.73957333
C       -1.27936751      -0.43952471       0.09753886
O       -1.58457715      -0.21797978      -1.13227592
C        1.18508306      -0.07864267       0.08965675
C        2.19716479      -0.22999076      -0.53160419
H       -1.06169208       0.99328146      -1.07327686
H       -0.04906474       0.05887165       1.82306214
H       -1.72120104      -1.31339197       0.57849898
H        3.19507212      -0.27442498      -0.90212233
10
Frame=16 idx=001965 GeodesicLength=1.170168755189447 rxn_smarts="[O:1]([C@@:2]([C:3](=[O:4])[H:9])([C:5]#[C:6][H:10])[H:8])[H:7]>>[O:1]1[C@@:2]([C:5]#[C:6][H:10])([H:8])[C@@:3]1([O:4][H:7])[H:9]"
O       -0.80139408       1.30645731       0.30399880
C       -0.08505373       0.17889173       0.74118631
C       -1.28307404      -0.43596828       0.09876400
O       -1.58520480      -0.22525734      -1.13484652
C        1.18369715      -0.08355037       0.08974271
C        2.19399444      -0.22929256      -0.53566924
H       -1.05051257       1.00910585      -1.07062876
H       -0.04875623       0.06278613       1.82515192
H       -1.71772480      -1.31176567       0.58310693
H        3.19402867      -0.27140680      -0.90080615
