14
Frame=0 idx=009405 GeodesicLength=0.0 rxn_smarts="[O:1]([C@@:2]1([H:9])[C:3]([H:10])([H:11])[O:4][C:5]([H:12])=[N:6][C:7]1([H:13])[H:14])[H:8]>>[O:1]([C@@:2]1([H:9])[C:3]([H:10])([H:11])[O+:4]=[C:5]([H:12])[N:6]([H:14])[C-:7]1[H:13])[H:8]"
O       -1.20132592      -0.35641746       1.49151951
C       -1.03344589       0.10859901       0.15484785
C       -0.11876373       1.32780004       0.23491303
O        1.21292558       0.94823413       0.60642646
C        1.72940266      -0.06678136      -0.08115516
N        1.03616297      -0.83651684      -0.83875458
C       -0.41244144      -0.90451392      -0.74478999
H       -1.29017205      -1.31033411       1.43332705
H       -2.00341382       0.43134570      -0.24476069
H       -0.08981356       1.83716600      -0.73279194
H       -0.44162876       2.02380301       1.00582256
H        2.79184624      -0.20995050       0.06228881
H       -0.85190062      -1.11121997      -1.71267581
H        0.67256838      -1.88121374      -0.63421711
14
Frame=1 idx=009405 GeodesicLength=0.044731647020548125 rxn_smarts="[O:1]([C@@:2]1([H:9])[C:3]([H:10])([H:11])[O:4][C:5]([H:12])=[N:6][C:7]1([H:13])[H:14])[H:8]>>[O:1]([C@@:2]1([H:9])[C:3]([H:10])([H:11])[O+:4]=[C:5]([H:12])[N:6]([H:14])[C-:7]1[H:13])[H:8]"
O       -1.21228861      -0.35288310       1.48866730
C       -1.03453185       0.10846626       0.15252245
C       -0.12094152       1.32820362       0.23379191
O        1.21010295       0.94899451       0.60809863
C        1.72649260      -0.06977120      -0.07520766
N        1.03449199      -0.83943654      -0.83328746
C       -0.41190209      -0.90322135      -0.74830419
H       -1.25037733      -1.31066596       1.44413489
H       -2.00364353       0.43112102      -0.24899511
H       -0.08991605       1.83845772      -0.73346537
H       -0.44577979       2.02458464       1.00351758
H        2.78923836      -0.21178805       0.06730000
H       -0.84809349      -1.09826091      -1.72026948
H        0.65714839      -1.89380066      -0.63850348
14
Frame=2 idx=009405 GeodesicLength=0.089530135715037 rxn_smarts="[O:1]([C@@:2]1([H:9])[C:3]([H:10])([H:11])[O:4][C:5]([H:12])=[N:6][C:7]1([H:13])[H:14])[H:8]>>[O:1]([C@@:2]1([H:9])[C:3]([H:10])([H:11])[O+:4]=[C:5]([H:12])[N:6]([H:14])[C-:7]1[H:13])[H:8]"
O       -1.22349364      -0.35012865       1.48534614
C       -1.03566999       0.10820370       0.15003052
C       -0.12317047       1.32843052       0.23287632
O        1.20722385       0.94955103       0.60993630
C        1.72358062      -0.07275252      -0.06932764
N        1.03284360      -0.84242182      -0.82783678
C       -0.41128463      -0.90209292      -0.75185489
H       -1.21027762      -1.30893132       1.45545190
H       -2.00383597       0.43083277      -0.25354388
H       -0.09003066       1.83976978      -0.73382273
H       -0.45006625       2.02492010       1.00162016
H        2.78668480      -0.21342966       0.07200255
H       -0.84402312      -1.08550097      -1.72781274
H        0.64151948      -1.90645004      -0.64306523
14
Frame=3 idx=009405 GeodesicLength=0.1343742939478489 rxn_smarts="[O:1]([C@@:2]1([H:9])[C:3]([H:10])([H:11])[O:4][C:5]([H:12])=[N:6][C:7]1([H:13])[H:14])[H:8]>>[O:1]([C@@:2]1([H:9])[C:3]([H:10])([H:11])[O+:4]=[C:5]([H:12])[N:6]([H:14])[C-:7]1[H:13])[H:8]"
O       -1.23487825      -0.34820893       1.48155523
C       -1.03683736       0.10780971       0.14738278
C       -0.12542262       1.32846991       0.23219350
O        1.20431641       0.94988753       0.61196183
C        1.72069956      -0.07572738      -0.06351628
N        1.03124108      -0.84550333      -0.82236458
C       -0.41056450      -0.90114244      -0.75541457
H       -1.17029270      -1.30509370       1.46717827
H       -2.00396858       0.43048367      -0.25838575
H       -0.09012857       1.84109951      -0.73383069
H       -0.45445872       2.02478446       1.00017102
H        2.78427489      -0.21469109       0.07613891
H       -0.83966876      -1.07299094      -1.73526917
H        0.62568811      -1.91917696      -0.64780050
14
Frame=4 idx=009405 GeodesicLength=0.17925310665177696 rxn_smarts="[O:1]([C@@:2]1([H:9])[C:3]([H:10])([H:11])[O:4][C:5]([H:12])=[N:6][C:7]1([H:13])[H:14])[H:8]>>[O:1]([C@@:2]1([H:9])[C:3]([H:10])([H:11])[O+:4]=[C:5]([H:12])[N:6]([H:14])[C-:7]1[H:13])[H:8]"
O       -1.24621650      -0.34718135       1.47736202
C       -1.03799423       0.10727739       0.14462732
C       -0.12769747       1.32834757       0.23170866
O        1.20141763       0.95009045       0.61407208
C        1.71787656      -0.07864588      -0.05783713
N        1.02970181      -0.84867232      -0.81688420
C       -0.40972351      -0.90035057      -0.75898450
H       -1.13069384      -1.29920220       1.47918323
H       -2.00405200       0.43002132      -0.26338257
H       -0.09028010       1.84244672      -0.73354033
H       -0.45894817       2.02420617       0.99913715
H        2.78198256      -0.21568448       0.07986538
H       -0.83502857      -1.06068701      -1.74263845
H        0.60965582      -1.93196581      -0.65268867
14
Frame=5 idx=009405 GeodesicLength=0.22418828898930487 rxn_smarts="[O:1]([C@@:2]1([H:9])[C:3]([H:10])([H:11])[O:4][C:5]([H:12])=[N:6][C:7]1([H:13])[H:14])[H:8]>>[O:1]([C@@:2]1([H:9])[C:3]([H:10])([H:11])[O+:4]=[C:5]([H:12])[N:6]([H:14])[C-:7]1[H:13])[H:8]"
O       -1.25741260      -0.34705485       1.47278453
C       -1.03912448       0.10660343       0.14177207
C       -0.12999817       1.32807621       0.23140367
O        1.19854413       0.95020120       0.61621318
C        1.71512392      -0.08148474      -0.05232622
N        1.02823168      -0.85192616      -0.81140546
C       -0.40875538      -0.89971033      -0.76257440
H       -1.09156684      -1.29128837       1.49146861
H       -2.00409358       0.42942415      -0.26848478
H       -0.09052355       1.84382332      -0.73297130
H       -0.46353087       2.02318805       0.99851342
H        2.77978830      -0.21648629       0.08327728
H       -0.83009522      -1.04855341      -1.74993778
H        0.59341266      -1.94481222      -0.65773280
14
Frame=6 idx=009405 GeodesicLength=0.26914094424210533 rxn_smarts="[O:1]([C@@:2]1([H:9])[C:3]([H:10])([H:11])[O:4][C:5]([H:12])=[N:6][C:7]1([H:13])[H:14])[H:8]>>[O:1]([C@@:2]1([H:9])[C:3]([H:10])([H:11])[O+:4]=[C:5]([H:12])[N:6]([H:14])[C-:7]1[H:13])[H:8]"
O       -1.26813693      -0.34786230       1.46795409
C       -1.04017486       0.10578341       0.13889917
C       -0.13232900       1.32770095       0.23120696
O        1.19574661       0.95036224       0.61821349
C        1.71247376      -0.08415373      -0.04708423
N        1.02684791      -0.85522449      -0.80595967
C       -0.40764224      -0.89917444      -0.76618376
H       -1.05319153      -1.28152715       1.50378353
H       -2.00412150       0.42860770      -0.27347191
H       -0.09096998       1.84521893      -0.73222464
H       -0.46818991       2.02179814       0.99820928
H        2.77762409      -0.21733524       0.08672932
H       -0.82489619      -1.03652735      -1.75714337
H        0.57695978      -1.95766666      -0.66292827
14
Frame=7 idx=009405 GeodesicLength=0.3141850268763921 rxn_smarts="[O:1]([C@@:2]1([H:9])[C:3]([H:10])([H:11])[O:4][C:5]([H:12])=[N:6][C:7]1([H:13])[H:14])[H:8]>>[O:1]([C@@:2]1([H:9])[C:3]([H:10])([H:11])[O+:4]=[C:5]([H:12])[N:6]([H:14])[C-:7]1[H:13])[H:8]"
O       -1.27864779      -0.34956777       1.46276981
C       -1.04118026       0.10482830       0.13594482
C       -0.13467113       1.32718424       0.23117979
O        1.19300082       0.95045692       0.62021332
C        1.70991239      -0.08674702      -0.04200362
N        1.02554393      -0.85862466      -0.80048282
C       -0.40639098      -0.89876880      -0.76981086
H       -1.01548332      -1.26985495       1.51628561
H       -2.00410811       0.42764622      -0.27850928
H       -0.09150501       1.84664049      -0.73121250
H       -0.47291443       2.01997867       0.99830290
H        2.77558969      -0.21795098       0.08980345
H       -0.81939131      -1.02464463      -1.76427378
H        0.56024551      -1.97057604      -0.66820683
14
Frame=8 idx=009405 GeodesicLength=0.3592568878501591 rxn_smarts="[O:1]([C@@:2]1([H:9])[C:3]([H:10])([H:11])[O:4][C:5]([H:12])=[N:6][C:7]1([H:13])[H:14])[H:8]>>[O:1]([C@@:2]1([H:9])[C:3]([H:10])([H:11])[O+:4]=[C:5]([H:12])[N:6]([H:14])[C-:7]1[H:13])[H:8]"
O       -1.28864970      -0.35214726       1.45737767
C       -1.04208505       0.10373997       0.13298700
C       -0.13700431       1.32656663       0.23127821
O        1.19035868       0.95057950       0.62212645
C        1.70748231      -0.08922279      -0.03711039
N        1.02435037      -0.86213694      -0.79494164
C       -0.40497129      -0.89847260      -0.77343234
H       -0.97899238      -1.25655759       1.52872494
H       -2.00406038       0.42648511      -0.28342054
H       -0.09217375       1.84807621      -0.73001468
H       -0.47767114       2.01781219       0.99872230
H        2.77371816      -0.21831570       0.09251769
H       -0.81356476      -1.01286583      -1.77130432
H        0.54326326      -1.98354090      -0.67351036
14
Frame=9 idx=009405 GeodesicLength=0.40438228996416337 rxn_smarts="[O:1]([C@@:2]1([H:9])[C:3]([H:10])([H:11])[O:4][C:5]([H:12])=[N:6][C:7]1([H:13])[H:14])[H:8]>>[O:1]([C@@:2]1([H:9])[C:3]([H:10])([H:11])[O+:4]=[C:5]([H:12])[N:6]([H:14])[C-:7]1[H:13])[H:8]"
O       -1.29787656      -0.35560366       1.45188601
C       -1.04286149       0.10251037       0.13008113
C       -0.13938030       1.32591023       0.23139538
O        1.18784254       0.95091621       0.62370546
C        1.70518555      -0.09143052      -0.03260270
N        1.02325423      -0.86564717      -0.78947788
C       -0.40339428      -0.89822134      -0.77709571
H       -0.94338701      -1.24175630       1.54102285
H       -2.00403805       0.42502525      -0.28801419
H       -0.09317324       1.84954576      -0.72876307
H       -0.48247722       2.01537145       0.99935761
H        2.77178679      -0.21906150       0.09574677
H       -0.80750294      -1.00109782      -1.77824952
H        0.52602197      -1.99646095      -0.67899216
14
Frame=10 idx=009405 GeodesicLength=0.4495659333064035 rxn_smarts="[O:1]([C@@:2]1([H:9])[C:3]([H:10])([H:11])[O:4][C:5]([H:12])=[N:6][C:7]1([H:13])[H:14])[H:8]>>[O:1]([C@@:2]1([H:9])[C:3]([H:10])([H:11])[O+:4]=[C:5]([H:12])[N:6]([H:14])[C-:7]1[H:13])[H:8]"
O       -1.30658147      -0.35985843       1.44620319
C       -1.04352858       0.10114905       0.12717291
C       -0.14173749       1.32515354       0.23162036
O        1.18544047       0.95129151       0.62518002
C        1.70302279      -0.09352925      -0.02825937
N        1.02226613      -0.86928752      -0.78390111
C       -0.40164877      -0.89806173      -0.78075531
H       -0.90903567      -1.22550311       1.55327547
H       -2.00397828       0.42335729      -0.29247221
H       -0.09430235       1.85101864      -0.72734116
H       -0.48729391       2.01259032       1.00028646
H        2.77003344      -0.21952486       0.09858464
H       -0.80108911      -0.98936304      -1.78510554
H        0.50843279      -2.00943241      -0.68448834
14
Frame=11 idx=009405 GeodesicLength=0.4947741998761446 rxn_smarts="[O:1]([C@@:2]1([H:9])[C:3]([H:10])([H:11])[O:4][C:5]([H:12])=[N:6][C:7]1([H:13])[H:14])[H:8]>>[O:1]([C@@:2]1([H:9])[C:3]([H:10])([H:11])[O+:4]=[C:5]([H:12])[N:6]([H:14])[C-:7]1[H:13])[H:8]"
O       -1.31434512      -0.36488079       1.44054480
C       -1.04403328       0.09965624       0.12436751
C       -0.14412314       1.32439544       0.23181517
O        1.18319494       0.95195206       0.62625448
C        1.70101816      -0.09532191      -0.02432194
N        1.02139063      -0.87290934      -0.77838657
C       -0.39972991      -0.89791934      -0.78444055
H       -0.87583310      -1.20810675       1.56522081
H       -2.00395288       0.42135649      -0.29649936
H       -0.09578906       1.85252128      -0.72593994
H       -0.49212549       2.00961301       1.00135100
H        2.76822843      -0.22040971       0.10203265
H       -0.79444889      -0.97761283      -1.79184475
H        0.49054872      -2.02233385      -0.69015332
14
Frame=12 idx=009405 GeodesicLength=0.5400257188444313 rxn_smarts="[O:1]([C@@:2]1([H:9])[C:3]([H:10])([H:11])[O:4][C:5]([H:12])=[N:6][C:7]1([H:13])[H:14])[H:8]>>[O:1]([C@@:2]1([H:9])[C:3]([H:10])([H:11])[O+:4]=[C:5]([H:12])[N:6]([H:14])[C-:7]1[H:13])[H:8]"
O       -1.32132649      -0.37060650       1.43487236
C       -1.04439263       0.09803992       0.12163582
C       -0.14651150       1.32360874       0.23202137
O        1.18109287       0.95280622       0.62705080
C        1.69916666      -0.09690755      -0.02065675
N        1.02063167      -0.87659221      -0.77282585
C       -0.39763481      -0.89781622      -0.78813540
H       -0.84388415      -1.18962849       1.57693917
H       -2.00393528       0.41907559      -0.30020027
H       -0.09753021       1.85403931      -0.72451047
H       -0.49695849       2.00641934       1.00258333
H        2.76649155      -0.22138162       0.10563267
H       -0.78750971      -0.96583414      -1.79848316
H        0.47230053      -2.03522238      -0.69592362
14
Frame=13 idx=009405 GeodesicLength=0.5853379918222185 rxn_smarts="[O:1]([C@@:2]1([H:9])[C:3]([H:10])([H:11])[O:4][C:5]([H:12])=[N:6][C:7]1([H:13])[H:14])[H:8]>>[O:1]([C@@:2]1([H:9])[C:3]([H:10])([H:11])[O+:4]=[C:5]([H:12])[N:6]([H:14])[C-:7]1[H:13])[H:8]"
O       -1.32751600      -0.37700402       1.42919680
C       -1.04460470       0.09629765       0.11897966
C       -0.14890765       1.32279835       0.23222192
O        1.17913419       0.95387342       0.62753897
C        1.69746477      -0.09827289      -0.01727725
N        1.01998301      -0.88032840      -0.76721727
C       -0.39536716      -0.89774114      -0.79184732
H       -0.81309742      -1.17012645       1.58844804
H       -2.00392957       0.41649857      -0.30356644
H       -0.09954320       1.85556981      -0.72307052
H       -0.50178979       2.00301595       1.00396121
H        2.76479567      -0.22250682       0.10949035
H       -0.78027227      -0.95399382      -1.80502444
H        0.45365011      -2.04808022      -0.70183372
14
Frame=14 idx=009405 GeodesicLength=0.6306630211308192 rxn_smarts="[O:1]([C@@:2]1([H:9])[C:3]([H:10])([H:11])[O:4][C:5]([H:12])=[N:6][C:7]1([H:13])[H:14])[H:8]>>[O:1]([C@@:2]1([H:9])[C:3]([H:10])([H:11])[O+:4]=[C:5]([H:12])[N:6]([H:14])[C-:7]1[H:13])[H:8]"
O       -1.33278858      -0.38398667       1.42362151
C       -1.04464708       0.09443793       0.11644248
C       -0.15130878       1.32199755       0.23237600
O        1.17733426       0.95521211       0.62766227
C        1.69593160      -0.09936325      -0.01423569
N        1.01945366      -0.88408110      -0.76158168
C       -0.39291811      -0.89767520      -0.79556112
H       -0.78358704      -1.14986781       1.59960731
H       -2.00394562       0.41359698      -0.30651036
H       -0.10186433       1.85711000      -0.72168496
H       -0.50659956       1.99947761       1.00541437
H        2.76311238      -0.22388816       0.11379032
H       -0.77277235      -0.94209879      -1.81143164
H        0.43459955      -2.06087121      -0.70790881
14
Frame=15 idx=009405 GeodesicLength=0.6759828601926154 rxn_smarts="[O:1]([C@@:2]1([H:9])[C:3]([H:10])([H:11])[O:4][C:5]([H:12])=[N:6][C:7]1([H:13])[H:14])[H:8]>>[O:1]([C@@:2]1([H:9])[C:3]([H:10])([H:11])[O+:4]=[C:5]([H:12])[N:6]([H:14])[C-:7]1[H:13])[H:8]"
O       -1.33724719      -0.39148070       1.41813687
C       -1.04452507       0.09247198       0.11401402
C       -0.15368951       1.32119271       0.23250960
O        1.17568525       0.95676009       0.62751120
C        1.69457187      -0.10022379      -0.01145978
N        1.01904721      -0.88788245      -0.75585357
C       -0.39028121      -0.89763167      -0.79924941
H       -0.75546839      -1.12897570       1.61041531
H       -2.00395649       0.41040900      -0.30909573
H       -0.10441354       1.85864538      -0.72032519
H       -0.51136610       1.99580924       1.00694872
H        2.76152067      -0.22529831       0.11823289
H       -0.76498675      -0.93018567      -1.81767999
H        0.41510925      -2.07361012      -0.71410496
14
Frame=16 idx=009405 GeodesicLength=0.721274175515598 rxn_smarts="[O:1]([C@@:2]1([H:9])[C:3]([H:10])([H:11])[O:4][C:5]([H:12])=[N:6][C:7]1([H:13])[H:14])[H:8]>>[O:1]([C@@:2]1([H:9])[C:3]([H:10])([H:11])[O+:4]=[C:5]([H:12])[N:6]([H:14])[C-:7]1[H:13])[H:8]"
O       -1.34089994      -0.39941416       1.41277293
C       -1.04423471       0.09040727       0.11170252
C       -0.15604266       1.32039197       0.23261427
O        1.17418487       0.95851552       0.62709726
C        1.69339245      -0.10084344      -0.00895310
N        1.01876615      -0.89171660      -0.75003105
C       -0.38745280      -0.89760977      -0.80289676
H       -0.72876056      -1.10759998       1.62084418
H       -2.00395536       0.40693858      -0.31132242
H       -0.10717782       1.86017137      -0.71900633
H       -0.51607610       1.99204218       1.00853642
H        2.76002347      -0.22672617       0.12282580
H       -0.75693377      -0.91827972      -1.82374309
H        0.39516678      -2.08627704      -0.72044063
