10
Frame=0 idx=007658 GeodesicLength=0.0 rxn_smarts="[N:1]#[C:2][c:3]1[c:4]([H:8])[o:5][c:6]([H:9])[c:7]1[H:10]>>[C:6](#[C:7][H:10])[H:9].[N:1]#[C:2][C:3](=[C:4]=[O:5])[H:8]"
N        2.58393240      -0.88306163       0.69387386
C        1.71381169      -0.23061153       0.30391168
C        0.68262094       0.50056365      -0.26874248
C       -0.04334401       1.51241073       0.24689136
O       -1.09586092       1.99393069       0.52499081
C       -1.56033452      -1.00968617      -0.00752141
C       -0.82686147      -1.48145187      -0.83107307
H        0.97477410       2.11131760       0.19721473
H       -2.20981041      -0.56043425       0.70943557
H       -0.21892780      -1.95297723      -1.56898104
10
Frame=1 idx=007658 GeodesicLength=0.10921634371803032 rxn_smarts="[N:1]#[C:2][c:3]1[c:4]([H:8])[o:5][c:6]([H:9])[c:7]1[H:10]>>[C:6](#[C:7][H:10])[H:9].[N:1]#[C:2][C:3](=[C:4]=[O:5])[H:8]"
N        2.63188323      -0.87799521       0.65054682
C        1.75046542      -0.22483101       0.28941625
C        0.69848092       0.50083690      -0.25620897
C       -0.03153816       1.48889996       0.29774463
O       -1.11524580       1.93343195       0.52479639
C       -1.58564453      -0.96038239      -0.01741871
C       -0.81295737      -1.44150953      -0.80542353
H        0.98034917       2.10849925       0.16812318
H       -2.30844472      -0.56293336       0.65891599
H       -0.20734816      -1.96401656      -1.51049205
10
Frame=2 idx=007658 GeodesicLength=0.21537820631339596 rxn_smarts="[N:1]#[C:2][c:3]1[c:4]([H:8])[o:5][c:6]([H:9])[c:7]1[H:10]>>[C:6](#[C:7][H:10])[H:9].[N:1]#[C:2][C:3](=[C:4]=[O:5])[H:8]"
N        2.66944195      -0.87531660       0.61286476
C        1.78196166      -0.21813518       0.27593718
C        0.71235687       0.50243302      -0.24649578
C       -0.02079145       1.46947349       0.33927313
O       -1.12984851       1.87342899       0.53358989
C       -1.60658563      -0.91400176      -0.02593836
C       -0.80011830      -1.40187928      -0.78315199
H        0.98326672       2.10554856       0.13820946
H       -2.39206325      -0.56702175       0.60713909
H       -0.19762005      -1.97452948      -1.45142738
10
Frame=3 idx=007658 GeodesicLength=0.31926757728899646 rxn_smarts="[N:1]#[C:2][c:3]1[c:4]([H:8])[o:5][c:6]([H:9])[c:7]1[H:10]>>[C:6](#[C:7][H:10])[H:9].[N:1]#[C:2][C:3](=[C:4]=[O:5])[H:8]"
N        2.69875671      -0.87491903       0.57938446
C        1.80951883      -0.21063758       0.26296509
C        0.72459997       0.50510544      -0.23917556
C       -0.01117054       1.45285487       0.37381411
O       -1.14124635       1.81450610       0.54867983
C       -1.62354971      -0.87089535      -0.03271117
C       -0.78793740      -1.36306894      -0.76318375
H        0.98413260       2.10238500       0.10840845
H       -2.46321416      -0.57160049       0.55382993
H       -0.18988995      -1.98373001      -1.39201139
10
Frame=4 idx=007658 GeodesicLength=0.42195994580646334 rxn_smarts="[N:1]#[C:2][c:3]1[c:4]([H:8])[o:5][c:6]([H:9])[c:7]1[H:10]>>[C:6](#[C:7][H:10])[H:9].[N:1]#[C:2][C:3](=[C:4]=[O:5])[H:8]"
N        2.72336337      -0.87582692       0.54679091
C        1.83505849      -0.20220014       0.24949943
C        0.73541913       0.50824503      -0.23313767
C       -0.00242913       1.43775928       0.40459855
O       -1.15028075       1.75665623       0.56912275
C       -1.63748378      -0.83170297      -0.03593487
C       -0.77528307      -1.32725496      -0.74163784
H        0.98299477       2.09905579       0.07905673
H       -2.52732698      -0.57355500       0.49403560
H       -0.18403206      -1.99117633      -1.33239358
10
Frame=5 idx=007658 GeodesicLength=0.5231640339752213 rxn_smarts="[N:1]#[C:2][c:3]1[c:4]([H:8])[o:5][c:6]([H:9])[c:7]1[H:10]>>[C:6](#[C:7][H:10])[H:9].[N:1]#[C:2][C:3](=[C:4]=[O:5])[H:8]"
N        2.74195303      -0.87843357       0.51702808
C        1.85676528      -0.19378015       0.23779384
C        0.74460680       0.51191254      -0.22817697
C        0.00491440       1.42404302       0.43106486
O       -1.15772986       1.70075664       0.58982783
C       -1.64987981      -0.79382969      -0.04179510
C       -0.76359774      -1.29172046      -0.72330151
H        0.98061632       2.09487912       0.05116254
H       -2.57806604      -0.57702708       0.43922026
H       -0.17958238      -1.99680038      -1.27282383
10
Frame=6 idx=007658 GeodesicLength=0.623786109921471 rxn_smarts="[N:1]#[C:2][c:3]1[c:4]([H:8])[o:5][c:6]([H:9])[c:7]1[H:10]>>[C:6](#[C:7][H:10])[H:9].[N:1]#[C:2][C:3](=[C:4]=[O:5])[H:8]"
N        2.75688277      -0.88221626       0.48821785
C        1.87664868      -0.18510081       0.22631709
C        0.75262685       0.51578426      -0.22395250
C        0.01117952       1.41122014       0.45507399
O       -1.16403990       1.64645398       0.61192811
C       -1.66051994      -0.75902257      -0.04586751
C       -0.75157311      -1.25879036      -0.70413024
H        0.97699061       2.09048309       0.02416032
H       -2.62191827      -0.57865640       0.38291341
H       -0.17627720      -2.00015506      -1.21466052
10
Frame=7 idx=007658 GeodesicLength=0.7237993746644462 rxn_smarts="[N:1]#[C:2][c:3]1[c:4]([H:8])[o:5][c:6]([H:9])[c:7]1[H:10]>>[C:6](#[C:7][H:10])[H:9].[N:1]#[C:2][C:3](=[C:4]=[O:5])[H:8]"
N        2.76799555      -0.88716981       0.46085578
C        1.89407364      -0.17661719       0.21614286
C        0.75951293       0.51991658      -0.22029650
C        0.01624655       1.39924461       0.47649254
O       -1.16951059       1.59403591       0.63322035
C       -1.66970881      -0.72622735      -0.05038583
C       -0.73986140      -1.22710110      -0.68628177
H        0.97275117       2.08561759      -0.00148554
H       -2.65759048      -0.58037404       0.32966589
H       -0.17390855      -2.00132520      -1.15792779
10
Frame=8 idx=007658 GeodesicLength=0.8234638632455608 rxn_smarts="[N:1]#[C:2][c:3]1[c:4]([H:8])[o:5][c:6]([H:9])[c:7]1[H:10]>>[C:6](#[C:7][H:10])[H:9].[N:1]#[C:2][C:3](=[C:4]=[O:5])[H:8]"
N        2.77631147      -0.89278003       0.43440051
C        1.90950544      -0.16843025       0.20712209
C        0.76543098       0.52415911      -0.21699799
C        0.02025011       1.38793384       0.49591399
O       -1.17429585       1.54333040       0.65385664
C       -1.67764725      -0.69555721      -0.05464046
C       -0.72830593      -1.19691820      -0.66916168
H        0.96811744       2.08040018      -0.02603988
H       -2.68708648      -0.58156258       0.27839265
H       -0.17227993      -2.00057527      -1.10284587
10
Frame=9 idx=007658 GeodesicLength=0.9230592955736625 rxn_smarts="[N:1]#[C:2][c:3]1[c:4]([H:8])[o:5][c:6]([H:9])[c:7]1[H:10]>>[C:6](#[C:7][H:10])[H:9].[N:1]#[C:2][C:3](=[C:4]=[O:5])[H:8]"
N        2.78275078      -0.89842237       0.40823048
C        1.92335628      -0.16054502       0.19896826
C        0.77044233       0.52829962      -0.21385373
C        0.02331890       1.37700729       0.51390496
O       -1.17848815       1.49397232       0.67425058
C       -1.68469846      -0.66734971      -0.05754069
C       -0.71675984      -1.16850624      -0.65184771
H        0.96304043       2.07470915      -0.04985588
H       -2.71182603      -0.58104241       0.22726154
H       -0.17113625      -1.99812263      -1.04951781
10
Frame=10 idx=007658 GeodesicLength=1.0225493122537868 rxn_smarts="[N:1]#[C:2][c:3]1[c:4]([H:8])[o:5][c:6]([H:9])[c:7]1[H:10]>>[C:6](#[C:7][H:10])[H:9].[N:1]#[C:2][C:3](=[C:4]=[O:5])[H:8]"
N        2.78713845      -0.90446034       0.38306073
C        1.93541138      -0.15328466       0.19228163
C        0.77469929       0.53249946      -0.21088002
C        0.02540481       1.36668032       0.53026341
O       -1.18229870       1.44635818       0.69320730
C       -1.69080865      -0.64063747      -0.06055767
C       -0.70553587      -1.14099949      -0.63615502
H        0.95809373       2.06871913      -0.07269764
H       -2.73167767      -0.58077412       0.17956616
H       -0.17042678      -1.99410100      -0.99808889
10
Frame=11 idx=007658 GeodesicLength=1.1220690738997299 rxn_smarts="[N:1]#[C:2][c:3]1[c:4]([H:8])[o:5][c:6]([H:9])[c:7]1[H:10]>>[C:6](#[C:7][H:10])[H:9].[N:1]#[C:2][C:3](=[C:4]=[O:5])[H:8]"
N        2.79026273      -0.91021181       0.35812467
C        1.94618000      -0.14642138       0.18632746
C        0.77820367       0.53659690      -0.20795103
C        0.02674036       1.35661288       0.54564266
O       -1.18557825       1.39985594       0.71191081
C       -1.69638518      -0.61551477      -0.06316990
C       -0.69446285      -1.11483279      -0.62090578
H        0.95299085       2.06236757      -0.09493651
H       -2.74795894      -0.57937278       0.13271791
H       -0.16999239      -1.98907976      -0.94776029
10
Frame=12 idx=007658 GeodesicLength=1.221653536773272 rxn_smarts="[N:1]#[C:2][c:3]1[c:4]([H:8])[o:5][c:6]([H:9])[c:7]1[H:10]>>[C:6](#[C:7][H:10])[H:9].[N:1]#[C:2][C:3](=[C:4]=[O:5])[H:8]"
N        2.79261386      -0.91540942       0.33292555
C        1.95586888      -0.13990125       0.18092242
C        0.78100399       0.54057399      -0.20497939
C        0.02742095       1.34661859       0.56038566
O       -1.18829879       1.35412659       0.73072053
C       -1.70162627      -0.59141281      -0.06625209
C       -0.68357165      -1.08994087      -0.60607821
H        0.94770440       2.05566317      -0.11655939
H       -2.76128976      -0.57679199       0.08639632
H       -0.16982561      -1.98352599      -0.89748139
10
Frame=13 idx=007658 GeodesicLength=1.3212914690731548 rxn_smarts="[N:1]#[C:2][c:3]1[c:4]([H:8])[o:5][c:6]([H:9])[c:7]1[H:10]>>[C:6](#[C:7][H:10])[H:9].[N:1]#[C:2][C:3](=[C:4]=[O:5])[H:8]"
N        2.79475488      -0.91959386       0.30674136
C        1.96483308      -0.13349640       0.17539683
C        0.78303456       0.54434888      -0.20193173
C        0.02758153       1.33638574       0.57499740
O       -1.19030258       1.30844725       0.75071284
C       -1.70672929      -0.56824188      -0.06978584
C       -0.67283490      -1.06662353      -0.59094001
H        0.94179242       2.04857368      -0.13776270
H       -2.77222239      -0.57181388       0.03848949
H       -0.16990730      -1.97798600      -0.84591764
10
Frame=14 idx=007658 GeodesicLength=1.4208891562627208 rxn_smarts="[N:1]#[C:2][c:3]1[c:4]([H:8])[o:5][c:6]([H:9])[c:7]1[H:10]>>[C:6](#[C:7][H:10])[H:9].[N:1]#[C:2][C:3](=[C:4]=[O:5])[H:8]"
N        2.79587820      -0.92341408       0.28106039
C        1.97276878      -0.12744064       0.17044032
C        0.78443245       0.54803624      -0.19889714
C        0.02709163       1.32631667       0.58887899
O       -1.19186952       1.26334086       0.77042293
C       -1.71119360      -0.54667979      -0.07243377
C       -0.66233931      -1.04434348      -0.57640756
H        0.93575380       2.04117989      -0.15880460
H       -2.78026431      -0.56552562      -0.00868055
H       -0.17025811      -1.97147006      -0.79557900
10
Frame=15 idx=007658 GeodesicLength=1.5205289541096982 rxn_smarts="[N:1]#[C:2][c:3]1[c:4]([H:8])[o:5][c:6]([H:9])[c:7]1[H:10]>>[C:6](#[C:7][H:10])[H:9].[N:1]#[C:2][C:3](=[C:4]=[O:5])[H:8]"
N        2.79579450      -0.92698770       0.25638988
C        1.97966278      -0.12173007       0.16613762
C        0.78523038       0.55164462      -0.19589387
C        0.02593414       1.31649158       0.60192376
O       -1.19305219       1.21883059       0.78960527
C       -1.71489493      -0.52698946      -0.07351012
C       -0.65207104      -1.02296778      -0.56257402
H        0.92966312       2.03346338      -0.17995431
H       -2.78547843      -0.55795739      -0.05476336
H       -0.17078834      -1.96379778      -0.74736086
10
Frame=16 idx=007658 GeodesicLength=1.6202454698467004 rxn_smarts="[N:1]#[C:2][c:3]1[c:4]([H:8])[o:5][c:6]([H:9])[c:7]1[H:10]>>[C:6](#[C:7][H:10])[H:9].[N:1]#[C:2][C:3](=[C:4]=[O:5])[H:8]"
N        2.79433700      -0.93056523       0.23338037
C        1.98550878      -0.11643334       0.16281099
C        0.78555410       0.55522070      -0.19290400
C        0.02409897       1.30710716       0.61394173
O       -1.19396861       1.17523881       0.80771078
C       -1.71782123      -0.50919848      -0.07276849
C       -0.64201346      -1.00222508      -0.54976319
H        0.92382570       2.02543891      -0.20138587
H       -2.78812370      -0.54981619      -0.09855750
H       -0.17139755      -1.95476727      -0.70246481
