16
Frame=0 idx=001286 GeodesicLength=0.0 rxn_smarts="[C:1]([C:2]([C@@:3]([O:4][H:13])([C:5]([O:6][H:16])([H:14])[H:15])[H:12])([H:10])[H:11])([H:7])([H:8])[H:9]>>[C:1](/[C:2](=[C:3](\[O:4][H:13])[H:12])[H:11])([H:7])([H:8])[H:9].[C:5](=[O:6])([H:14])[H:15].[H:10][H:16]"
C       -1.84207930      -0.36196889      -0.58594515
C       -0.79065628      -0.00221958       0.43486586
C        0.37309619      -0.73205758       0.57053570
O        0.71167932      -1.72531312      -0.32386574
C        1.94991546       0.68839236       0.38525565
O        1.65412981       1.68144560      -0.32539723
H       -2.63812157       0.38052320      -0.61140786
H       -1.43614306      -0.42353482      -1.59798068
H       -2.28129430      -1.33354929      -0.34279077
H       -0.48175738       1.39056646      -0.27782957
H       -1.13283084       0.49948477       1.33230352
H        0.75265786      -0.95359843       1.55739340
H        0.30658369      -1.54777103      -1.17544699
H        2.48757975      -0.15002637      -0.06706607
H        2.09525987       0.83453142       1.46501505
H        0.27198079       1.75509529      -0.43763919
16
Frame=1 idx=001286 GeodesicLength=0.12640222697297185 rxn_smarts="[C:1]([C:2]([C@@:3]([O:4][H:13])([C:5]([O:6][H:16])([H:14])[H:15])[H:12])([H:10])[H:11])([H:7])([H:8])[H:9]>>[C:1](/[C:2](=[C:3](\[O:4][H:13])[H:12])[H:11])([H:7])([H:8])[H:9].[C:5](=[O:6])([H:14])[H:15].[H:10][H:16]"
C       -1.85759730      -0.36488471      -0.57156747
C       -0.79920442      -0.00465554       0.44208830
C        0.36540339      -0.74056777       0.56990516
O        0.70544882      -1.71213688      -0.34788991
C        1.95555113       0.67763822       0.38477077
O        1.67867332       1.62111203      -0.40244652
H       -2.66031055       0.37137276      -0.58154420
H       -1.45711726      -0.41513415      -1.58649930
H       -2.28982222      -1.34170155      -0.33705450
H       -0.47963108       1.41323887      -0.27281506
H       -1.14380204       0.47331909       1.35222045
H        0.73308273      -0.99122726       1.55510777
H        0.36290417      -1.47754102      -1.21349483
H        2.53317261      -0.17615736       0.01837535
H        2.05550423       0.90127325       1.45665818
H        0.29774447       1.76605205      -0.46581419
16
Frame=2 idx=001286 GeodesicLength=0.2518481125144162 rxn_smarts="[C:1]([C:2]([C@@:3]([O:4][H:13])([C:5]([O:6][H:16])([H:14])[H:15])[H:12])([H:10])[H:11])([H:7])([H:8])[H:9]>>[C:1](/[C:2](=[C:3](\[O:4][H:13])[H:12])[H:11])([H:7])([H:8])[H:9].[C:5](=[O:6])([H:14])[H:15].[H:10][H:16]"
C       -1.87229207      -0.36793516      -0.55823351
C       -0.80784245      -0.00710629       0.44911144
C        0.35762418      -0.74895751       0.56949224
O        0.69998074      -1.69804022      -0.37122373
C        1.96087586       0.66791029       0.38454706
O        1.70000590       1.56285548      -0.46741165
H       -2.68032253       0.36318211      -0.55497592
H       -1.47596440      -0.40939569      -1.57530885
H       -2.29965586      -1.34864544      -0.33110299
H       -0.47561789       1.43607984      -0.26900568
H       -1.15537700       0.44638996       1.37137162
H        0.71282398      -1.02933189       1.55215944
H        0.41712437      -1.41192714      -1.24352318
H        2.57025106      -0.19420767       0.09680840
H        2.02321911       0.96207207       1.44264656
H        0.32516700       1.77705726      -0.49535125
16
Frame=3 idx=001286 GeodesicLength=0.376197728726323 rxn_smarts="[C:1]([C:2]([C@@:3]([O:4][H:13])([C:5]([O:6][H:16])([H:14])[H:15])[H:12])([H:10])[H:11])([H:7])([H:8])[H:9]>>[C:1](/[C:2](=[C:3](\[O:4][H:13])[H:12])[H:11])([H:7])([H:8])[H:9].[C:5](=[O:6])([H:14])[H:15].[H:10][H:16]"
C       -1.88649348      -0.37121393      -0.54547028
C       -0.81643441      -0.00961286       0.45586837
C        0.34979139      -0.75718710       0.56886659
O        0.69484888      -1.68293429      -0.39412234
C        1.96574736       0.65932160       0.38491202
O        1.71920026       1.50716030      -0.52250840
H       -2.69866890       0.35559012      -0.53057898
H       -1.49357183      -0.40588168      -1.56414273
H       -2.31067194      -1.35473250      -0.32458141
H       -0.46980063       1.45891506      -0.26665072
H       -1.16698277       0.41864341       1.38962171
H        0.69157776      -1.06815176       1.54776844
H        0.46936058      -1.35027286      -1.26712035
H        2.60098869      -0.20556798       0.16968542
H        1.99668930       1.01808064       1.42495172
H        0.35441975       1.78784384      -0.52649906
16
Frame=4 idx=001286 GeodesicLength=0.4998511862607909 rxn_smarts="[C:1]([C:2]([C@@:3]([O:4][H:13])([C:5]([O:6][H:16])([H:14])[H:15])[H:12])([H:10])[H:11])([H:7])([H:8])[H:9]>>[C:1](/[C:2](=[C:3](\[O:4][H:13])[H:12])[H:11])([H:7])([H:8])[H:9].[C:5](=[O:6])([H:14])[H:15].[H:10][H:16]"
C       -1.90051447      -0.37471724      -0.53301655
C       -0.82501227      -0.01220652       0.46240228
C        0.34199357      -0.76529732       0.56784995
O        0.69001038      -1.66691848      -0.41675629
C        1.97020969       0.65187529       0.38602204
O        1.73720297       1.45407316      -0.56957258
H       -2.71593090       0.34842958      -0.50762325
H       -1.51054803      -0.40414287      -1.55293306
H       -2.32280422      -1.36019339      -0.31736484
H       -0.46249983       1.48178450      -0.26588706
H       -1.17850989       0.38999019       1.40710908
H        0.66933828      -1.10793013       1.54159908
H        0.51985136      -1.29219505      -1.28552214
H        2.62690005      -0.21131807       0.23834739
H        1.97483718       1.07028519       1.40462918
H        0.38547612       1.79848116      -0.55928324
16
Frame=5 idx=001286 GeodesicLength=0.6238046906477672 rxn_smarts="[C:1]([C:2]([C@@:3]([O:4][H:13])([C:5]([O:6][H:16])([H:14])[H:15])[H:12])([H:10])[H:11])([H:7])([H:8])[H:9]>>[C:1](/[C:2](=[C:3](\[O:4][H:13])[H:12])[H:11])([H:7])([H:8])[H:9].[C:5](=[O:6])([H:14])[H:15].[H:10][H:16]"
C       -1.91462166      -0.37843101      -0.52063239
C       -0.83361661      -0.01492623       0.46877816
C        0.33438351      -0.77338116       0.56626410
O        0.68569091      -1.65016295      -0.43952884
C        1.97445210       0.64542090       0.38806293
O        1.75448048       1.40355823      -0.61015590
H       -2.73264541       0.34159840      -0.48547469
H       -1.52742700      -0.40378802      -1.54157895
H       -2.33598088      -1.36516691      -0.30936350
H       -0.45397756       1.50472899      -0.26683662
H       -1.18985623       0.36037955       1.42411332
H        0.64635905      -1.14914700       1.53353673
H        0.56862336      -1.23674612      -1.29977649
H        2.64908024      -0.21273545       0.30448783
H        1.95642480       1.11996678       1.38221336
H        0.41863090       1.80883199      -0.59410904
16
Frame=6 idx=001286 GeodesicLength=0.747655830738886 rxn_smarts="[C:1]([C:2]([C@@:3]([O:4][H:13])([C:5]([O:6][H:16])([H:14])[H:15])[H:12])([H:10])[H:11])([H:7])([H:8])[H:9]>>[C:1](/[C:2](=[C:3](\[O:4][H:13])[H:12])[H:11])([H:7])([H:8])[H:9].[C:5](=[O:6])([H:14])[H:15].[H:10][H:16]"
C       -1.92879570      -0.38235731      -0.50824462
C       -0.84226295      -0.01782815       0.47509468
C        0.32686573      -0.78138978       0.56415868
O        0.68144323      -1.63275311      -0.46212647
C        1.97827907       0.64001426       0.39085389
O        1.77163680       1.35541969      -0.64525552
H       -2.74890055       0.33497608      -0.46380917
H       -1.54421256      -0.40445713      -1.53010541
H       -2.34996373      -1.36989289      -0.30071430
H       -0.44448204       1.52793647      -0.26918328
H       -1.20100680       0.32965758       1.44057883
H        0.62243944      -1.19141416       1.52323666
H        0.61604057      -1.18449806      -1.31043542
H        2.66797115      -0.21005245       0.36825608
H        1.94116899       1.16731760       1.35808580
H        0.45377935       1.81932137      -0.63039045
16
Frame=7 idx=001286 GeodesicLength=0.871656151919402 rxn_smarts="[C:1]([C:2]([C@@:3]([O:4][H:13])([C:5]([O:6][H:16])([H:14])[H:15])[H:12])([H:10])[H:11])([H:7])([H:8])[H:9]>>[C:1](/[C:2](=[C:3](\[O:4][H:13])[H:12])[H:11])([H:7])([H:8])[H:9].[C:5](=[O:6])([H:14])[H:15].[H:10][H:16]"
C       -1.94312461      -0.38649549      -0.49574824
C       -0.85100838      -0.02096182       0.48144766
C        0.31944199      -0.78935019       0.56155249
O        0.67721648      -1.61476209      -0.48455299
C        1.98166635       0.63563222       0.39440544
O        1.78900479       1.30950715      -0.67566917
H       -2.76493300       0.32847221      -0.44230162
H       -1.56107193      -0.40587354      -1.51848789
H       -2.36463269      -1.37450423      -0.29148288
H       -0.43424421       1.55150694      -0.27279763
H       -1.21197086       0.29778645       1.45659413
H        0.59763942      -1.23467528       1.51057866
H        0.66227579      -1.13533981      -1.31809614
H        2.68398388      -0.20367184       0.43020879
H        1.92865283       1.21271668       1.33253168
H        0.49110415       1.83001265      -0.66818229
16
Frame=8 idx=001286 GeodesicLength=0.9959058518438976 rxn_smarts="[C:1]([C:2]([C@@:3]([O:4][H:13])([C:5]([O:6][H:16])([H:14])[H:15])[H:12])([H:10])[H:11])([H:7])([H:8])[H:9]>>[C:1](/[C:2](=[C:3](\[O:4][H:13])[H:12])[H:11])([H:7])([H:8])[H:9].[C:5](=[O:6])([H:14])[H:15].[H:10][H:16]"
C       -1.95765407      -0.39084781      -0.48308822
C       -0.85991248      -0.02439172       0.48793237
C        0.31209877      -0.79729895       0.55849864
O        0.67296229      -1.59625479      -0.50681437
C        1.98459180       0.63221678       0.39872300
O        1.80677644       1.26566868      -0.70202510
H       -2.78088739       0.32199893      -0.42073894
H       -1.57808912      -0.40780918      -1.50668570
H       -2.37988482      -1.37909522      -0.28179902
H       -0.42343923       1.57553489      -0.27747060
H       -1.22277742       0.26472566       1.47222277
H        0.57203830      -1.27884315       1.49548989
H        0.70744623      -1.08923486      -1.32313205
H        2.69729405      -0.19382030       0.49073243
H        1.91862380       1.25644172       1.30561665
H        0.53081284       1.84100933      -0.70746176
16
Frame=9 idx=001286 GeodesicLength=1.120742942263798 rxn_smarts="[C:1]([C:2]([C@@:3]([O:4][H:13])([C:5]([O:6][H:16])([H:14])[H:15])[H:12])([H:10])[H:11])([H:7])([H:8])[H:9]>>[C:1](/[C:2](=[C:3](\[O:4][H:13])[H:12])[H:11])([H:7])([H:8])[H:9].[C:5](=[O:6])([H:14])[H:15].[H:10][H:16]"
C       -1.97240453      -0.39543525      -0.47022109
C       -0.86899068      -0.02821301       0.49463130
C        0.30489941      -0.80523596       0.55496745
O        0.66861098      -1.57739808      -0.52895192
C        1.98710440       0.62969863       0.40370278
O        1.82495797       1.22382220      -0.72491134
H       -2.79685477       0.31544506      -0.39890454
H       -1.59534029      -0.41003045      -1.49467539
H       -2.39560666      -1.38379638      -0.27183114
H       -0.41218189       1.60017221      -0.28286786
H       -1.23335050       0.23039129       1.48758303
H        0.54591721      -1.32381212       1.47794280
H        0.75141223      -1.04589361      -1.32583094
H        2.70801075      -0.18106622       0.55051165
H        1.91042743       1.29896478       1.27720391
H        0.57338895       1.85238694      -0.74834871
16
Frame=10 idx=001286 GeodesicLength=1.2459688375043896 rxn_smarts="[C:1]([C:2]([C@@:3]([O:4][H:13])([C:5]([O:6][H:16])([H:14])[H:15])[H:12])([H:10])[H:11])([H:7])([H:8])[H:9]>>[C:1](/[C:2](=[C:3](\[O:4][H:13])[H:12])[H:11])([H:7])([H:8])[H:9].[C:5](=[O:6])([H:14])[H:15].[H:10][H:16]"
C       -1.98741392      -0.40026513      -0.45706589
C       -0.87829704      -0.03250814       0.50164585
C        0.29773215      -0.81322123       0.55104640
O        0.66399596      -1.55805479      -0.55092980
C        1.98899687       0.62815275       0.40933236
O        1.84378850       1.18363479      -0.74471488
H       -2.81290281       0.30872746      -0.37660034
H       -1.61287634      -0.41237301      -1.48238483
H       -2.41176230      -1.38867180      -0.26162838
H       -0.40063286       1.62547469      -0.28878900
H       -1.24371546       0.19475280       1.50261992
H        0.51916450      -1.36934161       1.45772751
H        0.79451651      -1.00547170      -1.32653615
H        2.71624963      -0.16515739       0.60951122
H        1.90407490       1.34028353       1.24761825
H        0.61908171       1.86403877      -0.79085224
16
Frame=11 idx=001286 GeodesicLength=1.3716649413374844 rxn_smarts="[C:1]([C:2]([C@@:3]([O:4][H:13])([C:5]([O:6][H:16])([H:14])[H:15])[H:12])([H:10])[H:11])([H:7])([H:8])[H:9]>>[C:1](/[C:2](=[C:3](\[O:4][H:13])[H:12])[H:11])([H:7])([H:8])[H:9].[C:5](=[O:6])([H:14])[H:15].[H:10][H:16]"
C       -2.00271734      -0.40535239      -0.44356561
C       -0.88788311      -0.03737980       0.50907321
C        0.29056789      -0.82130751       0.54677238
O        0.65903517      -1.53819320      -0.57278543
C        1.99016561       0.62758051       0.41558227
O        1.86328154       1.14490311      -0.76177507
H       -2.82910689       0.30176567      -0.35365671
H       -1.63074917      -0.41466810      -1.46976579
H       -2.42830995      -1.39379458      -0.25129371
H       -0.38890348       1.65152239      -0.29498852
H       -1.25387973       0.15774209       1.51739543
H        0.49188981      -1.41528825       1.43478837
H        0.83685056      -0.96784290      -1.32549736
H        2.72208427      -0.14621747       0.66791966
H        1.89928454       1.38065826       1.21694218
H        0.66839028       1.87587217      -0.83514530
16
Frame=12 idx=001286 GeodesicLength=1.4977091663305855 rxn_smarts="[C:1]([C:2]([C@@:3]([O:4][H:13])([C:5]([O:6][H:16])([H:14])[H:15])[H:12])([H:10])[H:11])([H:7])([H:8])[H:9]>>[C:1](/[C:2](=[C:3](\[O:4][H:13])[H:12])[H:11])([H:7])([H:8])[H:9].[C:5](=[O:6])([H:14])[H:15].[H:10][H:16]"
C       -2.01833844      -0.41070875      -0.42968792
C       -0.89779967      -0.04293100       0.51701333
C        0.28337975      -0.82952968       0.54217738
O        0.65364990      -1.51777707      -0.59454329
C        1.99053470       0.62800116       0.42238926
O        1.88346716       1.10745096      -0.77636073
H       -2.84553176       0.29447468      -0.32993407
H       -1.64898126      -0.41674584      -1.45678083
H       -2.44520428      -1.39923182      -0.24096771
H       -0.37710909       1.67843195      -0.30115472
H       -1.26386700       0.11927243       1.53195263
H        0.46423261      -1.46145401       1.40909370
H        0.87851393      -0.93299372      -1.32282087
H        2.72540291      -0.12422541       0.72586837
H        1.89587995       1.42013479       1.18509636
H        0.72177060       1.88783132      -0.88134090
16
Frame=13 idx=001286 GeodesicLength=1.6240682913885716 rxn_smarts="[C:1]([C:2]([C@@:3]([O:4][H:13])([C:5]([O:6][H:16])([H:14])[H:15])[H:12])([H:10])[H:11])([H:7])([H:8])[H:9]>>[C:1](/[C:2](=[C:3](\[O:4][H:13])[H:12])[H:11])([H:7])([H:8])[H:9].[C:5](=[O:6])([H:14])[H:15].[H:10][H:16]"
C       -2.03429913      -0.41634811      -0.41542434
C       -0.90810111      -0.04927673       0.52556740
C        0.27619008      -0.83787113       0.53728228
O        0.64771938      -1.49687561      -0.61619308
C        1.99005220       0.62945769       0.42962672
O        1.90437405       1.07118921      -0.78873463
H       -2.86225815       0.28674649      -0.30529513
H       -1.66758246      -0.41837111      -1.44341232
H       -2.46238836      -1.40509162      -0.23086591
H       -0.36538537       1.70644887      -0.30684693
H       -1.27370410       0.07914723       1.54638687
H        0.43649943      -1.50760764       1.38071073
H        0.91947058      -0.90096690      -1.31860147
H        2.72600897      -0.09934598       0.78353533
H        1.89350209       1.45887799       1.15187446
H        0.77990191       1.89988735      -0.92960998
16
Frame=14 idx=001286 GeodesicLength=1.7504324828626798 rxn_smarts="[C:1]([C:2]([C@@:3]([O:4][H:13])([C:5]([O:6][H:16])([H:14])[H:15])[H:12])([H:10])[H:11])([H:7])([H:8])[H:9]>>[C:1](/[C:2](=[C:3](\[O:4][H:13])[H:12])[H:11])([H:7])([H:8])[H:9].[C:5](=[O:6])([H:14])[H:15].[H:10][H:16]"
C       -2.05067125      -0.42229616      -0.40067058
C       -0.91884116      -0.05652125       0.53482592
C        0.26889743      -0.84643031       0.53209503
O        0.64116089      -1.47519400      -0.63785447
C        1.98850730       0.63202506       0.43732523
O        1.92601298       1.03581481      -0.79898977
H       -2.87935322       0.27849197      -0.27954450
H       -1.68666523      -0.41947034      -1.42955491
H       -2.47990504      -1.41139582      -0.22096325
H       -0.35383775       1.73556319      -0.31204838
H       -1.28339917       0.03729555       1.56067891
H        0.40861081      -1.55364643       1.34944786
H        0.96002568      -0.87162225      -1.31295467
H        2.72388768      -0.07122205       0.84082808
H        1.89215863       1.49691060       1.11744515
H        0.84341142       1.91169742      -0.98006563
16
Frame=15 idx=001286 GeodesicLength=1.876589496390575 rxn_smarts="[C:1]([C:2]([C@@:3]([O:4][H:13])([C:5]([O:6][H:16])([H:14])[H:15])[H:12])([H:10])[H:11])([H:7])([H:8])[H:9]>>[C:1](/[C:2](=[C:3](\[O:4][H:13])[H:12])[H:11])([H:7])([H:8])[H:9].[C:5](=[O:6])([H:14])[H:15].[H:10][H:16]"
C       -2.06749655      -0.42857810      -0.38537049
C       -0.93007044      -0.06478375       0.54488429
C        0.26147114      -0.85523407       0.52660006
O        0.63388355      -1.45260197      -0.65958996
C        1.98576806       0.63577580       0.44541575
O        1.94837202       1.00117170      -0.80726902
H       -2.89688574       0.26959911      -0.25250873
H       -1.70628740      -0.41988749      -1.41514228
H       -2.49774400      -1.41820852      -0.21136696
H       -0.34260273       1.76592193      -0.31649066
H       -1.29297254      -0.00645974       1.57486536
H        0.38071084      -1.59940254       1.31527702
H        1.00026337      -0.84494298      -1.30591470
H        2.71885220      -0.03976092       0.89775278
H        1.89164845       1.53431634       1.08170910
H        0.91308977       1.92307521      -1.03285155
16
Frame=16 idx=001286 GeodesicLength=2.0023633392860334 rxn_smarts="[C:1]([C:2]([C@@:3]([O:4][H:13])([C:5]([O:6][H:16])([H:14])[H:15])[H:12])([H:10])[H:11])([H:7])([H:8])[H:9]>>[C:1](/[C:2](=[C:3](\[O:4][H:13])[H:12])[H:11])([H:7])([H:8])[H:9].[C:5](=[O:6])([H:14])[H:15].[H:10][H:16]"
C       -2.08485057      -0.43522375      -0.36943714
C       -0.94184819      -0.07418453       0.55584212
C        0.25388388      -0.86429838       0.52075839
O        0.62576052      -1.42886395      -0.68152968
C        1.98167197       0.64084314       0.45381739
O        1.97147897       0.96708028      -0.81364828
H       -2.91496537       0.25992807      -0.22395039
H       -1.72657111      -0.41944347      -1.40008195
H       -2.51591519      -1.42561137      -0.20215669
H       -0.33185602       1.79770223      -0.31997441
H       -1.30241585      -0.05234673       1.58899191
H        0.35295829      -1.64476451       1.27806860
H        1.04030996      -0.82094091      -1.29746474
H        2.71065771      -0.00478875       0.95433492
H        1.89173247       1.57122203       1.04452141
H        0.98996852       1.93369058      -1.08809147
