14
Frame=0 idx=007714 GeodesicLength=0.0 rxn_smarts="[C:1](/[N:2]=[C:3]1\[O:4][C@@:5]2([H:11])[C:6]([H:12])([H:13])[C@@:7]12[H:14])([H:8])([H:9])[H:10]>>[C:1](/[N:2]=[C:3]1\[O:4][C:5]([H:11])([H:12])[C@:7]1([C:6][H:13])[H:14])([H:8])([H:9])[H:10]"
C        2.50207970       0.06259620       0.65015893
N        1.31223861       0.86371191       0.43847033
C        0.27485715       0.32667692       0.03272171
O        0.03146990      -1.01034693      -0.33333519
C       -1.28018904      -0.68190126      -0.76221287
C       -2.13878529       0.17760229       0.62263418
C       -1.12713789       0.75267281      -0.30239074
H        3.35150866       0.56549884       0.18728033
H        2.69906161       0.00573350       1.72217472
H        2.42754044      -0.95315948       0.25317164
H       -1.58800897      -0.95007346      -1.76579752
H       -2.01404890      -1.15008130       0.05495485
H       -3.11395732       0.39553256       0.15090664
H       -1.33662866       1.59553739      -0.94873697
14
Frame=1 idx=007714 GeodesicLength=0.04892750445152892 rxn_smarts="[C:1](/[N:2]=[C:3]1\[O:4][C@@:5]2([H:11])[C:6]([H:12])([H:13])[C@@:7]12[H:14])([H:8])([H:9])[H:10]>>[C:1](/[N:2]=[C:3]1\[O:4][C:5]([H:11])([H:12])[C@:7]1([C:6][H:13])[H:14])([H:8])([H:9])[H:10]"
C        2.50222695       0.06309380       0.64860984
N        1.30919828       0.86218365       0.44730968
C        0.27349753       0.32531210       0.03628390
O        0.03247067      -1.01015372      -0.33302748
C       -1.28168556      -0.68422865      -0.75845563
C       -2.14213448       0.17939337       0.61215621
C       -1.12534560       0.75458891      -0.30537571
H        3.34989124       0.57598001       0.19349926
H        2.69891966      -0.00850250       1.71981794
H        2.43207891      -0.94716204       0.23699639
H       -1.58569775      -0.95155444      -1.76353887
H       -2.01601429      -1.15846300       0.07539435
H       -3.11738369       0.40304889       0.14496475
H       -1.33002189       1.59646362      -0.95463464
14
Frame=2 idx=007714 GeodesicLength=0.09784861332584828 rxn_smarts="[C:1](/[N:2]=[C:3]1\[O:4][C@@:5]2([H:11])[C:6]([H:12])([H:13])[C@@:7]12[H:14])([H:8])([H:9])[H:10]>>[C:1](/[N:2]=[C:3]1\[O:4][C:5]([H:11])([H:12])[C@:7]1([C:6][H:13])[H:14])([H:8])([H:9])[H:10]"
C        2.50226739       0.06356514       0.64717812
N        1.30624188       0.86063488       0.45572030
C        0.27218995       0.32397925       0.03950283
O        0.03354133      -1.00988688      -0.33321509
C       -1.28316327      -0.68647323      -0.75499233
C       -2.14526889       0.18082927       0.60167871
C       -1.12356434       0.75648363      -0.30834947
H        3.34827388       0.58588851       0.19976411
H        2.69862720      -0.02222379       1.71742658
H        2.43630281      -0.94117746       0.22155668
H       -1.58350441      -0.95279408      -1.76155866
H       -2.01767893      -1.16661562       0.09622157
H       -3.12067199       0.41031163       0.13934430
H       -1.32359261       1.59747875      -0.96027764
14
Frame=3 idx=007714 GeodesicLength=0.14676836373978475 rxn_smarts="[C:1](/[N:2]=[C:3]1\[O:4][C@@:5]2([H:11])[C:6]([H:12])([H:13])[C@@:7]12[H:14])([H:8])([H:9])[H:10]>>[C:1](/[N:2]=[C:3]1\[O:4][C:5]([H:11])([H:12])[C@:7]1([C:6][H:13])[H:14])([H:8])([H:9])[H:10]"
C        2.50228010       0.06405080       0.64570421
N        1.30320349       0.85893988       0.46432934
C        0.27081606       0.32256785       0.04286657
O        0.03454553      -1.00969271      -0.33326124
C       -1.28459584      -0.68872144      -0.75164738
C       -2.14848565       0.18210714       0.59100185
C       -1.12177303       0.75832406      -0.31129863
H        3.34650151       0.59574756       0.20600962
H        2.69854212      -0.03599065       1.71475468
H        2.44042313      -0.93494053       0.20609904
H       -1.58111937      -0.95400027      -1.75973300
H       -2.01931949      -1.17440569       0.11747742
H       -3.12396156       0.41754300       0.13353568
H       -1.31705700       1.59847100      -0.96583816
14
Frame=4 idx=007714 GeodesicLength=0.19568566438696353 rxn_smarts="[C:1](/[N:2]=[C:3]1\[O:4][C@@:5]2([H:11])[C:6]([H:12])([H:13])[C@@:7]12[H:14])([H:8])([H:9])[H:10]>>[C:1](/[N:2]=[C:3]1\[O:4][C:5]([H:11])([H:12])[C@:7]1([C:6][H:13])[H:14])([H:8])([H:9])[H:10]"
C        2.50224692       0.06453809       0.64423079
N        1.30013740       0.85713193       0.47293997
C        0.26939541       0.32109169       0.04628914
O        0.03551359      -1.00953560      -0.33332937
C       -1.28597878      -0.69093606      -0.74850705
C       -2.15172133       0.18312126       0.58017419
C       -1.11998511       0.76011440      -0.31418537
H        3.34460514       0.60533593       0.21211119
H        2.69863869      -0.04949628       1.71187770
H        2.44433722      -0.92859965       0.19097876
H       -1.57857853      -0.95505737      -1.75815443
H       -2.02088885      -1.18185979       0.13908934
H       -3.12722392       0.42465607       0.12767727
H       -1.31049787       1.59949537      -0.97119212
14
Frame=5 idx=007714 GeodesicLength=0.24459669407273688 rxn_smarts="[C:1](/[N:2]=[C:3]1\[O:4][C@@:5]2([H:11])[C:6]([H:12])([H:13])[C@@:7]12[H:14])([H:8])([H:9])[H:10]>>[C:1](/[N:2]=[C:3]1\[O:4][C:5]([H:11])([H:12])[C@:7]1([C:6][H:13])[H:14])([H:8])([H:9])[H:10]"
C        2.50210375       0.06497859       0.64291123
N        1.29721168       0.85534994       0.48091157
C        0.26802363       0.31963892       0.04936351
O        0.03656452      -1.00927577      -0.33401083
C       -1.28731835      -0.69301848      -0.74579446
C       -2.15473225       0.18362055       0.56938316
C       -1.11824267       0.76188669      -0.31696923
H        3.34273051       0.61406562       0.21791346
H        2.69865921      -0.06199961       1.70908890
H        2.44781567      -0.92256738       0.17711103
H       -1.57610844      -0.95569024      -1.75702830
H       -2.02214002      -1.18909801       0.16093423
H       -3.13035364       0.43140653       0.12226692
H       -1.30421360       1.60070265      -0.97608119
14
Frame=6 idx=007714 GeodesicLength=0.2934892431501166 rxn_smarts="[C:1](/[N:2]=[C:3]1\[O:4][C@@:5]2([H:11])[C:6]([H:12])([H:13])[C@@:7]12[H:14])([H:8])([H:9])[H:10]>>[C:1](/[N:2]=[C:3]1\[O:4][C:5]([H:11])([H:12])[C@:7]1([C:6][H:13])[H:14])([H:8])([H:9])[H:10]"
C        2.50177237       0.06530396       0.64194437
N        1.29463545       0.85379332       0.48742833
C        0.26682977       0.31833527       0.05154016
O        0.03785166      -1.00872830      -0.33606374
C       -1.28862429      -0.69485385      -0.74378172
C       -2.15721473       0.18331463       0.55887906
C       -1.11660725       0.76369298      -0.31962037
H        3.34108162       0.62123556       0.22326142
H        2.69822569      -0.07262619       1.70680513
H        2.45061390      -0.91738978       0.16559118
H       -1.57401579      -0.95558034      -1.75660094
H       -2.02271899      -1.19628484       0.18287936
H       -3.13322614       0.43749821       0.11795955
H       -1.29860328       1.60228935      -0.98022180
14
Frame=7 idx=007714 GeodesicLength=0.3422617845283103 rxn_smarts="[C:1](/[N:2]=[C:3]1\[O:4][C@@:5]2([H:11])[C:6]([H:12])([H:13])[C@@:7]12[H:14])([H:8])([H:9])[H:10]>>[C:1](/[N:2]=[C:3]1\[O:4][C:5]([H:11])([H:12])[C@:7]1([C:6][H:13])[H:14])([H:8])([H:9])[H:10]"
C        2.50113593       0.06540883       0.64159195
N        1.29268572       0.85275305       0.49137929
C        0.26598752       0.31739477       0.05205311
O        0.03956250      -1.00761317      -0.34048592
C       -1.28994176      -0.69625116      -0.74276148
C       -2.15874943       0.18191637       0.54898134
C       -1.11516522       0.76560197      -0.32213021
H        3.33993768       0.62590544       0.22799246
H        2.69677192      -0.08027111       1.70559108
H        2.45241101      -0.91380173       0.15783270
H       -1.57269879      -0.95421999      -1.75713007
H       -2.02205793      -1.20376287       0.20475129
H       -3.13566406       0.44249114       0.11561879
H       -1.29421509       1.60444844      -0.98328435
14
Frame=8 idx=007714 GeodesicLength=0.3910118146512942 rxn_smarts="[C:1](/[N:2]=[C:3]1\[O:4][C@@:5]2([H:11])[C:6]([H:12])([H:13])[C@@:7]12[H:14])([H:8])([H:9])[H:10]>>[C:1](/[N:2]=[C:3]1\[O:4][C:5]([H:11])([H:12])[C@:7]1([C:6][H:13])[H:14])([H:8])([H:9])[H:10]"
C        2.50030096       0.06536262       0.64162346
N        1.29110524       0.85203071       0.49375535
C        0.26534740       0.31665816       0.05154403
O        0.04152243      -1.00614456      -0.34636933
C       -1.29121560      -0.69739648      -0.74248218
C       -2.15974794       0.17971545       0.53940837
C       -1.11387129       0.76757205      -0.32452957
H        3.33908024       0.62899200       0.23223100
H        2.69472178      -0.08599989       1.70507537
H        2.45356494      -0.91128804       0.15248566
H       -1.57179178      -0.95209275      -1.75839452
H       -2.02054748      -1.21121660       0.22674379
H       -3.13784961       0.44678093       0.11452335
H       -1.29061928       1.60702641      -0.98561479
14
Frame=9 idx=007714 GeodesicLength=0.43976108520262025 rxn_smarts="[C:1](/[N:2]=[C:3]1\[O:4][C@@:5]2([H:11])[C:6]([H:12])([H:13])[C@@:7]12[H:14])([H:8])([H:9])[H:10]>>[C:1](/[N:2]=[C:3]1\[O:4][C:5]([H:11])([H:12])[C@:7]1([C:6][H:13])[H:14])([H:8])([H:9])[H:10]"
C        2.49931491       0.06520166       0.64190652
N        1.28975035       0.85151807       0.49508806
C        0.26483512       0.31606804       0.05031741
O        0.04362667      -1.00443772      -0.35319799
C       -1.29244093      -0.69837741      -0.74275027
C       -2.16040625       0.17695209       0.52999091
C       -1.11269408       0.76957416      -0.32687542
H        3.33840324       0.63103890       0.23618169
H        2.69222632      -0.09051984       1.70502768
H        2.45429288      -0.90949288       0.14868859
H       -1.57109972      -0.94944282      -1.76020449
H       -2.01836785      -1.21853232       0.24900840
H       -3.13985993       0.45057272       0.11428130
H       -1.28758073       1.60987737      -0.98746238
14
Frame=10 idx=007714 GeodesicLength=0.488516028690388 rxn_smarts="[C:1](/[N:2]=[C:3]1\[O:4][C@@:5]2([H:11])[C:6]([H:12])([H:13])[C@@:7]12[H:14])([H:8])([H:9])[H:10]>>[C:1](/[N:2]=[C:3]1\[O:4][C:5]([H:11])([H:12])[C@:7]1([C:6][H:13])[H:14])([H:8])([H:9])[H:10]"
C        2.49826794       0.06499529       0.64222330
N        1.28839333       0.85100995       0.49624490
C        0.26430703       0.31547688       0.04897082
O        0.04570358      -1.00270997      -0.36013228
C       -1.29360121      -0.69933138      -0.74329893
C       -2.16106745       0.17392563       0.52045908
C       -1.11157880       0.77155150      -0.32919174
H        3.33769853       0.63283122       0.23998368
H        2.68968349      -0.09476704       1.70503986
H        2.45488498      -0.90787927       0.14524505
H       -1.57026120      -0.94660812      -1.76233666
H       -2.01590564      -1.22548712       0.27170460
H       -3.14184087       0.45418527       0.11420986
H       -1.28468369       1.61280715      -0.98912153
14
Frame=11 idx=007714 GeodesicLength=0.5372706848426814 rxn_smarts="[C:1](/[N:2]=[C:3]1\[O:4][C@@:5]2([H:11])[C:6]([H:12])([H:13])[C@@:7]12[H:14])([H:8])([H:9])[H:10]>>[C:1](/[N:2]=[C:3]1\[O:4][C:5]([H:11])([H:12])[C@:7]1([C:6][H:13])[H:14])([H:8])([H:9])[H:10]"
C        2.49721610       0.06479192       0.64243779
N        1.28688731       0.85037126       0.49776805
C        0.26367928       0.31479135       0.04785121
O        0.04765062      -1.00110630      -0.36665159
C       -1.29469188      -0.70035335      -0.74395658
C       -2.16192980       0.17082827       0.51064826
C       -1.11048784       0.77346301      -0.33150804
H        3.33684233       0.63489209       0.24379446
H        2.68730654      -0.09938884       1.70484415
H        2.45554565      -0.90606601       0.14134989
H       -1.56906063      -0.94382232      -1.76464079
H       -2.01341473      -1.23191167       0.29496655
H       -3.14387473       0.45782820       0.11389414
H       -1.28166821       1.61568238      -0.99079750
14
Frame=12 idx=007714 GeodesicLength=0.5860258773086167 rxn_smarts="[C:1](/[N:2]=[C:3]1\[O:4][C@@:5]2([H:11])[C:6]([H:12])([H:13])[C@@:7]12[H:14])([H:8])([H:9])[H:10]>>[C:1](/[N:2]=[C:3]1\[O:4][C:5]([H:11])([H:12])[C@:7]1([C:6][H:13])[H:14])([H:8])([H:9])[H:10]"
C        2.49629275       0.06469856       0.64225839
N        1.28492138       0.84929172       0.50083817
C        0.26275481       0.31378432       0.04778359
O        0.04924547      -0.99994766      -0.37163812
C       -1.29569787      -0.70162288      -0.74438082
C       -2.16344009       0.16802213       0.50019871
C       -1.10933797       0.77521995      -0.33383485
H        3.33553865       0.63825131       0.24775840
H        2.68570268      -0.10557781       1.70385218
H        2.45666160      -0.90329920       0.13546301
H       -1.56700432      -0.94152037      -1.76683984
H       -2.01151978      -1.23747772       0.31898207
H       -3.14615959       0.46192930       0.11239824
H       -1.27795773       1.61824833      -0.99283912
14
Frame=13 idx=007714 GeodesicLength=0.6347800522775637 rxn_smarts="[C:1](/[N:2]=[C:3]1\[O:4][C@@:5]2([H:11])[C:6]([H:12])([H:13])[C@@:7]12[H:14])([H:8])([H:9])[H:10]>>[C:1](/[N:2]=[C:3]1\[O:4][C:5]([H:11])([H:12])[C@:7]1([C:6][H:13])[H:14])([H:8])([H:9])[H:10]"
C        2.49550591       0.06473919       0.64164778
N        1.28244424       0.84770996       0.50561554
C        0.26152355       0.31243025       0.04880433
O        0.05046518      -0.99929589      -0.37495315
C       -1.29662786      -0.70318618      -0.74451408
C       -2.16560673       0.16556391       0.48906858
C       -1.10810454       0.77679633      -0.33621215
H        3.33375840       0.64311423       0.25208150
H        2.68486498      -0.11364258       1.70194254
H        2.45832029      -0.89935120       0.12723454
H       -1.56405576      -0.93981477      -1.76886519
H       -2.01033027      -1.24205535       0.34386709
H       -3.14868789       0.46655511       0.10962588
H       -1.27346951       1.62043700      -0.99534320
14
Frame=14 idx=007714 GeodesicLength=0.683528800627294 rxn_smarts="[C:1](/[N:2]=[C:3]1\[O:4][C@@:5]2([H:11])[C:6]([H:12])([H:13])[C@@:7]12[H:14])([H:8])([H:9])[H:10]>>[C:1](/[N:2]=[C:3]1\[O:4][C:5]([H:11])([H:12])[C@:7]1([C:6][H:13])[H:14])([H:8])([H:9])[H:10]"
C        2.49454555       0.06466229       0.64129506
N        1.28017460       0.84632668       0.50932905
C        0.26044125       0.31123199       0.04898011
O        0.05183800      -0.99843790      -0.37921662
C       -1.29751773      -0.70462902      -0.74521204
C       -2.16738862       0.16256020       0.47807928
C       -1.10699410       0.77838170      -0.33860396
H        3.33218198       0.64705157       0.25639279
H        2.68339987      -0.12073988       1.70049499
H        2.45962329      -0.89600166       0.12032469
H       -1.56133012      -0.93764300      -1.77143841
H       -2.00840323      -1.24628873       0.36924389
H       -3.15100255       0.47067011       0.10778176
H       -1.26956818       1.62285565      -0.99745058
14
Frame=15 idx=007714 GeodesicLength=0.732279223727056 rxn_smarts="[C:1](/[N:2]=[C:3]1\[O:4][C@@:5]2([H:11])[C:6]([H:12])([H:13])[C@@:7]12[H:14])([H:8])([H:9])[H:10]>>[C:1](/[N:2]=[C:3]1\[O:4][C:5]([H:11])([H:12])[C@:7]1([C:6][H:13])[H:14])([H:8])([H:9])[H:10]"
C        2.49352119       0.06455301       0.64095575
N        1.27784527       0.84488739       0.51298983
C        0.25934064       0.31000604       0.04900908
O        0.05317517      -0.99763301      -0.38349529
C       -1.29834930      -0.70609968      -0.74619671
C       -2.16916719       0.15930245       0.46692181
C       -1.10594037       0.77990154      -0.34101553
H        3.33054980       0.65091626       0.26076706
H        2.68184012      -0.12784887       1.69902584
H        2.46087973      -0.89264945       0.11346857
H       -1.55840200      -0.93536051      -1.77433748
H       -2.00624843      -1.24989370       0.39526145
H       -3.15326996       0.47462175       0.10608531
H       -1.26577467       1.62529678      -0.99943970
14
Frame=16 idx=007714 GeodesicLength=0.7810426676090906 rxn_smarts="[C:1](/[N:2]=[C:3]1\[O:4][C@@:5]2([H:11])[C:6]([H:12])([H:13])[C@@:7]12[H:14])([H:8])([H:9])[H:10]>>[C:1](/[N:2]=[C:3]1\[O:4][C:5]([H:11])([H:12])[C@:7]1([C:6][H:13])[H:14])([H:8])([H:9])[H:10]"
C        2.49260098       0.06456040       0.64024909
N        1.27505430       0.84295652       0.51812874
C        0.25796818       0.30844329       0.04995555
O        0.05419250      -0.99731066      -0.38635916
C       -1.29910375      -0.70783293      -0.74702867
C       -2.17149157       0.15623698       0.45513614
C       -1.10482316       0.78123052      -0.34345293
H        3.32846492       0.65603297       0.26542612
H        2.68098303      -0.13650896       1.69671857
H        2.46256728      -0.88824976       0.10467548
H       -1.55463636      -0.93353141      -1.77720021
H       -2.00472451      -1.25241425       0.42216392
H       -3.15572584       0.47896360       0.10332867
H       -1.26132601       1.62742369      -1.00174131
