16
Frame=0 idx=009960 GeodesicLength=0.0 rxn_smarts="[C:1]([C:2]#[C:3][C:4]([N:5]1[C:6]([H:13])([H:14])[C:7]1([H:15])[H:16])([H:11])[H:12])([H:8])([H:9])[H:10]>>[C:1]([C:2]#[C:3][C:4]([N+:5]1([H:13])[C-:6]([H:14])[C:7]1([H:15])[H:16])([H:11])[H:12])([H:8])([H:9])[H:10]"
C        3.37650978       0.32105429       0.31119196
C        2.01015473      -0.08390981       0.00591599
C        0.88559478      -0.41853379      -0.23610508
C       -0.49357466      -0.80623300      -0.52965951
N       -1.39970293      -0.35205166       0.52138004
C       -3.04365747      -0.16016827       0.00839792
C       -2.08027744       0.91878333       0.32991887
H        3.74940253       1.02410943      -0.43487351
H        4.04110432      -0.54364857       0.33123451
H        3.41992827       0.80639175       1.28727965
H       -0.79547797      -0.39891181      -1.50265448
H       -0.56802508      -1.89402268      -0.60020463
H       -2.26855672      -1.00923054       0.82013729
H       -2.98873072      -0.39450158      -1.06190089
H       -1.64115213       1.48658246      -0.48646605
H       -2.20353926       1.50429052       1.23640791
16
Frame=1 idx=009960 GeodesicLength=0.05707262616802774 rxn_smarts="[C:1]([C:2]#[C:3][C:4]([N:5]1[C:6]([H:13])([H:14])[C:7]1([H:15])[H:16])([H:11])[H:12])([H:8])([H:9])[H:10]>>[C:1]([C:2]#[C:3][C:4]([N+:5]1([H:13])[C-:6]([H:14])[C:7]1([H:15])[H:16])([H:11])[H:12])([H:8])([H:9])[H:10]"
C        3.37387601       0.32169518       0.31329445
C        2.00880559      -0.08546532       0.00516166
C        0.88445027      -0.42038642      -0.23753874
C       -0.49393875      -0.80724417      -0.53565266
N       -1.40261174      -0.35272980       0.51223730
C       -3.03290568      -0.16356568       0.01215670
C       -2.07542333       0.92272157       0.32673528
H        3.74586670       1.02808385      -0.43007156
H        4.04044513      -0.54154108       0.33104452
H        3.41535685       0.80391755       1.29100719
H       -0.79407749      -0.39795117      -1.50834138
H       -0.56842057      -1.89490475      -0.60806003
H       -2.27403528      -1.01184382       0.84290842
H       -2.99292041      -0.39706115      -1.05856017
H       -1.63972085       1.49052910      -0.49156951
H       -2.19474645       1.50574612       1.23524854
16
Frame=2 idx=009960 GeodesicLength=0.11415636702153695 rxn_smarts="[C:1]([C:2]#[C:3][C:4]([N:5]1[C:6]([H:13])([H:14])[C:7]1([H:15])[H:16])([H:11])[H:12])([H:8])([H:9])[H:10]>>[C:1]([C:2]#[C:3][C:4]([N+:5]1([H:13])[C-:6]([H:14])[C:7]1([H:15])[H:16])([H:11])[H:12])([H:8])([H:9])[H:10]"
C        3.37125115       0.32234805       0.31540844
C        2.00743462      -0.08701078       0.00460147
C        0.88330190      -0.42235020      -0.23869316
C       -0.49427789      -0.80846145      -0.54129054
N       -1.40555760      -0.35327262       0.50328732
C       -3.02225585      -0.16683907       0.01581711
C       -2.07053123       0.92672222       0.32301584
H        3.74118078       1.03429463      -0.42367556
H        4.04035008      -0.53902545       0.32791131
H        3.41142611       0.79882070       1.29598866
H       -0.79261706      -0.39762591      -1.51385907
H       -0.56879444      -1.89602069      -0.61515455
H       -2.27959507      -1.01348998       0.86583649
H       -2.99721446      -0.40000861      -1.05501018
H       -1.63825368       1.49419498      -0.49742996
H       -2.18584737       1.50772415       1.23324638
16
Frame=3 idx=009960 GeodesicLength=0.17122221718305064 rxn_smarts="[C:1]([C:2]#[C:3][C:4]([N:5]1[C:6]([H:13])([H:14])[C:7]1([H:15])[H:16])([H:11])[H:12])([H:8])([H:9])[H:10]>>[C:1]([C:2]#[C:3][C:4]([N+:5]1([H:13])[C-:6]([H:14])[C:7]1([H:15])[H:16])([H:11])[H:12])([H:8])([H:9])[H:10]"
C        3.36873477       0.32294363       0.31746226
C        2.00606161      -0.08822591       0.00399635
C        0.88215835      -0.42380164      -0.24017054
C       -0.49453457      -0.80899690      -0.54772767
N       -1.40848005      -0.35470418       0.49420174
C       -3.01172886      -0.17051759       0.01946468
C       -2.06581341       0.92991670       0.32063190
H        3.73954104       1.03442657      -0.42163305
H        4.03869278      -0.53772887       0.33234936
H        3.40640589       0.80061539       1.29755684
H       -0.79118128      -0.39546516      -1.51964310
H       -0.56889916      -1.89636441      -0.62446715
H       -2.28506307      -1.01600750       0.88752352
H       -3.00164842      -0.40206529      -1.05155240
H       -1.63712425       1.49817566      -0.50124066
H       -2.17712138       1.50779950       1.23324792
16
Frame=4 idx=009960 GeodesicLength=0.2283056180861267 rxn_smarts="[C:1]([C:2]#[C:3][C:4]([N:5]1[C:6]([H:13])([H:14])[C:7]1([H:15])[H:16])([H:11])[H:12])([H:8])([H:9])[H:10]>>[C:1]([C:2]#[C:3][C:4]([N+:5]1([H:13])[C-:6]([H:14])[C:7]1([H:15])[H:16])([H:11])[H:12])([H:8])([H:9])[H:10]"
C        3.36625074       0.32350701       0.31955532
C        2.00469417      -0.08935937       0.00343310
C        0.88102335      -0.42520271      -0.24157417
C       -0.49475952      -0.80961469      -0.55393698
N       -1.41136110      -0.35598552       0.48528268
C       -3.00129451      -0.17416955       0.02310037
C       -2.06111163       0.93312616       0.31782843
H        3.73718741       1.03620009      -0.41831132
H        4.03741493      -0.53622636       0.33463554
H        3.40184013       0.80036635       1.30012149
H       -0.78976481      -0.39374782      -1.52532634
H       -0.56892827      -1.89680995      -0.63323319
H       -2.29053332      -1.01773201       0.90934170
H       -3.00621007      -0.40455214      -1.04780587
H       -1.63611790       1.50192466      -0.50567709
H       -2.16832959       1.50827585       1.23256634
16
Frame=5 idx=009960 GeodesicLength=0.2853982206108212 rxn_smarts="[C:1]([C:2]#[C:3][C:4]([N:5]1[C:6]([H:13])([H:14])[C:7]1([H:15])[H:16])([H:11])[H:12])([H:8])([H:9])[H:10]>>[C:1]([C:2]#[C:3][C:4]([N+:5]1([H:13])[C-:6]([H:14])[C:7]1([H:15])[H:16])([H:11])[H:12])([H:8])([H:9])[H:10]"
C        3.36360675       0.32413318       0.32176946
C        2.00335607      -0.09065073       0.00250403
C        0.87994217      -0.42680936      -0.24339108
C       -0.49500254      -0.81035822      -0.56026179
N       -1.41403312      -0.35730707       0.47644494
C       -2.99084529      -0.17771637       0.02693226
C       -2.05616618       0.93626354       0.31492199
H        3.73457055       1.03858976      -0.41437935
H        4.03622815      -0.53446818       0.33663769
H        3.39681943       0.79959798       1.30309368
H       -0.78853148      -0.39225625      -1.53110958
H       -0.56904939      -1.89737778      -0.64203982
H       -2.29586099      -1.01887328       0.93117608
H       -3.01097416      -0.40713738      -1.04361403
H       -1.63505442       1.50550769      -0.51035713
H       -2.15900555       1.50886246       1.23167264
16
Frame=6 idx=009960 GeodesicLength=0.3424943776714552 rxn_smarts="[C:1]([C:2]#[C:3][C:4]([N:5]1[C:6]([H:13])([H:14])[C:7]1([H:15])[H:16])([H:11])[H:12])([H:8])([H:9])[H:10]>>[C:1]([C:2]#[C:3][C:4]([N+:5]1([H:13])[C-:6]([H:14])[C:7]1([H:15])[H:16])([H:11])[H:12])([H:8])([H:9])[H:10]"
C        3.36100330       0.32474015       0.32398124
C        2.00202983      -0.09188025       0.00163523
C        0.87887654      -0.42835082      -0.24516581
C       -0.49520656      -0.81104581      -0.56655849
N       -1.41666449      -0.35869915       0.46772282
C       -2.98048549      -0.18129473       0.03070435
C       -2.05125515       0.93924750       0.31200053
H        3.73199144       1.04094096      -0.41046220
H        4.03503779      -0.53276091       0.33860835
H        3.39190788       0.79880057       1.30605817
H       -0.78728390      -0.39070728      -1.53684862
H       -0.56909266      -1.89788249      -0.65089471
H       -2.30126601      -1.01963852       0.95279634
H       -3.01580558      -0.40980944      -1.03926294
H       -1.63410592       1.50900174      -0.51502694
H       -2.14968102       1.50933848       1.23071267
16
Frame=7 idx=009960 GeodesicLength=0.39960948712226496 rxn_smarts="[C:1]([C:2]#[C:3][C:4]([N:5]1[C:6]([H:13])([H:14])[C:7]1([H:15])[H:16])([H:11])[H:12])([H:8])([H:9])[H:10]>>[C:1]([C:2]#[C:3][C:4]([N+:5]1([H:13])[C-:6]([H:14])[C:7]1([H:15])[H:16])([H:11])[H:12])([H:8])([H:9])[H:10]"
C        3.35830712       0.32539403       0.32624853
C        2.00073798      -0.09329112       0.00062845
C        0.87785709      -0.43007110      -0.24713444
C       -0.49541001      -0.81177758      -0.57294455
N       -1.41915250      -0.36018311       0.45908470
C       -2.97014286      -0.18480440       0.03453582
C       -2.04618981       0.94210232       0.30909679
H        3.72931956       1.04334531      -0.40647606
H        4.03387808      -0.53090348       0.34079806
H        3.38668215       0.79811403       1.30904622
H       -0.78610380      -0.38915647      -1.54262651
H       -0.56920781      -1.89841214      -0.65993043
H       -2.30668842      -1.02001198       0.97425890
H       -3.02074211      -0.41247757      -1.03462328
H       -1.63311910       1.51239941      -0.51968985
H       -2.14002556       1.50973385       1.22972764
16
Frame=8 idx=009960 GeodesicLength=0.4567236784096501 rxn_smarts="[C:1]([C:2]#[C:3][C:4]([N:5]1[C:6]([H:13])([H:14])[C:7]1([H:15])[H:16])([H:11])[H:12])([H:8])([H:9])[H:10]>>[C:1]([C:2]#[C:3][C:4]([N+:5]1([H:13])[C-:6]([H:14])[C:7]1([H:15])[H:16])([H:11])[H:12])([H:8])([H:9])[H:10]"
C        3.35572732       0.32598458       0.32847174
C        1.99947053      -0.09449741      -0.00033377
C        0.87685372      -0.43148016      -0.24916125
C       -0.49554629      -0.81216686      -0.57956750
N       -1.42159367      -0.36194344       0.45048854
C       -2.95990559      -0.18853756       0.03829595
C       -2.04129037       0.94459002       0.30666146
H        3.72788845       1.04348242      -0.40411772
H        4.03212683      -0.52961346       0.34566574
H        3.38122889       0.79988341       1.31077797
H       -0.78491004      -0.38686436      -1.54844219
H       -0.56913948      -1.89855734      -0.66974732
H       -2.31219634      -1.02059108       0.99514984
H       -3.02572071      -0.41497823      -1.02993009
H       -1.63242942       1.51588830      -0.52361077
H       -2.13056383       1.50940118       1.22939938
16
Frame=9 idx=009960 GeodesicLength=0.5138525439446018 rxn_smarts="[C:1]([C:2]#[C:3][C:4]([N:5]1[C:6]([H:13])([H:14])[C:7]1([H:15])[H:16])([H:11])[H:12])([H:8])([H:9])[H:10]>>[C:1]([C:2]#[C:3][C:4]([N+:5]1([H:13])[C-:6]([H:14])[C:7]1([H:15])[H:16])([H:11])[H:12])([H:8])([H:9])[H:10]"
C        3.35314981       0.32654529       0.33076722
C        1.99823767      -0.09567176      -0.00139069
C        0.87588722      -0.43290696      -0.25122390
C       -0.49566103      -0.81271204      -0.58593619
N       -1.42390545      -0.36343672       0.44208061
C       -2.94971022      -0.19219912       0.04209831
C       -2.03637306       0.94717414       0.30368663
H        3.72546720       1.04583964      -0.39998271
H        4.03092174      -0.52797469       0.34775394
H        3.37620787       0.79892926       1.31386129
H       -0.78378059      -0.38519123      -1.55417189
H       -0.56904374      -1.89888929      -0.67884866
H       -2.31776304      -1.02028351       1.01631183
H       -3.03077943      -0.41801366      -1.02485126
H       -1.63187280       1.51912598      -0.52835893
H       -2.12098217       1.50966469       1.22820440
16
Frame=10 idx=009960 GeodesicLength=0.5709899252513688 rxn_smarts="[C:1]([C:2]#[C:3][C:4]([N:5]1[C:6]([H:13])([H:14])[C:7]1([H:15])[H:16])([H:11])[H:12])([H:8])([H:9])[H:10]>>[C:1]([C:2]#[C:3][C:4]([N+:5]1([H:13])[C-:6]([H:14])[C:7]1([H:15])[H:16])([H:11])[H:12])([H:8])([H:9])[H:10]"
C        3.35037191       0.32717061       0.33319014
C        1.99707687      -0.09702305      -0.00306818
C        0.87501198      -0.43444207      -0.25408691
C       -0.49579821      -0.81313526      -0.59284677
N       -1.42588830      -0.36520591       0.43364790
C       -2.93942767      -0.19590384       0.04619345
C       -2.03119534       0.94946744       0.30120385
H        3.72410106       1.04629864      -0.39700677
H        4.02911486      -0.52652253       0.35296434
H        3.36991716       0.80045122       1.31592720
H       -0.78293359      -0.38300863      -1.56018815
H       -0.56904601      -1.89905047      -0.68894470
H       -2.32312844      -1.02008149       1.03715191
H       -3.03601750      -0.42078060      -1.01930966
H       -1.63135168       1.52241280      -0.53250061
H       -2.11080711       1.50935313       1.22767297
16
Frame=11 idx=009960 GeodesicLength=0.6281496998333043 rxn_smarts="[C:1]([C:2]#[C:3][C:4]([N:5]1[C:6]([H:13])([H:14])[C:7]1([H:15])[H:16])([H:11])[H:12])([H:8])([H:9])[H:10]>>[C:1]([C:2]#[C:3][C:4]([N+:5]1([H:13])[C-:6]([H:14])[C:7]1([H:15])[H:16])([H:11])[H:12])([H:8])([H:9])[H:10]"
C        3.34759206       0.32777359       0.33567151
C        1.99595873      -0.09839352      -0.00479882
C        0.87418066      -0.43605454      -0.25692346
C       -0.49591247      -0.81374343      -0.59946752
N       -1.42774480      -0.36669677       0.42540820
C       -2.92917133      -0.19950547       0.05029036
C       -2.02599133       0.95187167       0.29815853
H        3.72160087       1.04911990      -0.39219396
H        4.02793173      -0.52465780       0.35520040
H        3.36410085       0.79911097       1.31939537
H       -0.78211613      -0.38147192      -1.56609073
H       -0.56904417      -1.89942409      -0.69827475
H       -2.32864727      -1.01897115       1.05826568
H       -3.04128186      -0.42405895      -1.01340783
H       -1.63092477       1.52544607      -0.53747553
H       -2.10053077       1.50965544       1.22624254
16
Frame=12 idx=009960 GeodesicLength=0.685327027283565 rxn_smarts="[C:1]([C:2]#[C:3][C:4]([N:5]1[C:6]([H:13])([H:14])[C:7]1([H:15])[H:16])([H:11])[H:12])([H:8])([H:9])[H:10]>>[C:1]([C:2]#[C:3][C:4]([N+:5]1([H:13])[C-:6]([H:14])[C:7]1([H:15])[H:16])([H:11])[H:12])([H:8])([H:9])[H:10]"
C        3.34460272       0.32845187       0.33824341
C        1.99493700      -0.09997671      -0.00721352
C        0.87345512      -0.43770845      -0.26071630
C       -0.49604351      -0.81401160      -0.60693254
N       -1.42924711      -0.36870142       0.41705606
C       -2.91879867      -0.20327585       0.05467450
C       -2.02053500       0.95378251       0.29612229
H        3.72126720       1.04784958      -0.39018470
H        4.02554428      -0.52335527       0.36341246
H        3.35645251       0.80289324       1.32053898
H       -0.78159154      -0.37877225      -1.57238070
H       -0.56913405      -1.89936106      -0.70938482
H       -2.33397214      -1.01856487       1.07872092
H       -3.04669253      -0.42671768      -1.00713178
H       -1.63056351       1.52871316      -0.54106284
H       -2.08968076       1.50875482       1.22623860
16
Frame=13 idx=009960 GeodesicLength=0.7425346313598072 rxn_smarts="[C:1]([C:2]#[C:3][C:4]([N:5]1[C:6]([H:13])([H:14])[C:7]1([H:15])[H:16])([H:11])[H:12])([H:8])([H:9])[H:10]>>[C:1]([C:2]#[C:3][C:4]([N+:5]1([H:13])[C-:6]([H:14])[C:7]1([H:15])[H:16])([H:11])[H:12])([H:8])([H:9])[H:10]"
C        3.34143523       0.32916948       0.34097393
C        1.99399052      -0.10177475      -0.01004174
C        0.87281836      -0.43967112      -0.26485858
C       -0.49619849      -0.81461829      -0.61423160
N       -1.43047360      -0.37039033       0.40887813
C       -2.90833549      -0.20683841       0.05924969
C       -2.01482475       0.95588266       0.29345426
H        3.71950891       1.04949540      -0.38580944
H        4.02386687      -0.52137835       0.36843111
H        3.34879525       0.80337492       1.32342533
H       -0.78124787      -0.37693773      -1.57868851
H       -0.56937637      -1.89967640      -0.71973351
H       -2.33930612      -1.01709330       1.09966342
H       -3.05218071      -0.42988605      -1.00026072
H       -1.63015970       1.53169138      -0.54567527
H       -2.07831205       1.50865090       1.22522350
16
Frame=14 idx=009960 GeodesicLength=0.7997448509934907 rxn_smarts="[C:1]([C:2]#[C:3][C:4]([N:5]1[C:6]([H:13])([H:14])[C:7]1([H:15])[H:16])([H:11])[H:12])([H:8])([H:9])[H:10]>>[C:1]([C:2]#[C:3][C:4]([N+:5]1([H:13])[C-:6]([H:14])[C:7]1([H:15])[H:16])([H:11])[H:12])([H:8])([H:9])[H:10]"
C        3.33804093       0.32994351       0.34385078
C        1.99313645      -0.10378185      -0.01348845
C        0.87229042      -0.44182090      -0.26971600
C       -0.49637855      -0.81526639      -0.62184332
N       -1.43134995      -0.37211158       0.40073689
C       -2.89773259      -0.21036358       0.06409710
C       -2.00883111       0.95787066       0.29087404
H        3.71792243       1.05098192      -0.38128509
H        4.02201157      -0.51926751       0.37435804
H        3.34021929       0.80425398       1.32627405
H       -0.78117721      -0.37509202      -1.58519741
H       -0.56975364      -1.90000640      -0.73045038
H       -2.34452590      -1.01532694       1.12062305
H       -3.05777239      -0.43307195      -0.99282029
H       -1.62976929       1.53459625      -0.55026375
H       -2.06633046       1.50846278       1.22425073
16
Frame=15 idx=009960 GeodesicLength=0.8569820224222339 rxn_smarts="[C:1]([C:2]#[C:3][C:4]([N:5]1[C:6]([H:13])([H:14])[C:7]1([H:15])[H:16])([H:11])[H:12])([H:8])([H:9])[H:10]>>[C:1]([C:2]#[C:3][C:4]([N+:5]1([H:13])[C-:6]([H:14])[C:7]1([H:15])[H:16])([H:11])[H:12])([H:8])([H:9])[H:10]"
C        3.33455407       0.33071825       0.34682051
C        1.99236034      -0.10586486      -0.01723842
C        0.87184356      -0.44407761      -0.27485015
C       -0.49654774      -0.81605255      -0.62940385
N       -1.43199733      -0.37366440       0.39273066
C       -2.88706109      -0.21381785       0.06904961
C       -2.00271750       0.95990082       0.28797483
H        3.71566604       1.05390531      -0.37552880
H        4.02049475      -0.51685429       0.37875676
H        3.33157104       0.80344559       1.33000212
H       -0.78122788      -0.37364988      -1.59173239
H       -0.57017580      -1.90049416      -0.74082695
H       -2.34986635      -1.01288039       1.14179978
H       -3.06337210      -0.43658919      -0.98493006
H       -1.62945634       1.53733540      -0.55536232
H       -2.05406767       1.50863980       1.22273867
16
Frame=16 idx=009960 GeodesicLength=0.9142280444752175 rxn_smarts="[C:1]([C:2]#[C:3][C:4]([N:5]1[C:6]([H:13])([H:14])[C:7]1([H:15])[H:16])([H:11])[H:12])([H:8])([H:9])[H:10]>>[C:1]([C:2]#[C:3][C:4]([N+:5]1([H:13])[C-:6]([H:14])[C:7]1([H:15])[H:16])([H:11])[H:12])([H:8])([H:9])[H:10]"
C        3.33106872       0.33147721       0.34978736
C        1.99166104      -0.10794842      -0.02112218
C        0.87146298      -0.44627845      -0.28014282
C       -0.49667280      -0.81673751      -0.63706295
N       -1.43248605      -0.37525963       0.38480496
C       -2.87636578      -0.21734510       0.07398629
C       -1.99660984       0.96177663       0.28520114
H        3.71374464       1.05628007      -0.37011558
H        4.01880909      -0.51455449       0.38392191
H        3.32270647       0.80324344       1.33339711
H       -0.78130913      -0.37200025      -1.59828738
H       -0.57055162      -1.90085828      -0.75144624
H       -2.35548083      -1.01031419       1.16279004
H       -3.06891462      -0.44014708      -0.97681266
H       -1.62929217       1.54007181      -0.56024883
H       -2.04177012       1.50859425       1.22134983
