13
Frame=0 idx=005013 GeodesicLength=0.0 rxn_smarts="[O:1]([C@@:2]1([H:8])[C:3]([H:9])([H:10])[N:4]2[C:5]([H:11])([H:12])[C@@:6]12[H:13])[H:7]>>[O:1]1[C@@:2]2([H:8])[C:3]([H:9])([H:10])[N:4]([C:5]([H:7])([H:11])[H:12])[C@@:6]12[H:13]"
O       -1.50525810      -0.86571866       0.88056775
C       -1.26650091       0.02368236      -0.04244625
C       -0.29973359       1.24006804       0.30395161
N        0.80564232       0.62640375      -0.53783994
C        1.18954159      -0.69874487       0.21542392
C       -0.06103248      -0.33915305      -0.97036022
H        0.27010514      -1.34277369       0.49915928
H       -2.11842672       0.34928100      -0.68109563
H       -0.04946468       1.35473911       1.35661943
H       -0.55864568       2.19903136      -0.14490332
H        1.42226136      -0.34319084       1.21397526
H        2.00709495      -1.19690734      -0.28792888
H        0.16441674      -1.00671721      -1.80512296
13
Frame=1 idx=005013 GeodesicLength=0.10636636448927426 rxn_smarts="[O:1]([C@@:2]1([H:8])[C:3]([H:9])([H:10])[N:4]2[C:5]([H:11])([H:12])[C@@:6]12[H:13])[H:7]>>[O:1]1[C@@:2]2([H:8])[C:3]([H:9])([H:10])[N:4]([C:5]([H:7])([H:11])[H:12])[C@@:6]12[H:13]"
O       -1.49016266      -0.88481957       0.85015839
C       -1.27112240       0.03757407      -0.05291467
C       -0.29844041       1.24048478       0.30312195
N        0.80391158       0.62098190      -0.53539123
C        1.19606433      -0.69276118       0.21822368
C       -0.06963834      -0.34750835      -0.96609133
H        0.26407564      -1.34570230       0.53050026
H       -2.12616910       0.35959422      -0.68526026
H       -0.05603990       1.34832222       1.35863235
H       -0.55014317       2.20365999      -0.14065279
H        1.44228746      -0.33670854       1.21367540
H        2.01191826      -1.19112843      -0.28853684
H        0.14345871      -1.01198880      -1.80546492
13
Frame=2 idx=005013 GeodesicLength=0.21267627151641272 rxn_smarts="[O:1]([C@@:2]1([H:8])[C:3]([H:9])([H:10])[N:4]2[C:5]([H:11])([H:12])[C@@:6]12[H:13])[H:7]>>[O:1]1[C@@:2]2([H:8])[C:3]([H:9])([H:10])[N:4]([C:5]([H:7])([H:11])[H:12])[C@@:6]12[H:13]"
O       -1.47529273      -0.90265388       0.81996171
C       -1.27537572       0.05087162      -0.06328948
C       -0.29728534       1.24070317       0.30225720
N        0.80230301       0.61560024      -0.53275479
C        1.20262872      -0.68690302       0.22087417
C       -0.07806095      -0.35578168      -0.96192117
H        0.25773311      -1.34837986       0.56248181
H       -2.13362201       0.36930316      -0.68921493
H       -0.06269215       1.34188450       1.36047622
H       -0.54196191       2.20794086      -0.13644712
H        1.46219499      -0.33059871       1.21316406
H        2.01671498      -1.18551364      -0.28933199
H        0.12271600      -1.01647278      -1.80625571
13
Frame=3 idx=005013 GeodesicLength=0.31897446676117563 rxn_smarts="[O:1]([C@@:2]1([H:8])[C:3]([H:9])([H:10])[N:4]2[C:5]([H:11])([H:12])[C@@:6]12[H:13])[H:7]>>[O:1]1[C@@:2]2([H:8])[C:3]([H:9])([H:10])[N:4]([C:5]([H:7])([H:11])[H:12])[C@@:6]12[H:13]"
O       -1.46054507      -0.91930817       0.79008684
C       -1.27924727       0.06357411      -0.07360504
C       -0.29626183       1.24073393       0.30133912
N        0.80084524       0.61026829      -0.52992377
C        1.20922164      -0.68118308       0.22337502
C       -0.08627078      -0.36393985      -0.95790492
H        0.25094874      -1.35074476       0.59513823
H       -2.14081735       0.37837127      -0.69293386
H       -0.06941435       1.33544465       1.36213735
H       -0.53410832       2.21188426      -0.13231247
H        1.48196251      -0.32489361       1.21245472
H        2.02146748      -1.18009475      -0.29029762
H        0.10221939      -1.02011230      -1.80755359
13
Frame=4 idx=005013 GeodesicLength=0.4252756032111356 rxn_smarts="[O:1]([C@@:2]1([H:8])[C:3]([H:9])([H:10])[N:4]2[C:5]([H:11])([H:12])[C@@:6]12[H:13])[H:7]>>[O:1]1[C@@:2]2([H:8])[C:3]([H:9])([H:10])[N:4]([C:5]([H:7])([H:11])[H:12])[C@@:6]12[H:13]"
O       -1.44581787      -0.93486040       0.76062829
C       -1.28272318       0.07567806      -0.08388572
C       -0.29536243       1.24058752       0.30034936
N        0.79956473       0.60499330      -0.52689233
C        1.21583107      -0.67561767       0.22572508
C       -0.09424149      -0.37195204      -0.95409834
H        0.24359611      -1.35273070       0.62850024
H       -2.14778644       0.38675901      -0.69637963
H       -0.07619687       1.32902401       1.36360123
H       -0.52658903       2.21549776      -0.12827791
H        1.50156159      -0.31963449       1.21156503
H        2.02616855      -1.17489451      -0.29141959
H        0.08199527      -1.02284984      -1.80941571
13
Frame=5 idx=005013 GeodesicLength=0.5316324708023173 rxn_smarts="[O:1]([C@@:2]1([H:8])[C:3]([H:9])([H:10])[N:4]2[C:5]([H:11])([H:12])[C@@:6]12[H:13])[H:7]>>[O:1]1[C@@:2]2([H:8])[C:3]([H:9])([H:10])[N:4]([C:5]([H:7])([H:11])[H:12])[C@@:6]12[H:13]"
O       -1.43101106      -0.94939068       0.73167299
C       -1.28579224       0.08718298      -0.09415020
C       -0.29457800       1.24027459       0.29927128
N        0.79848407       0.59978357      -0.52366075
C        1.22245415      -0.67021696       0.22792005
C       -0.10194956      -0.37979090      -0.95055494
H        0.23553684      -1.35427935       0.66259078
H       -2.15455571       0.39442943      -0.69951370
H       -0.08302523       1.32264317       1.36485429
H       -0.51940949       2.21879116      -0.12436837
H        1.52096047      -0.31486246       1.21051812
H        2.03082133      -1.16992453      -0.29268956
H        0.06206443      -1.02464001      -1.81188999
13
Frame=6 idx=005013 GeodesicLength=0.6380470127036397 rxn_smarts="[O:1]([C@@:2]1([H:8])[C:3]([H:9])([H:10])[N:4]2[C:5]([H:11])([H:12])[C@@:6]12[H:13])[H:7]>>[O:1]1[C@@:2]2([H:8])[C:3]([H:9])([H:10])[N:4]([C:5]([H:7])([H:11])[H:12])[C@@:6]12[H:13]"
O       -1.41603937      -0.96298188       0.70329845
C       -1.28844296       0.09809223      -0.10441939
C       -0.29389577       1.23980623       0.29808805
N        0.79762467       0.59464560      -0.52023033
C        1.22908844      -0.66499095       0.22995399
C       -0.10937458      -0.38742850      -0.94732734
H        0.22665309      -1.35532646       0.69743228
H       -2.16115859       0.40134872      -0.70229021
H       -0.08988630       1.31631904       1.36588471
H       -0.51256909       2.22177658      -0.12060761
H        1.54012189      -0.31062601       1.20933721
H        2.03543615      -1.16518552      -0.29410268
H        0.04244241      -1.02544907      -1.81501713
13
Frame=7 idx=005013 GeodesicLength=0.7445200173016884 rxn_smarts="[O:1]([C@@:2]1([H:8])[C:3]([H:9])([H:10])[N:4]2[C:5]([H:11])([H:12])[C@@:6]12[H:13])[H:7]>>[O:1]1[C@@:2]2([H:8])[C:3]([H:9])([H:10])[N:4]([C:5]([H:7])([H:11])[H:12])[C@@:6]12[H:13]"
O       -1.40081822      -0.97570870       0.67557055
C       -1.29067008       0.10841158      -0.11470455
C       -0.29330209       1.23919257       0.29678475
N        0.79700357       0.58958420      -0.51660803
C        1.23573758      -0.65994758       0.23181955
C       -0.11649981      -0.39484587      -0.94446439
H        0.21682231      -1.35581609       0.73302854
H       -2.16762241       0.40748575      -0.70466213
H       -0.09676506       1.31006770       1.36668250
H       -0.50606635       2.22446509      -0.11701726
H        1.55900841      -0.30697069       1.20805160
H        2.04003373      -1.16066717      -0.29565676
H        0.02313841      -1.02525079      -1.81882436
13
Frame=8 idx=005013 GeodesicLength=0.8510557383523375 rxn_smarts="[O:1]([C@@:2]1([H:8])[C:3]([H:9])([H:10])[N:4]2[C:5]([H:11])([H:12])[C@@:6]12[H:13])[H:7]>>[O:1]1[C@@:2]2([H:8])[C:3]([H:9])([H:10])[N:4]([C:5]([H:7])([H:11])[H:12])[C@@:6]12[H:13]"
O       -1.38527285      -0.98766749       0.64852619
C       -1.29247762       0.11815343      -0.12501774
C       -0.29277988       1.23844285       0.29534991
N        0.79663421       0.58460079      -0.51280775
C        1.24241416      -0.65509102       0.23350199
C       -0.12331274      -0.40203173      -0.94200796
H        0.20592800      -1.35567353       0.76939929
H       -2.17398137       0.41282665      -0.70658423
H       -0.10364154       1.30389548       1.36724034
H       -0.49989207       2.22687497      -0.11360880
H        1.57757926      -0.30394171       1.20669142
H        2.04464656      -1.15634614      -0.29736162
H        0.00415588      -1.02404256      -1.82332104
13
Frame=9 idx=005013 GeodesicLength=0.957604509657693 rxn_smarts="[O:1]([C@@:2]1([H:8])[C:3]([H:9])([H:10])[N:4]2[C:5]([H:11])([H:12])[C@@:6]12[H:13])[H:7]>>[O:1]1[C@@:2]2([H:8])[C:3]([H:9])([H:10])[N:4]([C:5]([H:7])([H:11])[H:12])[C@@:6]12[H:13]"
O       -1.36935419      -0.99896433       0.62221740
C       -1.29385689       0.12735607      -0.13537465
C       -0.29231586       1.23756218       0.29376641
N        0.79649856       0.57967868      -0.50883669
C        1.24912967      -0.65042297       0.23499005
C       -0.12983516      -0.40898939      -0.93995671
H        0.19391954      -1.35486334       0.80653314
H       -2.18020810       0.41736707      -0.70804416
H       -0.11049889       1.29782526       1.36754532
H       -0.49401941       2.22900207      -0.11041798
H        1.59576105      -0.30162092       1.20529453
H        2.04933727      -1.15213529      -0.29923216
H       -0.01455758      -1.02179508      -1.82848449
13
Frame=10 idx=005013 GeodesicLength=1.064182645109781 rxn_smarts="[O:1]([C@@:2]1([H:8])[C:3]([H:9])([H:10])[N:4]2[C:5]([H:11])([H:12])[C@@:6]12[H:13])[H:7]>>[O:1]1[C@@:2]2([H:8])[C:3]([H:9])([H:10])[N:4]([C:5]([H:7])([H:11])[H:12])[C@@:6]12[H:13]"
O       -1.35296313      -1.00963963       0.59667012
C       -1.29480810       0.13600553      -0.14577274
C       -0.29189073       1.23656615       0.29202783
N        0.79663448       0.57484344      -0.50471133
C        1.25589882      -0.64594161       0.23626991
C       -0.13602700      -0.41568407      -0.93838915
H        0.18060785      -1.35331863       0.84440748
H       -2.18637605       0.42105790      -0.70894158
H       -0.11731858       1.29186074       1.36759653
H       -0.48845973       2.23087582      -0.10744165
H        1.61354297      -0.30002309       1.20389507
H        2.05411215      -1.14806016      -0.30127147
H       -0.03295295      -1.01854240      -1.83433902
13
Frame=11 idx=005013 GeodesicLength=1.1707988369905373 rxn_smarts="[O:1]([C@@:2]1([H:8])[C:3]([H:9])([H:10])[N:4]2[C:5]([H:11])([H:12])[C@@:6]12[H:13])[H:7]>>[O:1]1[C@@:2]2([H:8])[C:3]([H:9])([H:10])[N:4]([C:5]([H:7])([H:11])[H:12])[C@@:6]12[H:13]"
O       -1.33604486      -1.01976302       0.57189494
C       -1.29533338       0.14412257      -0.15621176
C       -0.29148625       1.23546269       0.29012640
N        0.79704249       0.57010083      -0.50045379
C        1.26275036      -0.64163097       0.23732244
C       -0.14188482      -0.42211274      -0.93732798
H        0.16586616      -1.35101146       0.88299800
H       -2.19249150       0.42388643      -0.70922674
H       -0.12407915       1.28600682       1.36739117
H       -0.48320230       2.23250808      -0.10468670
H        1.63088765      -0.29918534       1.20253046
H        2.05902021      -1.14406968      -0.30350131
H       -0.05104463      -1.01431420      -1.84085511
13
Frame=12 idx=005013 GeodesicLength=1.2774259462566286 rxn_smarts="[O:1]([C@@:2]1([H:8])[C:3]([H:9])([H:10])[N:4]2[C:5]([H:11])([H:12])[C@@:6]12[H:13])[H:7]>>[O:1]1[C@@:2]2([H:8])[C:3]([H:9])([H:10])[N:4]([C:5]([H:7])([H:11])[H:12])[C@@:6]12[H:13]"
O       -1.31854342      -1.02942333       0.54787494
C       -1.29543726       0.15173498      -0.16669664
C       -0.29108153       1.23426004       0.28805722
N        0.79772379       0.56545447      -0.49608581
C        1.26971085      -0.63747999       0.23812650
C       -0.14740785      -0.42826845      -0.93679495
H        0.14957603      -1.34788106       0.92229637
H       -2.19857250       0.42583972      -0.70884388
H       -0.13076103       1.28026047       1.36692805
H       -0.47822777       2.23391535      -0.10215311
H        1.64775971      -0.29914600       1.20123365
H        2.06411020      -1.14011423      -0.30594785
H       -0.06884922      -1.00915198      -1.84799449
13
Frame=13 idx=005013 GeodesicLength=1.3840362487566686 rxn_smarts="[O:1]([C@@:2]1([H:8])[C:3]([H:9])([H:10])[N:4]2[C:5]([H:11])([H:12])[C@@:6]12[H:13])[H:7]>>[O:1]1[C@@:2]2([H:8])[C:3]([H:9])([H:10])[N:4]([C:5]([H:7])([H:11])[H:12])[C@@:6]12[H:13]"
O       -1.30038633      -1.03869270       0.52459858
C       -1.29512182       0.15886264      -0.17722412
C       -0.29065785       1.23296697       0.28581412
N        0.79867931       0.56090824      -0.49162691
C        1.27680712      -0.63347727       0.23866162
C       -0.15259601      -0.43414093      -0.93681149
H        0.13159726      -1.34387345       0.96227226
H       -2.20462994       0.42689578      -0.70772506
H       -0.13734059       1.27462666       1.36620422
H       -0.47352200       2.23511043      -0.09984708
H        1.66411615      -0.29995169       1.20003829
H        2.06943443      -1.13613977      -0.30863561
H       -0.08637975      -1.00309491      -1.85571883
13
Frame=14 idx=005013 GeodesicLength=1.4906347032965959 rxn_smarts="[O:1]([C@@:2]1([H:8])[C:3]([H:9])([H:10])[N:4]2[C:5]([H:11])([H:12])[C@@:6]12[H:13])[H:7]>>[O:1]1[C@@:2]2([H:8])[C:3]([H:9])([H:10])[N:4]([C:5]([H:7])([H:11])[H:12])[C@@:6]12[H:13]"
O       -1.28151068      -1.04760038       0.50207379
C       -1.29438913       0.16552058      -0.18778359
C       -0.29019581       1.23159411       0.28339309
N        0.79990974       0.55647192      -0.48710188
C        1.28408260      -0.62959692       0.23889927
C       -0.15744356      -0.43972909      -0.93738695
H        0.11174309      -1.33898648       1.00284931
H       -2.21066514       0.42702431      -0.70579916
H       -0.14378669       1.26911596       1.36521918
H       -0.46907656       2.23610744      -0.09777272
H        1.67991243      -0.30164493       1.19898192
H        2.07506195      -1.13207121      -0.31159853
H       -0.10364224      -0.99620530      -1.86397374
13
Frame=15 idx=005013 GeodesicLength=1.5972050196503673 rxn_smarts="[O:1]([C@@:2]1([H:8])[C:3]([H:9])([H:10])[N:4]2[C:5]([H:11])([H:12])[C@@:6]12[H:13])[H:7]>>[O:1]1[C@@:2]2([H:8])[C:3]([H:9])([H:10])[N:4]([C:5]([H:7])([H:11])[H:12])[C@@:6]12[H:13]"
O       -1.26184621      -1.05618298       0.48030715
C       -1.29324124       0.17172602      -0.19836483
C       -0.28967605       1.23015186       0.28079057
N        0.80141412       0.55215529      -0.48253538
C        1.29158030      -0.62581215       0.23880983
C       -0.16194757      -0.44502905      -0.93852838
H        0.08981834      -1.33320814       1.04394459
H       -2.21667497       0.42619575      -0.70299225
H       -0.15006812       1.26373682       1.36397311
H       -0.46488113       2.23692068      -0.09593269
H        1.69510588      -0.30426927       1.19810033
H        2.08106278      -1.12783235      -0.31487272
H       -0.12064612      -0.98855247      -1.87269933
13
Frame=16 idx=005013 GeodesicLength=1.703734846372767 rxn_smarts="[O:1]([C@@:2]1([H:8])[C:3]([H:9])([H:10])[N:4]2[C:5]([H:11])([H:12])[C@@:6]12[H:13])[H:7]>>[O:1]1[C@@:2]2([H:8])[C:3]([H:9])([H:10])[N:4]([C:5]([H:7])([H:11])[H:12])[C@@:6]12[H:13]"
O       -1.24132366      -1.06447273       0.45929747
C       -1.29168119       0.17749740      -0.20895251
C       -0.28907867       1.22865034       0.27800537
N        0.80319089       0.54796977      -0.47795500
C        1.29935139      -0.62209057       0.23836192
C       -0.16610548      -0.45003996      -0.94023604
H        0.06559780      -1.32652907       1.08546177
H       -2.22265107       0.42437930      -0.69922345
H       -0.15614983       1.25849498       1.36246691
H       -0.46092496       2.23756441      -0.09432606
H        1.70966186      -0.30786316       1.19742516
H        2.08751476      -1.12333966      -0.31849860
H       -0.13740184      -0.98022106      -1.88182693
