9
Frame=0 idx=000925 GeodesicLength=0.0 rxn_smarts="[N:1]([c:2]1[n:3][n:4]([H:9])[n:5][n:6]1)([H:7])[H:8]>>[N:1]([C:2]#[N:3])([H:7])[H:8].[N:4](=[N+:5]=[N-:6])[H:9]"
N       -1.79209780       0.02490901       0.25139096
C       -0.50674027      -0.36807080       0.16710736
N        0.28150669      -1.24163754       0.37536903
N        1.99107946      -0.29919787      -0.31365289
N        1.45841186       0.81767294      -0.45434251
N        0.37350158       1.22951166      -0.47485455
H       -2.48389480      -0.69806195       0.34093967
H       -2.05534020       0.83869841      -0.27400153
H        2.73357347      -0.30382383       0.38204444
9
Frame=1 idx=000925 GeodesicLength=0.03301877254552951 rxn_smarts="[N:1]([c:2]1[n:3][n:4]([H:9])[n:5][n:6]1)([H:7])[H:8]>>[N:1]([C:2]#[N:3])([H:7])[H:8].[N:4](=[N+:5]=[N-:6])[H:9]"
N       -1.79339828       0.02283110       0.25688894
C       -0.50428714      -0.35800514       0.17142292
N        0.29032095      -1.22977070       0.37776743
N        1.98802852      -0.29826285      -0.32023174
N        1.46641029       0.82482372      -0.46080176
N        0.37771157       1.23493638      -0.48097531
H       -2.47825702      -0.70818150       0.33473887
H       -2.06121814       0.83457448      -0.26979620
H        2.71468925      -0.32294549       0.39098685
9
Frame=2 idx=000925 GeodesicLength=0.06605142927530394 rxn_smarts="[N:1]([c:2]1[n:3][n:4]([H:9])[n:5][n:6]1)([H:7])[H:8]>>[N:1]([C:2]#[N:3])([H:7])[H:8].[N:4](=[N+:5]=[N-:6])[H:9]"
N       -1.79471677       0.02072995       0.26235928
C       -0.50197915      -0.34796464       0.17563195
N        0.29871945      -1.21828190       0.37951347
N        1.98506199      -0.29741359      -0.32591628
N        1.47448472       0.83165489      -0.46711807
N        0.38202986       1.24012736      -0.48726902
H       -2.47254950      -0.71804045       0.32879685
H       -2.06710137       0.83048314      -0.26549435
H        2.69605077      -0.34129477       0.39949617
9
Frame=3 idx=000925 GeodesicLength=0.09909432000673993 rxn_smarts="[N:1]([c:2]1[n:3][n:4]([H:9])[n:5][n:6]1)([H:7])[H:8]>>[N:1]([C:2]#[N:3])([H:7])[H:8].[N:4](=[N+:5]=[N-:6])[H:9]"
N       -1.79609501       0.01857079       0.26775544
C       -0.49977238      -0.33780002       0.18008477
N        0.30673844      -1.20700950       0.38105173
N        1.98210004      -0.29671487      -0.33093218
N        1.48259820       0.83814040      -0.47338681
N        0.38644338       1.24515305      -0.49350365
H       -2.46675149      -0.72778070       0.32267253
H       -2.07297129       0.82643184      -0.26110390
H        2.67771011      -0.35899097       0.40736207
9
Frame=4 idx=000925 GeodesicLength=0.13217263770586135 rxn_smarts="[N:1]([c:2]1[n:3][n:4]([H:9])[n:5][n:6]1)([H:7])[H:8]>>[N:1]([C:2]#[N:3])([H:7])[H:8].[N:4](=[N+:5]=[N-:6])[H:9]"
N       -1.79779713       0.01628462       0.27280436
C       -0.49759604      -0.32685291       0.18643801
N        0.31439343      -1.19550982       0.38391683
N        1.97880097      -0.29632339      -0.33598561
N        1.49073337       0.84432918      -0.47961754
N        0.39103613       1.25046974      -0.49853583
H       -2.46082275      -0.73782608       0.31524406
H       -2.07881701       0.82207647      -0.25751313
H        2.66006904      -0.37664782       0.41324886
9
Frame=5 idx=000925 GeodesicLength=0.16512658631748264 rxn_smarts="[N:1]([c:2]1[n:3][n:4]([H:9])[n:5][n:6]1)([H:7])[H:8]>>[N:1]([C:2]#[N:3])([H:7])[H:8].[N:4](=[N+:5]=[N-:6])[H:9]"
N       -1.79849223       0.01423659       0.27921818
C       -0.49590004      -0.31873005       0.18576890
N        0.32146468      -1.18671271       0.37936483
N        1.97732106      -0.29497192      -0.33762006
N        1.49930474       0.85038652      -0.48553891
N        0.39543559       1.25354757      -0.50929915
H       -2.45521662      -0.74595124       0.31276649
H       -2.08488457       0.81938348      -0.24973171
H        2.64096740      -0.39118824       0.42507143
9
Frame=6 idx=000925 GeodesicLength=0.19836078817842984 rxn_smarts="[N:1]([c:2]1[n:3][n:4]([H:9])[n:5][n:6]1)([H:7])[H:8]>>[N:1]([C:2]#[N:3])([H:7])[H:8].[N:4](=[N+:5]=[N-:6])[H:9]"
N       -1.80023738       0.01183265       0.28420521
C       -0.49376019      -0.30726626       0.19292505
N        0.32851104      -1.17536019       0.38177265
N        1.97385995      -0.29496074      -0.34158856
N        1.50736589       0.85579668      -0.49179488
N        0.40011643       1.25841839      -0.51444620
H       -2.44889309      -0.75580077       0.30471923
H       -2.09066286       0.81504039      -0.24578818
H        2.62370021      -0.40770015       0.42999568
9
Frame=7 idx=000925 GeodesicLength=0.23151883297786985 rxn_smarts="[N:1]([c:2]1[n:3][n:4]([H:9])[n:5][n:6]1)([H:7])[H:8]>>[N:1]([C:2]#[N:3])([H:7])[H:8].[N:4](=[N+:5]=[N-:6])[H:9]"
N       -1.80187465       0.00932115       0.28938293
C       -0.49191362      -0.29632040       0.19899870
N        0.33514747      -1.16464169       0.38313995
N        1.97072674      -0.29489450      -0.34467154
N        1.51557084       0.86094494      -0.49815821
N        0.40483179       1.26281825      -0.52060222
H       -2.44256211      -0.76532611       0.29696232
H       -2.09647427       0.81125759      -0.24066581
H        2.60654782      -0.42315924       0.43561390
9
Frame=8 idx=000925 GeodesicLength=0.2646221577461054 rxn_smarts="[N:1]([c:2]1[n:3][n:4]([H:9])[n:5][n:6]1)([H:7])[H:8]>>[N:1]([C:2]#[N:3])([H:7])[H:8].[N:4](=[N+:5]=[N-:6])[H:9]"
N       -1.80353822       0.00664280       0.29456965
C       -0.49012251      -0.28529451       0.20533893
N        0.34149529      -1.15401771       0.38461459
N        1.96754900      -0.29498912      -0.34733044
N        1.52375721       0.86571108      -0.50471175
N        0.40958295       1.26693986      -0.52697705
H       -2.43606380      -0.77480611       0.28840489
H       -2.10225621       0.80777238      -0.23483216
H        2.58959628      -0.43795869       0.44092334
9
Frame=9 idx=000925 GeodesicLength=0.2977170548795459 rxn_smarts="[N:1]([c:2]1[n:3][n:4]([H:9])[n:5][n:6]1)([H:7])[H:8]>>[N:1]([C:2]#[N:3])([H:7])[H:8].[N:4](=[N+:5]=[N-:6])[H:9]"
N       -1.80534817       0.00376225       0.29964763
C       -0.48837355      -0.27389463       0.21260733
N        0.34757079      -1.14322797       0.38675463
N        1.96417624      -0.29535648      -0.34979542
N        1.53188144       0.87004214      -0.51157443
N        0.41434599       1.27094614      -0.53316009
H       -2.42930544      -0.78440477       0.27857264
H       -2.10805765       0.80448374      -0.22855098
H        2.57311035      -0.45235039       0.44549868
9
Frame=10 idx=000925 GeodesicLength=0.3308684722149894 rxn_smarts="[N:1]([c:2]1[n:3][n:4]([H:9])[n:5][n:6]1)([H:7])[H:8]>>[N:1]([C:2]#[N:3])([H:7])[H:8].[N:4](=[N+:5]=[N-:6])[H:9]"
N       -1.80713750       0.00062816       0.30475368
C       -0.48676768      -0.26245451       0.21979617
N        0.35340876      -1.13244975       0.38922468
N        1.96077001      -0.29590017      -0.35183518
N        1.53994802       0.87394347      -0.51871923
N        0.41906514       1.27461826      -0.53974455
H       -2.42228061      -0.79396181       0.26768381
H       -2.11385253       0.80165861      -0.22110492
H        2.55684638      -0.46608225       0.44994555
9
Frame=11 idx=000925 GeodesicLength=0.3640237376792522 rxn_smarts="[N:1]([c:2]1[n:3][n:4]([H:9])[n:5][n:6]1)([H:7])[H:8]>>[N:1]([C:2]#[N:3])([H:7])[H:8].[N:4](=[N+:5]=[N-:6])[H:9]"
N       -1.80879585      -0.00281169       0.31004251
C       -0.48527834      -0.25128348       0.22631112
N        0.35905891      -1.12186916       0.39162949
N        1.95744525      -0.29653763      -0.35322953
N        1.54793080       0.87738789      -0.52625462
N        0.42370271       1.27771723      -0.54724873
H       -2.41510191      -0.80331767       0.25572318
H       -2.11955684       0.79954993      -0.21179930
H        2.54059526      -0.47883543       0.45482590
9
Frame=12 idx=000925 GeodesicLength=0.3971723022393545 rxn_smarts="[N:1]([c:2]1[n:3][n:4]([H:9])[n:5][n:6]1)([H:7])[H:8]>>[N:1]([C:2]#[N:3])([H:7])[H:8].[N:4](=[N+:5]=[N-:6])[H:9]"
N       -1.81044441      -0.00653092       0.31538547
C       -0.48390924      -0.24020754       0.23272182
N        0.36451323      -1.11135675       0.39424949
N        1.95417880      -0.29733623      -0.35421846
N        1.55585670       0.88039594      -0.53415936
N        0.42824594       1.28040347      -0.55526007
H       -2.40767230      -0.81245964       0.24261249
H       -2.12536296       0.79794193      -0.20113020
H        2.52459425      -0.49085025       0.45979881
9
Frame=13 idx=000925 GeodesicLength=0.43039370403406974 rxn_smarts="[N:1]([c:2]1[n:3][n:4]([H:9])[n:5][n:6]1)([H:7])[H:8]>>[N:1]([C:2]#[N:3])([H:7])[H:8].[N:4](=[N+:5]=[N-:6])[H:9]"
N       -1.81225134      -0.01060340       0.32057211
C       -0.48257676      -0.22863964       0.24028973
N        0.36984282      -1.10047811       0.39820569
N        1.95052977      -0.29846896      -0.35517949
N        1.56359716       0.88282548      -0.54259498
N        0.43272125       1.28287123      -0.56309700
H       -2.39978594      -0.82166188       0.22742261
H       -2.13118347       0.79663262      -0.18956141
H        2.50910651      -0.50247734       0.46394274
9
Frame=14 idx=000925 GeodesicLength=0.4635788225507093 rxn_smarts="[N:1]([c:2]1[n:3][n:4]([H:9])[n:5][n:6]1)([H:7])[H:8]>>[N:1]([C:2]#[N:3])([H:7])[H:8].[N:4](=[N+:5]=[N-:6])[H:9]"
N       -1.81398393      -0.01513460       0.32593267
C       -0.48131553      -0.21727749       0.24761104
N        0.37504859      -1.08969541       0.40245909
N        1.94696952      -0.29976683      -0.35558968
N        1.57115670       0.88467790      -0.55170088
N        0.43695586       1.28461889      -0.57203736
H       -2.39158246      -0.83053426       0.21021822
H       -2.13701867       0.79618714      -0.17550312
H        2.49376992      -0.51307535       0.46861002
9
Frame=15 idx=000925 GeodesicLength=0.49681231361863853 rxn_smarts="[N:1]([c:2]1[n:3][n:4]([H:9])[n:5][n:6]1)([H:7])[H:8]>>[N:1]([C:2]#[N:3])([H:7])[H:8].[N:4](=[N+:5]=[N-:6])[H:9]"
N       -1.81563190      -0.02000036       0.33136406
C       -0.48017938      -0.20605938       0.25457929
N        0.38011992      -1.07904975       0.40674642
N        1.94348102      -0.30112907      -0.35553643
N        1.57861183       0.88608047      -0.56111546
N        0.44103394       1.28579737      -0.58166471
H       -2.38309640      -0.83890305       0.19188108
H       -2.14292786       0.79613832      -0.15983770
H        2.47858884      -0.52287454       0.47358346
9
Frame=16 idx=000925 GeodesicLength=0.5300512266191071 rxn_smarts="[N:1]([c:2]1[n:3][n:4]([H:9])[n:5][n:6]1)([H:7])[H:8]>>[N:1]([C:2]#[N:3])([H:7])[H:8].[N:4](=[N+:5]=[N-:6])[H:9]"
N       -1.81716570      -0.02519364       0.33691314
C       -0.47912195      -0.19511295       0.26109377
N        0.38505778      -1.06869957       0.41076125
N        1.94014583      -0.30249985      -0.35494355
N        1.58594827       0.88706214      -0.57088087
N        0.44491737       1.28634780      -0.59213291
H       -2.37440770      -0.84660314       0.17249590
H       -2.14888370       0.79646739      -0.14242805
H        2.46350981      -0.53176817       0.47912132
