11
Frame=0 idx=002068 GeodesicLength=0.0 rxn_smarts="[C:1]([c:2]1[c:3]([H:10])[o:4][c:5]([H:11])[n:6]1)([H:7])([H:8])[H:9]>>[C:1]([C:2]1=[N:6][C@:5]2([H:11])[C@@:3]1([H:10])[O:4]2)([H:7])([H:8])[H:9]"
C       -1.51983786      -0.34482538      -0.03997426
C       -0.11433313       0.02625176      -0.34717311
C        0.59308923       1.06754123       0.22695756
O        1.94510986       0.97194846      -0.24381489
C        1.58647625      -0.35677953      -0.20770816
N        0.71461772      -0.81350837      -1.10781790
H       -1.55092467      -1.27832938       0.52169608
H       -2.04091512      -0.51084535      -0.98396062
H       -2.02201688       0.44136407       0.52416364
H        0.37096452       1.72814274       1.04882525
H        2.03777003      -0.93096022       0.60880637
11
Frame=1 idx=002068 GeodesicLength=0.0482266124634204 rxn_smarts="[C:1]([c:2]1[c:3]([H:10])[o:4][c:5]([H:11])[n:6]1)([H:7])([H:8])[H:9]>>[C:1]([C:2]1=[N:6][C@:5]2([H:11])[C@@:3]1([H:10])[O:4]2)([H:7])([H:8])[H:9]"
C       -1.53079431      -0.34437898      -0.04383893
C       -0.11961767       0.01547251      -0.33621228
C        0.59484513       1.05879981       0.23200971
O        1.93690490       0.97776344      -0.26154488
C        1.59895457      -0.35475017      -0.19823621
N        0.71302932      -0.82770852      -1.08045482
H       -1.57648660      -1.28651229       0.50269022
H       -2.04947193      -0.48693383      -0.99331504
H       -2.02930705       0.43706189       0.53052207
H        0.37729370       1.73136648       1.04539898
H        2.08464993      -0.92018033       0.60298118
11
Frame=2 idx=002068 GeodesicLength=0.09639495039246408 rxn_smarts="[C:1]([c:2]1[c:3]([H:10])[o:4][c:5]([H:11])[n:6]1)([H:7])([H:8])[H:9]>>[C:1]([C:2]1=[N:6][C@:5]2([H:11])[C@@:3]1([H:10])[O:4]2)([H:7])([H:8])[H:9]"
C       -1.54190407      -0.34378885      -0.04784276
C       -0.12499517       0.00433456      -0.32440665
C        0.59665567       1.04972379       0.23763792
O        1.92788200       0.98304085      -0.27947444
C        1.61162600      -0.35261897      -0.18864336
N        0.71143159      -0.84260511      -1.05145556
H       -1.60270853      -1.29415394       0.48322733
H       -2.05718602      -0.46268847      -1.00275953
H       -2.03704605       0.43280346       0.53639468
H        0.38357224       1.73450864       1.04202433
H        2.13267234      -0.90855597       0.59529804
11
Frame=3 idx=002068 GeodesicLength=0.144443132897255 rxn_smarts="[C:1]([c:2]1[c:3]([H:10])[o:4][c:5]([H:11])[n:6]1)([H:7])([H:8])[H:9]>>[C:1]([C:2]1=[N:6][C@:5]2([H:11])[C@@:3]1([H:10])[O:4]2)([H:7])([H:8])[H:9]"
C       -1.55312008      -0.34305394      -0.05199341
C       -0.13047612      -0.00709743      -0.31176003
C        0.59853745       1.04034677       0.24386995
O        1.91802683       0.98773424      -0.29750690
C        1.62445218      -0.35038798      -0.17893100
N        0.70983513      -0.85812409      -1.02074579
H       -1.62947734      -1.30118185       0.46340853
H       -2.06394888      -0.43829717      -1.01227482
H       -2.04526629       0.42865556       0.54164357
H        0.38980597       1.73754425       1.03875016
H        2.18163115      -0.89613835       0.58553974
11
Frame=4 idx=002068 GeodesicLength=0.1923736812844733 rxn_smarts="[C:1]([c:2]1[c:3]([H:10])[o:4][c:5]([H:11])[n:6]1)([H:7])([H:8])[H:9]>>[C:1]([C:2]1=[N:6][C@:5]2([H:11])[C@@:3]1([H:10])[O:4]2)([H:7])([H:8])[H:9]"
C       -1.56439336      -0.34217402      -0.05628698
C       -0.13607773      -0.01874658      -0.29829019
C        0.60051287       1.03066730       0.25075981
O        1.90735215       0.99176123      -0.31547406
C        1.63741570      -0.34806523      -0.16910380
N        0.70824395      -0.87414905      -0.98828607
H       -1.65662255      -1.30753421       0.44330754
H       -2.06970112      -0.41392784      -1.02185616
H       -2.05398683       0.42464677       0.54619841
H        0.39595559       1.74054337       1.03552277
H        2.23130133      -0.88302175       0.57350874
11
Frame=5 idx=002068 GeodesicLength=0.24018660209494655 rxn_smarts="[C:1]([c:2]1[c:3]([H:10])[o:4][c:5]([H:11])[n:6]1)([H:7])([H:8])[H:9]>>[C:1]([C:2]1=[N:6][C@:5]2([H:11])[C@@:3]1([H:10])[O:4]2)([H:7])([H:8])[H:9]"
C       -1.57569878      -0.34113651      -0.06075973
C       -0.14180865      -0.03063332      -0.28390738
C        0.60256850       1.02071292       0.25828803
O        1.89575710       0.99508359      -0.33344846
C        1.65049628      -0.34563084      -0.15912177
N        0.70666154      -0.89072439      -0.95382541
H       -1.68413707      -1.31316213       0.42292237
H       -2.07434585      -0.38960022      -1.03156001
H       -2.06323068       0.42083230       0.54994400
H        0.40208779       1.74334367       1.03247416
H        2.28164981      -0.86908509       0.55899420
11
Frame=6 idx=002068 GeodesicLength=0.28781794315153786 rxn_smarts="[C:1]([c:2]1[c:3]([H:10])[o:4][c:5]([H:11])[n:6]1)([H:7])([H:8])[H:9]>>[C:1]([C:2]1=[N:6][C@:5]2([H:11])[C@@:3]1([H:10])[O:4]2)([H:7])([H:8])[H:9]"
C       -1.58695303      -0.33995811      -0.06539543
C       -0.14768124      -0.04262315      -0.26869132
C        0.60473174       1.01053256       0.26648530
O        1.88329712       0.99766179      -0.35121173
C        1.66364999      -0.34310662      -0.14900288
N        0.70510264      -0.90768037      -0.91735583
H       -1.71178135      -1.31806990       0.40235890
H       -2.07780595      -0.36552336      -1.04135299
H       -2.07298047       0.41724676       0.55281357
H        0.40815232       1.74605051       1.02953746
H        2.33226822      -0.85453011       0.54181496
11
Frame=7 idx=002068 GeodesicLength=0.3353189263696331 rxn_smarts="[C:1]([c:2]1[c:3]([H:10])[o:4][c:5]([H:11])[n:6]1)([H:7])([H:8])[H:9]>>[C:1]([C:2]1=[N:6][C@:5]2([H:11])[C@@:3]1([H:10])[O:4]2)([H:7])([H:8])[H:9]"
C       -1.59816777      -0.33863914      -0.07021655
C       -0.15370182      -0.05466924      -0.25260935
C        0.60700717       1.00017802       0.27536369
O        1.87001383       0.99943596      -0.36875753
C        1.67691867      -0.34047860      -0.13870136
N        0.70364771      -0.92498988      -0.87869310
H       -1.73952048      -1.32223781       0.38165449
H       -2.08005198      -0.34179250      -1.05130556
H       -2.08335157       0.41393048       0.55475076
H        0.41414014       1.74866287       1.02679792
H        2.38306610      -0.83940017       0.52171660
11
Frame=8 idx=002068 GeodesicLength=0.38265393851432433 rxn_smarts="[C:1]([c:2]1[c:3]([H:10])[o:4][c:5]([H:11])[n:6]1)([H:7])([H:8])[H:9]>>[C:1]([C:2]1=[N:6][C@:5]2([H:11])[C@@:3]1([H:10])[O:4]2)([H:7])([H:8])[H:9]"
C       -1.60924989      -0.33719944      -0.07525459
C       -0.15985446      -0.06691319      -0.23534786
C        0.60942124       0.98966000       0.28495922
O        1.85568851       1.00039417      -0.38614859
C        1.69021880      -0.33771630      -0.12819832
N        0.70219181      -0.94276927      -0.83736020
H       -1.76742114      -1.32576776       0.36048557
H       -2.08082163      -0.31823049      -1.06145651
H       -2.09418425       0.41082525       0.55575428
H        0.42018274       1.75123061       1.02418608
H        2.43382827      -0.82351357       0.49838090
11
Frame=9 idx=002068 GeodesicLength=0.42990563031138573 rxn_smarts="[C:1]([c:2]1[c:3]([H:10])[o:4][c:5]([H:11])[n:6]1)([H:7])([H:8])[H:9]>>[C:1]([C:2]1=[N:6][C@:5]2([H:11])[C@@:3]1([H:10])[O:4]2)([H:7])([H:8])[H:9]"
C       -1.62018460      -0.33564571      -0.08051401
C       -0.16616188      -0.07919676      -0.21698764
C        0.61197112       0.97906661       0.29526041
O        1.84043428       1.00046107      -0.40328949
C        1.70361267      -0.33482467      -0.11747089
N        0.70085207      -0.96083106      -0.79327800
H       -1.79525802      -1.32864682       0.33898271
H       -2.08014093      -0.29501667      -1.07185494
H       -2.10561494       0.40795643       0.55577573
H        0.42620972       1.75379513       1.02175235
H        2.48428051      -0.80711756       0.47162378
11
Frame=10 idx=002068 GeodesicLength=0.47703911830487705 rxn_smarts="[C:1]([c:2]1[c:3]([H:10])[o:4][c:5]([H:11])[n:6]1)([H:7])([H:8])[H:9]>>[C:1]([C:2]1=[N:6][C@:5]2([H:11])[C@@:3]1([H:10])[O:4]2)([H:7])([H:8])[H:9]"
C       -1.63086785      -0.33401395      -0.08600292
C       -0.17262138      -0.09144314      -0.19747143
C        0.61468431       0.96848131       0.30625248
O        1.82425278       0.99961300      -0.42008165
C        1.71703012      -0.33178736      -0.10650711
N        0.69961739      -0.97901668      -0.74621316
H       -1.82285638      -1.33095093       0.31708237
H       -2.07785636      -0.27221939      -1.08247635
H       -2.11757957       0.40527487       0.55476192
H        0.43226605       1.75640912       1.01944546
H        2.53393089      -0.79034685       0.44121040
11
Frame=11 idx=002068 GeodesicLength=0.5240431677093836 rxn_smarts="[C:1]([c:2]1[c:3]([H:10])[o:4][c:5]([H:11])[n:6]1)([H:7])([H:8])[H:9]>>[C:1]([C:2]1=[N:6][C@:5]2([H:11])[C@@:3]1([H:10])[O:4]2)([H:7])([H:8])[H:9]"
C       -1.64119504      -0.33234637      -0.09172932
C       -0.17924018      -0.10346025      -0.17692373
C        0.61757181       0.95804785       0.31788182
O        1.80725188       0.99781011      -0.43634630
C        1.73041324      -0.32859478      -0.09528431
N        0.69851436      -0.99704510      -0.69612568
H       -1.84987961      -1.33271949       0.29487001
H       -2.07395036      -0.25008525      -1.09329937
H       -2.13004724       0.40276288       0.55265279
H        0.43837255       1.75913324       1.01729993
H        2.58218860      -0.77350284       0.40700415
11
Frame=12 idx=002068 GeodesicLength=0.5710989275372506 rxn_smarts="[C:1]([c:2]1[c:3]([H:10])[o:4][c:5]([H:11])[n:6]1)([H:7])([H:8])[H:9]>>[C:1]([C:2]1=[N:6][C@:5]2([H:11])[C@@:3]1([H:10])[O:4]2)([H:7])([H:8])[H:9]"
C       -1.65117918      -0.33069135      -0.09771857
C       -0.18601444      -0.11527250      -0.15509102
C        0.62067830       0.94788688       0.33021908
O        1.78945925       0.99503137      -0.45208631
C        1.74385218      -0.32524543      -0.08380062
N        0.69759909      -1.01486485      -0.64267731
H       -1.87632161      -1.33410361       0.27211153
H       -2.06834313      -0.22858187      -1.10440957
H       -2.14312698       0.40036921       0.54948123
H        0.44456060       1.76222973       1.01529412
H        2.62883592      -0.75675759       0.36867743
11
Frame=13 idx=002068 GeodesicLength=0.6177786973926518 rxn_smarts="[C:1]([c:2]1[c:3]([H:10])[o:4][c:5]([H:11])[n:6]1)([H:7])([H:8])[H:9]>>[C:1]([C:2]1=[N:6][C@:5]2([H:11])[C@@:3]1([H:10])[O:4]2)([H:7])([H:8])[H:9]"
C       -1.66041552      -0.32909965      -0.10392671
C       -0.19291841      -0.12642771      -0.13244501
C        0.62391476       0.93813647       0.34297304
O        1.77100059       0.99129317      -0.46698106
C        1.75695515      -0.32166320      -0.07192776
N        0.69680370      -1.03170322      -0.58603273
H       -1.90136435      -1.33513656       0.24914150
H       -2.06082505      -0.20795972      -1.11554977
H       -2.15641847       0.39786431       0.54513252
H        0.45078199       1.76543355       1.01327483
H        2.67248562      -0.74073744       0.32634113
11
Frame=14 idx=002068 GeodesicLength=0.6646018506151137 rxn_smarts="[C:1]([c:2]1[c:3]([H:10])[o:4][c:5]([H:11])[n:6]1)([H:7])([H:8])[H:9]>>[C:1]([C:2]1=[N:6][C@:5]2([H:11])[C@@:3]1([H:10])[O:4]2)([H:7])([H:8])[H:9]"
C       -1.66912659      -0.32769909      -0.11036100
C       -0.19995442      -0.13685611      -0.10905222
C        0.62743623       0.92909719       0.35615760
O        1.75234187       0.98669132      -0.48089159
C        1.77005486      -0.31791273      -0.05976961
N        0.69626912      -1.04743844      -0.52642970
H       -1.92502323      -1.33614404       0.22577069
H       -2.05190092      -0.18839916      -1.12675560
H       -2.17022606       0.39521064       0.53982073
H        0.45716013       1.76928506       1.01131724
H        2.71296901      -0.72583464       0.28019345
11
Frame=15 idx=002068 GeodesicLength=0.7111533885559341 rxn_smarts="[C:1]([c:2]1[c:3]([H:10])[o:4][c:5]([H:11])[n:6]1)([H:7])([H:8])[H:9]>>[C:1]([C:2]1=[N:6][C@:5]2([H:11])[C@@:3]1([H:10])[O:4]2)([H:7])([H:8])[H:9]"
C       -1.67693165      -0.32652275      -0.11695917
C       -0.20704373      -0.14637735      -0.08502523
C        0.63115735       0.92079045       0.36956726
O        1.73343249       0.98115970      -0.49377958
C        1.78282519      -0.31394177      -0.04734600
N        0.69590619      -1.06146134      -0.46404626
H       -1.94665213      -1.33717788       0.20195616
H       -2.04129783      -0.16976662      -1.13785976
H       -2.18410262       0.39206662       0.53372439
H        0.46362754       1.77363892       1.00915795
H        2.74907921      -0.71240798       0.23061023
11
Frame=16 idx=002068 GeodesicLength=0.757683676002028 rxn_smarts="[C:1]([c:2]1[c:3]([H:10])[o:4][c:5]([H:11])[n:6]1)([H:7])([H:8])[H:9]>>[C:1]([C:2]1=[N:6][C@:5]2([H:11])[C@@:3]1([H:10])[O:4]2)([H:7])([H:8])[H:9]"
C       -1.68388350      -0.32569366      -0.12368522
C       -0.21415881      -0.15479163      -0.06063769
C        0.63514100       0.91349914       0.38302893
O        1.71474757       0.97490470      -0.50548145
C        1.79538321      -0.30976496      -0.03464025
N        0.69578175      -1.07336761      -0.39935828
H       -1.96602248      -1.33858548       0.17764684
H       -2.02939840      -0.15207457      -1.14869660
H       -2.19814183       0.38817569       0.52707082
H        0.47023007       1.77879995       1.00668225
H        2.78032142      -0.70110156       0.17807064
