16
Frame=0 idx=003090 GeodesicLength=0.0 rxn_smarts="[C:1]1([H:7])([H:8])[C:2]([H:9])([H:10])[C@:3]2([H:11])[C:4]([H:12])([H:13])[C:5]([H:14])([H:15])[C@:6]12[H:16]>>[C:1]1([H:7])([H:8])[C:2]([H:9])([H:10])[C:3]([H:11])([H:16])[C:4]([H:12])([H:13])[C:5]([H:14])([H:15])[C:6]1"
C       -0.69003960      -1.22593883       0.70213419
C       -1.31914669       0.15939528       0.49943958
C       -0.52906225       0.59153214      -0.74034399
C        0.88339398       1.09516996      -0.48238447
C        1.49469783      -0.22244856       0.00980573
C        0.37349262      -1.19300749      -0.40855738
H       -0.22464373      -1.36837582       1.68025559
H       -1.41016736      -2.03344574       0.55920193
H       -2.38733338       0.09383417       0.29081329
H       -1.19445294       0.86385805       1.32672201
H       -1.09380988       1.09377157      -1.52828440
H        1.34255907       1.40214153      -1.42321541
H        0.93327247       1.94643004       0.20231082
H        1.63681997      -0.23560019       1.09465490
H        2.45527625      -0.45622493      -0.45046013
H       -0.27085641      -0.51109112      -1.33209232
16
Frame=1 idx=003090 GeodesicLength=0.06722754326641145 rxn_smarts="[C:1]1([H:7])([H:8])[C:2]([H:9])([H:10])[C@:3]2([H:11])[C:4]([H:12])([H:13])[C:5]([H:14])([H:15])[C@:6]12[H:16]>>[C:1]1([H:7])([H:8])[C:2]([H:9])([H:10])[C:3]([H:11])([H:16])[C:4]([H:12])([H:13])[C:5]([H:14])([H:15])[C:6]1"
C       -0.69169688      -1.21772773       0.71167527
C       -1.32847995       0.16183578       0.49018801
C       -0.52677248       0.58717939      -0.74461362
C        0.88229573       1.09426155      -0.47074364
C        1.49935724      -0.22726426       0.00299980
C        0.37266574      -1.19557765      -0.39444632
H       -0.22036226      -1.34437944       1.68972811
H       -1.40615861      -2.03254376       0.58329902
H       -2.39355105       0.08500665       0.26946117
H       -1.22087467       0.87161530       1.31506812
H       -1.08467553       1.10041755      -1.53016229
H        1.34616764       1.42424402      -1.40140968
H        0.92402949       1.93062112       0.23253692
H        1.67523752      -0.24792956       1.08246957
H        2.44361428      -0.46599171      -0.48857357
H       -0.27079622      -0.52376726      -1.34747686
16
Frame=2 idx=003090 GeodesicLength=0.13426389678594242 rxn_smarts="[C:1]1([H:7])([H:8])[C:2]([H:9])([H:10])[C@:3]2([H:11])[C:4]([H:12])([H:13])[C:5]([H:14])([H:15])[C@:6]12[H:16]>>[C:1]1([H:7])([H:8])[C:2]([H:9])([H:10])[C:3]([H:11])([H:16])[C:4]([H:12])([H:13])[C:5]([H:14])([H:15])[C:6]1"
C       -0.69331047      -1.20924953       0.72130305
C       -1.33777569       0.16418951       0.48074370
C       -0.52434016       0.58286475      -0.74884620
C        0.88120408       1.09323994      -0.45879700
C        1.50399676      -0.23211636      -0.00390863
C        0.37188028      -1.19798970      -0.38018597
H       -0.21598346      -1.31974192       1.69902348
H       -1.40204990      -2.03111090       0.60786757
H       -2.39944146       0.07580080       0.24793518
H       -1.24743529       0.87924367       1.30288324
H       -1.07523995       1.10698257      -1.53197712
H        1.34969994       1.44633232      -1.37859526
H        0.91473410       1.91402383       0.26295765
H        1.71387118      -0.26050943       1.06899313
H        2.43083384      -0.47529154      -0.52658097
H       -0.27064380      -0.53666801      -1.36281585
16
Frame=3 idx=003090 GeodesicLength=0.20110988010637834 rxn_smarts="[C:1]1([H:7])([H:8])[C:2]([H:9])([H:10])[C@:3]2([H:11])[C:4]([H:12])([H:13])[C:5]([H:14])([H:15])[C@:6]12[H:16]>>[C:1]1([H:7])([H:8])[C:2]([H:9])([H:10])[C:3]([H:11])([H:16])[C:4]([H:12])([H:13])[C:5]([H:14])([H:15])[C:6]1"
C       -0.69488289      -1.20052121       0.73099021
C       -1.34700012       0.16644952       0.47112891
C       -0.52176325       0.57859328      -0.75303130
C        0.88012316       1.09210444      -0.44657614
C        1.50860688      -0.23698010      -0.01089459
C        0.37116290      -1.20023309      -0.36577344
H       -0.21153370      -1.29453551       1.70809797
H       -1.39785699      -2.02913284       0.63283616
H       -2.40497137       0.06623753       0.22629663
H       -1.27404754       0.88671160       1.29019392
H       -1.06552128       1.11347149      -1.53370456
H        1.35314625       1.46832944      -1.35480651
H        0.90539750       1.89665685       0.29348709
H        1.75261172      -0.27325266       1.05423078
H        2.41693586      -0.48410274      -0.56436372
H       -0.27040712      -0.54979600      -1.37811141
16
Frame=4 idx=003090 GeodesicLength=0.2677715405720127 rxn_smarts="[C:1]1([H:7])([H:8])[C:2]([H:9])([H:10])[C@:3]2([H:11])[C:4]([H:12])([H:13])[C:5]([H:14])([H:15])[C@:6]12[H:16]>>[C:1]1([H:7])([H:8])[C:2]([H:9])([H:10])[C:3]([H:11])([H:16])[C:4]([H:12])([H:13])[C:5]([H:14])([H:15])[C:6]1"
C       -0.69641707      -1.19156272       0.74070712
C       -1.35611889       0.16861050       0.46136903
C       -0.51904153       0.57437021      -0.75715954
C        0.87905658       1.09085584      -0.43411598
C        1.51317741      -0.24182968      -0.01793317
C        0.37054007      -1.20229732      -0.35120794
H       -0.20704205      -1.26884200       1.71691020
H       -1.39359769      -2.02660087       0.65812670
H       -2.41011034       0.05634293       0.20461107
H       -1.30062182       0.89399102       1.27703312
H       -1.05554134       1.11988980      -1.53532051
H        1.35649827       1.49015519      -1.33009002
H        0.89602967       1.87854600       0.32403588
H        1.79135168      -0.28606981       1.03819730
H        2.40193344      -0.49240639      -0.60179496
H       -0.27009640      -0.56315271      -1.39336827
16
Frame=5 idx=003090 GeodesicLength=0.33425817591852935 rxn_smarts="[C:1]1([H:7])([H:8])[C:2]([H:9])([H:10])[C@:3]2([H:11])[C:4]([H:12])([H:13])[C:5]([H:14])([H:15])[C@:6]12[H:16]>>[C:1]1([H:7])([H:8])[C:2]([H:9])([H:10])[C:3]([H:11])([H:16])[C:4]([H:12])([H:13])[C:5]([H:14])([H:15])[C:6]1"
C       -0.69791842      -1.18239850       0.75042247
C       -1.36509885       0.17067029       0.45149217
C       -0.51617823       0.57020027      -0.76122184
C        0.87800742       1.08949667      -0.42145447
C        1.51769828      -0.24664013      -0.02499724
C        0.37003640      -1.20417297      -0.33649008
H       -0.20254090      -1.24275619       1.72542535
H       -1.38929365      -2.02351270       0.68365150
H       -2.41483287       0.04615043       0.18295088
H       -1.32706748       0.90105558       1.26343993
H       -1.04532657       1.12624190      -1.53680081
H        1.35975145       1.51172387      -1.30450282
H        0.88664440       1.85972785       0.35450464
H        1.82998365      -0.29887048       1.02092024
H        2.38585955      -0.50017803      -0.63874603
H       -0.26972419      -0.57673788      -1.40859391
16
Frame=6 idx=003090 GeodesicLength=0.400582586651888 rxn_smarts="[C:1]1([H:7])([H:8])[C:2]([H:9])([H:10])[C@:3]2([H:11])[C:4]([H:12])([H:13])[C:5]([H:14])([H:15])[C@:6]12[H:16]>>[C:1]1([H:7])([H:8])[C:2]([H:9])([H:10])[C:3]([H:11])([H:16])[C:4]([H:12])([H:13])[C:5]([H:14])([H:15])[C:6]1"
C       -0.69939241      -1.17305501       0.76010589
C       -1.37390950       0.17262650       0.44152726
C       -0.51317812       0.56608759      -0.76521043
C        0.87697792       1.08803323      -0.40862920
C        1.52216012      -0.25138566      -0.03205877
C        0.36967454      -1.20585111      -0.32162134
H       -0.19806599      -1.21637293       1.73361304
H       -1.38496899      -2.01987116       0.70932366
H       -2.41911858       0.03569443       0.16138375
H       -1.35329303       0.90788074       1.24945979
H       -1.03490566       1.13253160      -1.53812351
H        1.36289987       1.53296375      -1.27811046
H        0.87725199       1.84024831       0.38479789
H        1.86841218      -0.31156514       1.00242224
H        2.36875749      -0.50741445      -0.67508170
H       -0.26930183      -0.59055070      -1.42379809
16
Frame=7 idx=003090 GeodesicLength=0.46676145681000075 rxn_smarts="[C:1]1([H:7])([H:8])[C:2]([H:9])([H:10])[C@:3]2([H:11])[C:4]([H:12])([H:13])[C:5]([H:14])([H:15])[C@:6]12[H:16]>>[C:1]1([H:7])([H:8])[C:2]([H:9])([H:10])[C:3]([H:11])([H:16])[C:4]([H:12])([H:13])[C:5]([H:14])([H:15])[C:6]1"
C       -0.70084597      -1.16356131       0.76972832
C       -1.38252228       0.17447952       0.43150408
C       -0.51004580       0.56203627      -0.76911679
C        0.87597011       1.08647366      -0.39567612
C        1.52655463      -0.25604248      -0.03908796
C        0.36947620      -1.20732294      -0.30660306
H       -0.19365312      -1.18979309       1.74145179
H       -1.38064855      -2.01568717       0.73505382
H       -2.42295304       0.02501345       0.13997560
H       -1.37921646       0.91444718       1.23514119
H       -1.02430653       1.13876238      -1.53926684
H        1.36593799       1.55380449      -1.25098734
H        0.86786520       1.82016210       0.41481829
H        1.90654762      -0.32406917       0.98273219
H        2.35068153      -0.51411433      -0.71067424
H       -0.26884152      -0.60458855      -1.43899292
16
Frame=8 idx=003090 GeodesicLength=0.5328074865885755 rxn_smarts="[C:1]1([H:7])([H:8])[C:2]([H:9])([H:10])[C@:3]2([H:11])[C:4]([H:12])([H:13])[C:5]([H:14])([H:15])[C@:6]12[H:16]>>[C:1]1([H:7])([H:8])[C:2]([H:9])([H:10])[C:3]([H:11])([H:16])[C:4]([H:12])([H:13])[C:5]([H:14])([H:15])[C:6]1"
C       -0.70228838      -1.15394583       0.77926142
C       -1.39091218       0.17622935       0.42145331
C       -0.50679005       0.55804847      -0.77293308
C        0.87498593       1.08482661      -0.38263205
C        1.53087184      -0.26058764      -0.04605690
C        0.36945690      -1.20858176      -0.29143506
H       -0.18934093      -1.16311876       1.74892481
H       -1.37635985      -2.01097109       0.76074758
H       -2.42632361       0.01415179       0.11879704
H       -1.40475405       0.92073015       1.22053614
H       -1.01356201       1.14493504      -1.54020982
H        1.36886886       1.57417897      -1.22321505
H        0.85849344       1.79953124       0.44447007
H        1.94430355      -0.33629951       0.96187585
H        2.33170362      -0.52027669      -0.74539263
H       -0.26835308      -0.61885032      -1.45419162
16
Frame=9 idx=003090 GeodesicLength=0.5987516546316947 rxn_smarts="[C:1]1([H:7])([H:8])[C:2]([H:9])([H:10])[C@:3]2([H:11])[C:4]([H:12])([H:13])[C:5]([H:14])([H:15])[C@:6]12[H:16]>>[C:1]1([H:7])([H:8])[C:2]([H:9])([H:10])[C:3]([H:11])([H:16])[C:4]([H:12])([H:13])[C:5]([H:14])([H:15])[C:6]1"
C       -0.70373200      -1.14423829       0.78867975
C       -1.39907074       0.17788049       0.41140025
C       -0.50342415       0.55412841      -0.77665129
C        0.87402043       1.08310511      -0.36952465
C        1.53509259      -0.26500150      -0.05292328
C        0.36962453      -1.20962206      -0.27611180
H       -0.18515752      -1.13644608       1.75603084
H       -1.37213250      -2.00574424       0.78633598
H       -2.42923979       0.00315004       0.09789661
H       -1.42986137       0.92673619       1.20569171
H       -1.00269817       1.15104673      -1.54094242
H        1.37171622       1.59401147      -1.19487605
H        0.84913891       1.77842514       0.47367732
H        1.98163966      -0.34822832       0.93994077
H        2.31192884      -0.52586493      -0.77921825
H       -0.26784493      -0.63333814      -1.46940549
16
Frame=10 idx=003090 GeodesicLength=0.6645970838566363 rxn_smarts="[C:1]1([H:7])([H:8])[C:2]([H:9])([H:10])[C@:3]2([H:11])[C:4]([H:12])([H:13])[C:5]([H:14])([H:15])[C@:6]12[H:16]>>[C:1]1([H:7])([H:8])[C:2]([H:9])([H:10])[C:3]([H:11])([H:16])[C:4]([H:12])([H:13])[C:5]([H:14])([H:15])[C:6]1"
C       -0.70517812      -1.13446769       0.79795855
C       -1.40696114       0.17943407       0.40137495
C       -0.49994632       0.55027561      -0.78026742
C        0.87308257       1.08131652      -0.35639462
C        1.53922443      -0.26926274      -0.05967437
C        0.37000506      -1.21043589      -0.26063982
H       -0.18114347      -1.10986613       1.76275925
H       -1.36798334      -2.00002838       0.81172355
H       -2.43168182      -0.00795345       0.07733326
H       -1.45444501       0.93243765       1.19066238
H       -0.99174265       1.15710129      -1.54144294
H        1.37445186       1.61327745      -1.16604333
H        0.83982084       1.75690577       0.50235428
H        2.01845211      -0.35973995       0.91693394
H        2.29137161      -0.53094992      -0.81198112
H       -0.26732662      -0.64804421      -1.48465654
16
Frame=11 idx=003090 GeodesicLength=0.7303560076482569 rxn_smarts="[C:1]1([H:7])([H:8])[C:2]([H:9])([H:10])[C@:3]2([H:11])[C:4]([H:12])([H:13])[C:5]([H:14])([H:15])[C@:6]12[H:16]>>[C:1]1([H:7])([H:8])[C:2]([H:9])([H:10])[C:3]([H:11])([H:16])[C:4]([H:12])([H:13])[C:5]([H:14])([H:15])[C:6]1"
C       -0.70663144      -1.12466615       0.80707468
C       -1.41456364       0.18089579       0.39140495
C       -0.49636259       0.54649179      -0.78377643
C        0.87217545       1.07947403      -0.34327567
C        1.54326691      -0.27335608      -0.06628524
C        0.37061371      -1.21101662      -0.24502098
H       -0.17733166      -1.08347346       1.76911484
H       -1.36393327      -1.99385951       0.83682818
H       -2.43365342      -0.01911345       0.05715541
H       -1.47844488       0.93783228       1.17550656
H       -0.98072241       1.16309840      -1.54169897
H        1.37707013       1.63194051      -1.13680665
H        0.83055016       1.73505127       0.53043061
H        2.05466622      -0.37076452       0.89292653
H        2.27010641      -0.53557008      -0.84361327
H       -0.26680568      -0.66296421      -1.49996455
16
Frame=12 idx=003090 GeodesicLength=0.7960358559511892 rxn_smarts="[C:1]1([H:7])([H:8])[C:2]([H:9])([H:10])[C@:3]2([H:11])[C:4]([H:12])([H:13])[C:5]([H:14])([H:15])[C@:6]12[H:16]>>[C:1]1([H:7])([H:8])[C:2]([H:9])([H:10])[C:3]([H:11])([H:16])[C:4]([H:12])([H:13])[C:5]([H:14])([H:15])[C:6]1"
C       -0.70809902      -1.11486587       0.81600732
C       -1.42186322       0.18227191       0.38151727
C       -0.49268000       0.54277784      -0.78717315
C        0.87130094       1.07759021      -0.33019974
C        1.54721620      -0.27726517      -0.07273212
C        0.37146091      -1.21135922      -0.22925725
H       -0.17375329      -1.05735673       1.77510647
H       -1.36000351      -1.98727549       0.86157021
H       -2.43516027      -0.03028510       0.03740802
H       -1.50180358       0.94291591       1.16028446
H       -0.96966459       1.16903662      -1.54169993
H        1.37957127       1.64996622      -1.10725775
H        0.82133885       1.71294216       0.55783920
H        2.09021690      -0.38124100       0.86798284
H        2.24821212      -0.53975920      -0.87404440
H       -0.26628970      -0.67809308      -1.51535146
16
Frame=13 idx=003090 GeodesicLength=0.8616474730097082 rxn_smarts="[C:1]1([H:7])([H:8])[C:2]([H:9])([H:10])[C@:3]2([H:11])[C:4]([H:12])([H:13])[C:5]([H:14])([H:15])[C@:6]12[H:16]>>[C:1]1([H:7])([H:8])[C:2]([H:9])([H:10])[C:3]([H:11])([H:16])[C:4]([H:12])([H:13])[C:5]([H:14])([H:15])[C:6]1"
C       -0.70958595      -1.10509568       0.82473972
C       -1.42884917       0.18356935       0.37173554
C       -0.48890597       0.53913490      -0.79045352
C        0.87046153       1.07567840      -0.31719461
C        1.55107123      -0.28097944      -0.07899325
C        0.37255468      -1.21145905      -0.21335071
H       -0.17043502      -1.03159376       1.78075015
H       -1.35621207      -1.98031756       0.88588529
H       -2.43621473      -0.04142982       0.01812554
H       -1.52448426       0.94769358       1.14504998
H       -0.95859319       1.17491482      -1.54143799
H        1.38195609       1.66733191      -1.07747964
H        0.81219775       1.69065669       0.58452490
H        2.12505711      -0.39112491       0.84216310
H        2.22576862      -0.54355599      -0.90322166
H       -0.26578665      -0.69342345      -1.53084286
16
Frame=14 idx=003090 GeodesicLength=0.9271966412886821 rxn_smarts="[C:1]1([H:7])([H:8])[C:2]([H:9])([H:10])[C@:3]2([H:11])[C:4]([H:12])([H:13])[C:5]([H:14])([H:15])[C@:6]12[H:16]>>[C:1]1([H:7])([H:8])[C:2]([H:9])([H:10])[C:3]([H:11])([H:16])[C:4]([H:12])([H:13])[C:5]([H:14])([H:15])[C:6]1"
C       -0.71109696      -1.09538447       0.83325873
C       -1.43551418       0.18479494       0.36208112
C       -0.48504710       0.53556319      -0.79361368
C        0.86966019       1.07375177      -0.30428464
C        1.55483286      -0.28448999      -0.08504792
C        0.37390057      -1.21131289      -0.19730311
H       -0.16740019      -1.00625110       1.78606681
H       -1.35257468      -1.97302853       0.90971451
H       -2.43683075      -0.05251028      -0.00066464
H       -1.54645628       0.95217002       1.12985486
H       -0.94752993       1.18073042      -1.54090896
H        1.38422774       1.68402473      -1.04755094
H        0.80313855       1.66827384       0.61044259
H        2.15914370      -0.40038003       0.81552568
H        2.20284918      -0.54700153      -0.93110604
H       -0.26530274      -0.70895008      -1.54646438
16
Frame=15 idx=003090 GeodesicLength=0.9926891597468358 rxn_smarts="[C:1]1([H:7])([H:8])[C:2]([H:9])([H:10])[C@:3]2([H:11])[C:4]([H:12])([H:13])[C:5]([H:14])([H:15])[C@:6]12[H:16]>>[C:1]1([H:7])([H:8])[C:2]([H:9])([H:10])[C:3]([H:11])([H:16])[C:4]([H:12])([H:13])[C:5]([H:14])([H:15])[C:6]1"
C       -0.71263561      -1.08575691       0.84155463
C       -1.44185524       0.18595595       0.35257267
C       -0.48111056       0.53206385      -0.79665032
C        0.86889934       1.07182371      -0.29149010
C        1.55850194      -0.28779167      -0.09087948
C        0.37550050      -1.21091766      -0.18111654
H       -0.16466724      -0.98138364       1.79108065
H       -1.34910320      -1.96545267       0.93301319
H       -2.43702619      -0.06349630      -0.01894419
H       -1.56770228       0.95635344       1.11474558
H       -0.93649482       1.18648241      -1.54011017
H        1.38639145       1.70003683      -1.01754538
H        0.79417332       1.64586783       0.63555674
H        2.19244457      -0.40898599       0.78812406
H        2.17952887      -0.55013430      -0.95766585
H       -0.26484487      -0.72466488      -1.56224550
16
Frame=16 idx=003090 GeodesicLength=1.058130522815525 rxn_smarts="[C:1]1([H:7])([H:8])[C:2]([H:9])([H:10])[C@:3]2([H:11])[C:4]([H:12])([H:13])[C:5]([H:14])([H:15])[C@:6]12[H:16]>>[C:1]1([H:7])([H:8])[C:2]([H:9])([H:10])[C:3]([H:11])([H:16])[C:4]([H:12])([H:13])[C:5]([H:14])([H:15])[C:6]1"
C       -0.71420576      -1.07623539       0.84962192
C       -1.44787311       0.18705932       0.34322539
C       -0.47710355       0.52863663      -0.79956081
C        0.86818129       1.06990574      -0.27882814
C        1.56207946      -0.29088162      -0.09646957
C        0.37735405      -1.21027140      -0.16479078
H       -0.16225158      -0.95703609       1.79581896
H       -1.34580899      -1.95763353       0.95574466
H       -2.43682085      -0.07436029      -0.03670034
H       -1.58821397       0.96025562       1.09976383
H       -0.92550447       1.19216719      -1.53904193
H        1.38845664       1.71536608      -0.98752297
H        0.78530961       1.62351105       0.65984206
H        2.22493863      -0.41692962       0.75998955
H        2.15588064      -0.55299211      -0.98287484
H       -0.26441804      -0.74056159      -1.57821698
