10
Frame=0 idx=003745 GeodesicLength=0.0 rxn_smarts="[C:1]1([H:5])([H:6])[C:2]([H:7])([H:8])[O:3][C:4]1([H:9])[H:10]>>[C:1]1([H:5])=[C:2]([H:8])[O:3][C:4]1([H:9])[H:10].[H:6][H:7]"
C        0.05814314       0.57256166      -0.07638316
C        0.64853790      -0.71499200       0.07619046
O       -0.43366317      -1.46382917      -0.00010566
C       -1.26980071      -0.23815182       0.00237768
H        0.16566969       1.07918403      -1.02926995
H        0.68458013       1.26463555       0.59312603
H        2.28353199       1.02384326      -0.00170316
H        1.61233454      -1.09352434       0.38415447
H       -1.90891976      -0.21084289      -0.87629639
H       -1.84041375      -0.21888428       0.92790969
10
Frame=1 idx=003745 GeodesicLength=0.08447436386393355 rxn_smarts="[C:1]1([H:5])([H:6])[C:2]([H:7])([H:8])[O:3][C:4]1([H:9])[H:10]>>[C:1]1([H:5])=[C:2]([H:8])[O:3][C:4]1([H:9])[H:10].[H:6][H:7]"
C        0.05044400       0.57788012      -0.08490778
C        0.65791975      -0.70432675       0.05637543
O       -0.42497870      -1.46220790      -0.01683445
C       -1.26722729      -0.24380266       0.00236228
H        0.14647557       1.09570813      -1.03333394
H        0.70894204       1.27693821       0.58459589
H        2.27397579       0.99213191       0.01209250
H        1.60202544      -1.08861130       0.41606439
H       -1.91703036      -0.21950310      -0.86899872
H       -1.83054623      -0.22420667       0.93258439
10
Frame=2 idx=003745 GeodesicLength=0.16895506866468157 rxn_smarts="[C:1]1([H:5])([H:6])[C:2]([H:7])([H:8])[O:3][C:4]1([H:9])[H:10]>>[C:1]1([H:5])=[C:2]([H:8])[O:3][C:4]1([H:9])[H:10].[H:6][H:7]"
C        0.04288692       0.58281222      -0.09257476
C        0.66697635      -0.69375969       0.03946189
O       -0.41659806      -1.46060931      -0.03225974
C       -1.26459936      -0.24948182       0.00222187
H        0.12829240       1.11124006      -1.03649010
H        0.73351513       1.28966621       0.57649952
H        2.26415457       0.96178936       0.02521053
H        1.59106254      -1.08405327       0.44393596
H       -1.92403782      -0.22868679      -0.86243194
H       -1.82165267      -0.22891696       0.93642677
10
Frame=3 idx=003745 GeodesicLength=0.25345044458100996 rxn_smarts="[C:1]1([H:5])([H:6])[C:2]([H:7])([H:8])[O:3][C:4]1([H:9])[H:10]>>[C:1]1([H:5])=[C:2]([H:8])[O:3][C:4]1([H:9])[H:10].[H:6][H:7]"
C        0.03541894       0.58737700      -0.09949795
C        0.67570846      -0.68332909       0.02490435
O       -0.40854135      -1.45906708      -0.04658372
C       -1.26197795      -0.25518976       0.00195218
H        0.11093360       1.12601549      -1.03878799
H        0.75842232       1.30268720       0.56882698
H        2.25411846       0.93275054       0.03753296
H        1.57974254      -1.07985819       0.46865213
H       -1.93014857      -0.23828173      -0.85653341
H       -1.81367646      -0.23310437       0.93953447
10
Frame=4 idx=003745 GeodesicLength=0.3379495505825679 rxn_smarts="[C:1]1([H:5])([H:6])[C:2]([H:7])([H:8])[O:3][C:4]1([H:9])[H:10]>>[C:1]1([H:5])=[C:2]([H:8])[O:3][C:4]1([H:9])[H:10].[H:6][H:7]"
C        0.02800116       0.59158629      -0.10576757
C        0.68412078      -0.67305444       0.01228126
O       -0.40081269      -1.45760271      -0.05996741
C       -1.25940068      -0.26093795       0.00155135
H        0.09425645       1.14022126      -1.04025327
H        0.78378290       1.31589393       0.56155097
H        2.24391994       0.90494636       0.04897377
H        1.56820163      -1.07597573       0.49089687
H       -1.93551021      -0.24821398      -0.85124622
H       -1.80655929      -0.23686302       0.94198026
10
Frame=5 idx=003745 GeodesicLength=0.42245965465788166 rxn_smarts="[C:1]1([H:5])([H:6])[C:2]([H:7])([H:8])[O:3][C:4]1([H:9])[H:10]>>[C:1]1([H:5])=[C:2]([H:8])[O:3][C:4]1([H:9])[H:10].[H:6][H:7]"
C        0.02059388       0.59545544      -0.11145618
C        0.69222283      -0.66294349       0.00128714
O       -0.39340110      -1.45623671      -0.07251717
C       -1.25690137      -0.26673569       0.00101762
H        0.07814230       1.15400097      -1.04091242
H        0.80969259       1.32922274       0.55464829
H        2.23361164       0.87830992       0.05949253
H        1.55654673      -1.07237571       0.51115615
H       -1.94024086      -0.25844131      -0.84653772
H       -1.80026663      -0.24025615       0.94382176
10
Frame=6 idx=003745 GeodesicLength=0.5069709239451694 rxn_smarts="[C:1]1([H:5])([H:6])[C:2]([H:7])([H:8])[O:3][C:4]1([H:9])[H:10]>>[C:1]1([H:5])=[C:2]([H:8])[O:3][C:4]1([H:9])[H:10].[H:6][H:7]"
C        0.01316574       0.59899318      -0.11661874
C        0.70001719      -0.65299643      -0.00830812
O       -0.38629869      -1.45498232      -0.08430835
C       -1.25450432      -0.27259805       0.00035001
H        0.06250238       1.16746933      -1.04077042
H        0.83625195       1.34261643       0.54808714
H        2.22323920       0.85277974       0.06905923
H        1.54482265      -1.06899410       0.52979493
H       -1.94442244      -0.26894155      -0.84238018
H       -1.79477367      -0.24334624       0.94509449
10
Frame=7 idx=003745 GeodesicLength=0.5914856393247666 rxn_smarts="[C:1]1([H:5])([H:6])[C:2]([H:7])([H:8])[O:3][C:4]1([H:9])[H:10]>>[C:1]1([H:5])=[C:2]([H:8])[O:3][C:4]1([H:9])[H:10].[H:6][H:7]"
C        0.00568142       0.60221203      -0.12130007
C        0.70750512      -0.64320484      -0.01667375
O       -0.37949222      -1.45385244      -0.09538457
C       -1.25223522      -0.27853654      -0.00045336
H        0.04725881       1.18071874      -1.03983227
H        0.86354744       1.35604335       0.54184186
H        2.21284444       0.82829764       0.07766329
H        1.53308757      -1.06579557       0.54707675
H       -1.94812294      -0.27970814      -0.83876225
H       -1.79007442      -0.24617422       0.94582437
10
Frame=8 idx=003745 GeodesicLength=0.6760012517801713 rxn_smarts="[C:1]1([H:5])([H:6])[C:2]([H:7])([H:8])[O:3][C:4]1([H:9])[H:10]>>[C:1]1([H:5])=[C:2]([H:8])[O:3][C:4]1([H:9])[H:10].[H:6][H:7]"
C       -0.00189035       0.60512063      -0.12553443
C        0.71468578      -0.63355858      -0.02394327
O       -0.37296957      -1.45285725      -0.10578179
C       -1.25011467      -0.28456625      -0.00139469
H        0.03234591       1.19382999      -1.03808779
H        0.89167598       1.36947173       0.53588123
H        2.20246328       0.80480997       0.08528878
H        1.52136322      -1.06272352       0.56322132
H       -1.95139327      -0.29074104      -0.83567560
H       -1.78616631      -0.24878569       0.94602624
10
Frame=9 idx=003745 GeodesicLength=0.7605132010637389 rxn_smarts="[C:1]1([H:5])([H:6])[C:2]([H:7])([H:8])[O:3][C:4]1([H:9])[H:10]>>[C:1]1([H:5])=[C:2]([H:8])[O:3][C:4]1([H:9])[H:10].[H:6][H:7]"
C       -0.00958149       0.60772714      -0.12934936
C        0.72155601      -0.62404527      -0.03022099
O       -0.36671808      -1.45200612      -0.11552239
C       -1.24816313      -0.29070192      -0.00247711
H        0.01770432       1.20687446      -1.03552052
H        0.92073465       1.38287393       0.53017575
H        2.19212895       0.78226715       0.09192090
H        1.50966973      -1.05972273       0.57840561
H       -1.95427493      -0.30204683      -0.83311963
H       -1.78305602      -0.25121981       0.94570773
10
Frame=10 idx=003745 GeodesicLength=0.8450226266092893 rxn_smarts="[C:1]1([H:5])([H:6])[C:2]([H:7])([H:8])[O:3][C:4]1([H:9])[H:10]>>[C:1]1([H:5])=[C:2]([H:8])[O:3][C:4]1([H:9])[H:10].[H:6][H:7]"
C       -0.01742710       0.61004126      -0.13276521
C        0.72810863      -0.61464585      -0.03558416
O       -0.36072661      -1.45130708      -0.12460458
C       -1.24640251      -0.29695709      -0.00370466
H        0.00328123       1.21991443      -1.03210653
H        0.95082218       1.39623049       0.52469644
H        2.18186638       0.76062493       0.09755021
H        1.49804033      -1.05675402       0.59275594
H       -1.95679777      -0.31364242      -0.83110324
H       -1.78076477      -0.25350465       0.94486579
10
Frame=11 idx=003745 GeodesicLength=0.9295273800179308 rxn_smarts="[C:1]1([H:5])([H:6])[C:2]([H:7])([H:8])[O:3][C:4]1([H:9])[H:10]>>[C:1]1([H:5])=[C:2]([H:8])[O:3][C:4]1([H:9])[H:10].[H:6][H:7]"
C       -0.02546196       0.61207092      -0.13579798
C        0.73433557      -0.60534157      -0.04009530
O       -0.35498345      -1.45076785      -0.13302439
C       -1.24485330      -0.30334669      -0.00508207
H       -0.01097355       1.23300897      -1.02781347
H        0.98204604       1.40951817       0.51941179
H        2.17169743       0.73984282       0.10216160
H        1.48649500      -1.05376764       0.60638564
H       -1.95898510      -0.32554658      -0.82963853
H       -1.77931668      -0.25567054       0.94349271
10
Frame=12 idx=003745 GeodesicLength=1.0140254830462068 rxn_smarts="[C:1]1([H:5])([H:6])[C:2]([H:7])([H:8])[O:3][C:4]1([H:9])[H:10]>>[C:1]1([H:5])=[C:2]([H:8])[O:3][C:4]1([H:9])[H:10].[H:6][H:7]"
C       -0.03372238       0.61382406      -0.13845837
C        0.74022720      -0.59611073      -0.04380318
O       -0.34947586      -1.45039537      -0.14077781
C       -1.24353565      -0.30988702      -0.00661564
H       -0.02511000       1.24621634      -1.02259819
H        1.01452411       1.42271253       0.51428639
H        2.16164171       0.71988290       0.10572838
H        1.47504579      -1.05071060       0.61940521
H       -1.96085492      -0.33777972      -0.82874201
H       -1.77873999      -0.25775239       0.94157523
10
Frame=13 idx=003745 GeodesicLength=1.0985162996076572 rxn_smarts="[C:1]1([H:5])([H:6])[C:2]([H:7])([H:8])[O:3][C:4]1([H:9])[H:10]>>[C:1]1([H:5])=[C:2]([H:8])[O:3][C:4]1([H:9])[H:10].[H:6][H:7]"
C       -0.04224700       0.61530877      -0.14075150
C        0.74577196      -0.58692861      -0.04674365
O       -0.34419031      -1.45019540      -0.14785882
C       -1.24246963      -0.31659580      -0.00831333
H       -0.03917875       1.25959461      -1.01640530
H        1.04838754       1.43578629       0.50927792
H        2.15171480       0.70071018       0.10821450
H        1.46369841      -1.04752609       0.63192137
H       -1.96241897      -0.35036452      -0.82843512
H       -1.77906805      -0.25978943       0.93909394
10
Frame=14 idx=003745 GeodesicLength=1.182998918377349 rxn_smarts="[C:1]1([H:5])([H:6])[C:2]([H:7])([H:8])[O:3][C:4]1([H:9])[H:10]>>[C:1]1([H:5])=[C:2]([H:8])[O:3][C:4]1([H:9])[H:10].[H:6][H:7]"
C       -0.05107716       0.61653324      -0.14267933
C        0.75095555      -0.57776716      -0.04894204
O       -0.33911353      -1.45017293      -0.15425086
C       -1.24167618      -0.32349113      -0.01018442
H       -0.05322947       1.27319974      -1.00917014
H        1.08377699       1.44870814       0.50434253
H        2.14192724       0.68229446       0.10958050
H        1.45246121      -1.04415714       0.64402613
H       -1.96368285      -0.36332898      -0.82874495
H       -1.78034180      -0.26181823       0.93602256
10
Frame=15 idx=003745 GeodesicLength=1.2674724283923153 rxn_smarts="[C:1]1([H:5])([H:6])[C:2]([H:7])([H:8])[O:3][C:4]1([H:9])[H:10]>>[C:1]1([H:5])=[C:2]([H:8])[O:3][C:4]1([H:9])[H:10].[H:6][H:7]"
C       -0.06025739       0.61750587      -0.14423844
C        0.75576136      -0.56859512      -0.05041416
O       -0.33423137      -1.45033192      -0.15993395
C       -1.24117650      -0.33059300      -0.01224043
H       -0.06731530       1.28709080      -1.00081213
H        1.12085093       1.46143878       0.49942681
H        2.13228549       0.66460867       0.10977598
H        1.44133651      -1.04053924       0.65581364
H       -1.96464555      -0.37670411      -0.82970469
H       -1.78260818      -0.26388071       0.93232737
10
Frame=16 idx=003745 GeodesicLength=1.3519360528322535 rxn_smarts="[C:1]1([H:5])([H:6])[C:2]([H:7])([H:8])[O:3][C:4]1([H:9])[H:10]>>[C:1]1([H:5])=[C:2]([H:8])[O:3][C:4]1([H:9])[H:10].[H:6][H:7]"
C       -0.06983614       0.61823561      -0.14542185
C        0.76016985      -0.55937696      -0.05116704
O       -0.32952913      -1.45067517      -0.16487895
C       -1.24099277      -0.33792246      -0.01449499
H       -0.08149201       1.30132786      -0.99123653
H        1.15978385       1.47393028       0.49447059
H        2.12279015       0.64763004       0.10874457
H        1.43032757      -1.03660362       0.66737187
H       -1.96529929      -0.39052606      -0.83135413
H       -1.78592208      -0.26601953       0.92796646
