9
Frame=0 idx=001605 GeodesicLength=0.0 rxn_smarts="[O:1]=[C:2]([O:3][C:4]([C:5]#[N:6])([H:8])[H:9])[H:7]>>[O:1]=[C:5]1[C:4]([H:8])([H:9])[O:3][C:2]([H:7])=[N:6]1"
O        0.53919892       0.52112039       1.35548743
C        0.70892245       0.82142026      -0.26177561
O        0.65193014      -0.53443302      -0.72574782
C       -0.58312821      -0.96397399      -0.04302829
C       -0.57719025       0.39484467       0.64366059
N       -0.60500285       1.36632819      -0.27460407
H        1.62589659       1.33356909      -0.53445958
H       -1.39775090      -1.11683633      -0.74285300
H       -0.36287590      -1.82203928       0.58332032
9
Frame=1 idx=001605 GeodesicLength=0.1614920843385179 rxn_smarts="[O:1]=[C:2]([O:3][C:4]([C:5]#[N:6])([H:8])[H:9])[H:7]>>[O:1]=[C:5]1[C:4]([H:8])([H:9])[O:3][C:2]([H:7])=[N:6]1"
O        0.54439743       0.51055669       1.36938173
C        0.72472835       0.81969176      -0.26011431
O        0.64454864      -0.52379262      -0.73783359
C       -0.58078372      -0.95873674      -0.04662697
C       -0.60162581       0.39726556       0.64299352
N       -0.62215321       1.37359793      -0.26633303
H        1.64233469       1.32409506      -0.54592635
H       -1.38965189      -1.13428748      -0.74748905
H       -0.36179447      -1.80839016       0.59194805
9
Frame=2 idx=001605 GeodesicLength=0.32277298684728917 rxn_smarts="[O:1]=[C:2]([O:3][C:4]([C:5]#[N:6])([H:8])[H:9])[H:7]>>[O:1]=[C:5]1[C:4]([H:8])([H:9])[O:3][C:2]([H:7])=[N:6]1"
O        0.54981613       0.49980131       1.38357450
C        0.74115126       0.81769158      -0.25823145
O        0.63701278      -0.51274271      -0.74984499
C       -0.57843840      -0.95319594      -0.05017047
C       -0.62675385       0.39962781       0.64202392
N       -0.63999165       1.38100537      -0.25793811
H        1.65900137       1.31424974      -0.55785111
H       -1.38098766      -1.15193714      -0.75182527
H       -0.36080999      -1.79450001       0.60026299
9
Frame=3 idx=001605 GeodesicLength=0.4838833251046805 rxn_smarts="[O:1]=[C:2]([O:3][C:4]([C:5]#[N:6])([H:8])[H:9])[H:7]>>[O:1]=[C:5]1[C:4]([H:8])([H:9])[O:3][C:2]([H:7])=[N:6]1"
O        0.55549784       0.48882988       1.39807516
C        0.75823399       0.81537715      -0.25612231
O        0.62930900      -0.50125052      -0.76178789
C       -0.57609624      -0.94732878      -0.05366020
C       -0.65262731       0.40192034       0.64071464
N       -0.65856999       1.38856132      -0.24941164
H        1.67589330       1.30401622      -0.57023751
H       -1.37171618      -1.16977709      -0.75585050
H       -0.35992441      -1.78034851       0.60828025
9
Frame=4 idx=001605 GeodesicLength=0.6448996680534261 rxn_smarts="[O:1]=[C:2]([O:3][C:4]([C:5]#[N:6])([H:8])[H:9])[H:7]>>[O:1]=[C:5]1[C:4]([H:8])([H:9])[O:3][C:2]([H:7])=[N:6]1"
O        0.56148998       0.47761866       1.41289194
C        0.77603159       0.81269058      -0.25378570
O        0.62142197      -0.48927496      -0.77366344
C       -0.57375956      -0.94110906      -0.05709996
C       -0.67930345       0.40412728       0.63902647
N       -0.67795730       1.39627478      -0.24074614
H        1.69300702       1.29337459      -0.58308777
H       -1.36178912      -1.18779170      -0.75954904
H       -0.35914114      -1.76591016       0.61601366
9
Frame=5 idx=001605 GeodesicLength=0.8058124345827887 rxn_smarts="[O:1]=[C:2]([O:3][C:4]([C:5]#[N:6])([H:8])[H:9])[H:7]>>[O:1]=[C:5]1[C:4]([H:8])([H:9])[O:3][C:2]([H:7])=[N:6]1"
O        0.56785504       0.46613534       1.42802854
C        0.79458549       0.80958496      -0.25122936
O        0.61333517      -0.47678533      -0.78546720
C       -0.57143685      -0.93451182      -0.06048943
C       -0.70684059       0.40623624       0.63692016
N       -0.69820346       1.40415707      -0.23193247
H        1.71032823       1.28231434      -0.59639783
H       -1.35115366      -1.20597090      -0.76292105
H       -0.35846937      -1.75115989       0.62348863
9
Frame=6 idx=001605 GeodesicLength=0.9667361417255548 rxn_smarts="[O:1]=[C:2]([O:3][C:4]([C:5]#[N:6])([H:8])[H:9])[H:7]>>[O:1]=[C:5]1[C:4]([H:8])([H:9])[O:3][C:2]([H:7])=[N:6]1"
O        0.57465410       0.45435313       1.44348960
C        0.81396332       0.80597725      -0.24846099
O        0.60503187      -0.46372501      -0.79719424
C       -0.56913142      -0.92750551      -0.06383231
C       -0.73531706       0.40822088       0.63434060
N       -0.71939512       1.41221845      -0.22295348
H        1.72785806       1.27081489      -0.61016876
H       -1.33974551      -1.22429201      -0.76594130
H       -0.35791825      -1.73606207       0.63072089
9
Frame=7 idx=001605 GeodesicLength=1.1277109516099482 rxn_smarts="[O:1]=[C:2]([O:3][C:4]([C:5]#[N:6])([H:8])[H:9])[H:7]>>[O:1]=[C:5]1[C:4]([H:8])([H:9])[O:3][C:2]([H:7])=[N:6]1"
O        0.58196124       0.44223761       1.45927411
C        0.83423193       0.80179256      -0.24549601
O        0.59649551      -0.45004646      -0.80882732
C       -0.56685354      -0.92005884      -0.06712429
C       -0.76480496       0.41005714       0.63124295
N       -0.74162003       1.42046277      -0.21379362
H        1.74559658       1.25887002      -0.62440397
H       -1.32749820      -1.24273285      -0.76861077
H       -0.35750853      -1.72058195       0.63773892
9
Frame=8 idx=001605 GeodesicLength=1.2888002788147643 rxn_smarts="[O:1]=[C:2]([O:3][C:4]([C:5]#[N:6])([H:8])[H:9])[H:7]>>[O:1]=[C:5]1[C:4]([H:8])([H:9])[O:3][C:2]([H:7])=[N:6]1"
O        0.58985546       0.42974485       1.47538184
C        0.85546131       0.79694457      -0.24235152
O        0.58771053      -0.43568464      -0.82035590
C       -0.56461041      -0.91213683      -0.07036604
C       -0.79539604       0.41171231       0.62755860
N       -0.76498274       1.42889258      -0.20444329
H        1.76354814       1.24645603      -0.63909633
H       -1.31433255      -1.26125140      -0.77089094
H       -0.35725371      -1.70467747       0.64456358
9
Frame=9 idx=001605 GeodesicLength=1.4507384925207356 rxn_smarts="[O:1]=[C:2]([O:3][C:4]([C:5]#[N:6])([H:8])[H:9])[H:7]>>[O:1]=[C:5]1[C:4]([H:8])([H:9])[O:3][C:2]([H:7])=[N:6]1"
O        0.59850986       0.41676921       1.49186461
C        0.87790934       0.79123467      -0.23891759
O        0.57858490      -0.42051293      -0.83182304
C       -0.56243371      -0.90368107      -0.07353054
C       -0.82723792       0.41315276       0.62310105
N       -0.78975377       1.43751260      -0.19493568
H        1.78173358       1.23358887      -0.65426763
H       -1.30017875      -1.27981883      -0.77276167
H       -0.35713353      -1.68824528       0.65127050
9
Frame=10 idx=001605 GeodesicLength=1.6127956468639095 rxn_smarts="[O:1]=[C:2]([O:3][C:4]([C:5]#[N:6])([H:8])[H:9])[H:7]>>[O:1]=[C:5]1[C:4]([H:8])([H:9])[O:3][C:2]([H:7])=[N:6]1"
O        0.60793519       0.40333683       1.50865199
C        0.90149234       0.78461055      -0.23537444
O        0.56917416      -0.40450413      -0.84312135
C       -0.56031270      -0.89465851      -0.07663075
C       -0.86039008       0.41433125       0.61792046
N       -0.81588184       1.44631180      -0.18517696
H        1.80012310       1.22022879      -0.66989759
H       -1.28491354      -1.29838017      -0.77422521
H       -0.35722664      -1.67127640       0.65785384
9
Frame=11 idx=001605 GeodesicLength=1.774923699152087 rxn_smarts="[O:1]=[C:2]([O:3][C:4]([C:5]#[N:6])([H:8])[H:9])[H:7]>>[O:1]=[C:5]1[C:4]([H:8])([H:9])[O:3][C:2]([H:7])=[N:6]1"
O        0.61820830       0.38941453       1.52573898
C        0.92631772       0.77693724      -0.23174816
O        0.55945229      -0.38757649      -0.85422783
C       -0.55825638      -0.88502325      -0.07965174
C       -0.89496142       0.41520461       0.61194635
N       -0.84349070       1.45527873      -0.17513704
H        1.81872672       1.20636113      -0.68599819
H       -1.26844358      -1.31687972      -0.77526957
H       -0.35755295      -1.65371679       0.66434720
9
Frame=12 idx=001605 GeodesicLength=1.9370844879696834 rxn_smarts="[O:1]=[C:2]([O:3][C:4]([C:5]#[N:6])([H:8])[H:9])[H:7]>>[O:1]=[C:5]1[C:4]([H:8])([H:9])[O:3][C:2]([H:7])=[N:6]1"
O        0.62942534       0.37495657       1.54311744
C        0.95248749       0.76806382      -0.22807872
O        0.54939356      -0.36962399      -0.86510571
C       -0.55627335      -0.87471681      -0.08258273
C       -0.93108965       0.41571630       0.60508487
N       -0.87271632       1.46440370      -0.16476832
H        1.83755926       1.19195169      -0.70258586
H       -1.25063923      -1.33525840      -0.77586900
H       -0.35814709      -1.63549288       0.67078802
9
Frame=13 idx=001605 GeodesicLength=2.0991564506321896 rxn_smarts="[O:1]=[C:2]([O:3][C:4]([C:5]#[N:6])([H:8])[H:9])[H:7]>>[O:1]=[C:5]1[C:4]([H:8])([H:9])[O:3][C:2]([H:7])=[N:6]1"
O        0.64168023       0.35991893       1.56077180
C        0.98012473       0.75781725      -0.22441569
O        0.53898128      -0.35054993      -0.87570289
C       -0.55437179      -0.86368355      -0.08540533
C       -0.96890657       0.41581048       0.59724655
N       -0.90369313       1.47366143      -0.15402885
H        1.85661933       1.17699471      -0.71967709
H       -1.23138477      -1.35343559      -0.77601346
H       -0.35904931      -1.61653373       0.67722496
9
Frame=14 idx=001605 GeodesicLength=2.2611533836857056 rxn_smarts="[O:1]=[C:2]([O:3][C:4]([C:5]#[N:6])([H:8])[H:9])[H:7]>>[O:1]=[C:5]1[C:4]([H:8])([H:9])[O:3][C:2]([H:7])=[N:6]1"
O        0.65508673       0.34425579       1.57869092
C        1.00938042       0.74596002      -0.22080987
O        0.52818636      -0.33019852      -0.88595915
C       -0.55256744      -0.85184314      -0.08809861
C       -1.00860583       0.41539023       0.58827494
N       -0.93659468       1.48303529      -0.14282832
H        1.87592662       1.16145370      -0.73731704
H       -1.21050083      -1.37131955      -0.77566529
H       -0.36031134      -1.59673382       0.68371243
9
Frame=15 idx=001605 GeodesicLength=2.422992882814699 rxn_smarts="[O:1]=[C:2]([O:3][C:4]([C:5]#[N:6])([H:8])[H:9])[H:7]>>[O:1]=[C:5]1[C:4]([H:8])([H:9])[O:3][C:2]([H:7])=[N:6]1"
O        0.66976690       0.32791708       1.59685160
C        1.04042424       0.73221528      -0.21733283
O        0.51699429      -0.30841271      -0.89578908
C       -0.55087382      -0.83911112      -0.09063311
C       -1.05037780       0.41435718       0.57800375
N       -0.97159922       1.49249216      -0.13107738
H        1.89547944       1.14532007      -0.75554370
H       -1.18781550      -1.38879874      -0.77479849
H       -0.36199854      -1.57597918       0.69031924
9
Frame=16 idx=001605 GeodesicLength=2.584556458940251 rxn_smarts="[O:1]=[C:2]([O:3][C:4]([C:5]#[N:6])([H:8])[H:9])[H:7]>>[O:1]=[C:5]1[C:4]([H:8])([H:9])[O:3][C:2]([H:7])=[N:6]1"
O        0.68584222       0.31086285       1.61521856
C        1.07343650       0.71624110      -0.21408778
O        0.50539123      -0.28498969      -0.90508337
C       -0.54930476      -0.82539391      -0.09297469
C       -1.09443783       0.41259702       0.56623577
N       -1.00890584       1.50199074      -0.11865189
H        1.91528119       1.12856865      -0.77439978
H       -1.16311780      -1.40573850      -0.77338289
H       -0.36418491      -1.55413827       0.69712606
