13
Frame=0 idx=007928 GeodesicLength=0.0 rxn_smarts="[C:1]1([H:8])([H:9])[C:2]([H:10])([H:11])[c:3]2[n:4][c:5]([H:12])[c:6]([H:13])[n:7]21>>[C:1]1([H:8])([H:9])[C:2]([H:10])([H:11])[C:3]2=[N+:4]=[C-:5][C:6]([H:12])([H:13])[N:7]12"
C       -1.28895322      -0.54232584       0.23876365
C       -1.27433862       1.01864364       0.16555737
C        0.18974411       0.84667954      -0.19599869
N        1.37151656       1.36208628      -0.31896429
C        2.24413483       0.25970758      -0.54341880
C        1.42629903      -0.92688357      -0.36622596
N        0.11659977      -0.49305077      -0.23001849
H       -1.95657830      -1.05657483      -0.45003306
H       -1.38953138      -0.94943418       1.24408526
H       -1.89486719       1.44730404      -0.61847539
H       -1.45398275       1.53288378       1.10703460
H        2.20581791      -0.55208394       0.55435411
H        1.70413924      -1.94695172      -0.58666028
13
Frame=1 idx=007928 GeodesicLength=0.04151456886078781 rxn_smarts="[C:1]1([H:8])([H:9])[C:2]([H:10])([H:11])[c:3]2[n:4][c:5]([H:12])[c:6]([H:13])[n:7]21>>[C:1]1([H:8])([H:9])[C:2]([H:10])([H:11])[C:3]2=[N+:4]=[C-:5][C:6]([H:12])([H:13])[N:7]12"
C       -1.29133899      -0.54182229       0.24077249
C       -1.27651171       1.01912988       0.16435120
C        0.18866694       0.84585659      -0.19088169
N        1.37095195       1.36188835      -0.32187951
C        2.23895850       0.26009491      -0.54519645
C        1.42731492      -0.92879268      -0.35788333
N        0.11757630      -0.49292072      -0.21585085
H       -1.95343297      -1.05680348      -0.45291153
H       -1.40071387      -0.94755031       1.24575092
H       -1.89378701       1.44629480      -0.62311255
H       -1.46026584       1.53523886       1.10406765
H        2.23340627      -0.55567722       0.55526785
H        1.69917551      -1.94493668      -0.60249418
13
Frame=2 idx=007928 GeodesicLength=0.08303304259564852 rxn_smarts="[C:1]1([H:8])([H:9])[C:2]([H:10])([H:11])[c:3]2[n:4][c:5]([H:12])[c:6]([H:13])[n:7]21>>[C:1]1([H:8])([H:9])[C:2]([H:10])([H:11])[C:3]2=[N+:4]=[C-:5][C:6]([H:12])([H:13])[N:7]12"
C       -1.29370166      -0.54133038       0.24284382
C       -1.27872944       1.01959069       0.16305396
C        0.18761094       0.84506748      -0.18549986
N        1.37039533       1.36164552      -0.32451944
C        2.23372850       0.26039260      -0.54677319
C        1.42832329      -0.93073336      -0.34936738
N        0.11861442      -0.49270153      -0.20117956
H       -1.95000336      -1.05717253      -0.45580204
H       -1.41209402      -0.94559174       1.24740896
H       -1.89258908       1.44512818      -0.62800812
H       -1.46682782       1.53765483       1.10089085
H        2.26171976      -0.55947103       0.55531278
H        1.69355314      -1.94247874      -0.61836077
13
Frame=3 idx=007928 GeodesicLength=0.12457214471877931 rxn_smarts="[C:1]1([H:8])([H:9])[C:2]([H:10])([H:11])[c:3]2[n:4][c:5]([H:12])[c:6]([H:13])[n:7]21>>[C:1]1([H:8])([H:9])[C:2]([H:10])([H:11])[C:3]2=[N+:4]=[C-:5][C:6]([H:12])([H:13])[N:7]12"
C       -1.29603433      -0.54085218       0.24496224
C       -1.28098725       1.02002331       0.16167265
C        0.18657327       0.84432078      -0.17986263
N        1.36984598       1.36136396      -0.32689043
C        2.22844090       0.26060703      -0.54814427
C        1.42931879      -0.93269967      -0.34069216
N        0.11971479      -0.49237966      -0.18600773
H       -1.94627578      -1.05767646      -0.45872189
H       -1.42366831      -0.94357494       1.24903123
H       -1.89127340       1.44380938      -0.63314063
H       -1.47365598       1.54011402       1.09751596
H        2.29074167      -0.56347953       0.55442490
H        1.68725963      -1.93957604      -0.63414726
13
Frame=4 idx=007928 GeodesicLength=0.1661187251074066 rxn_smarts="[C:1]1([H:8])([H:9])[C:2]([H:10])([H:11])[c:3]2[n:4][c:5]([H:12])[c:6]([H:13])[n:7]21>>[C:1]1([H:8])([H:9])[C:2]([H:10])([H:11])[C:3]2=[N+:4]=[C-:5][C:6]([H:12])([H:13])[N:7]12"
C       -1.29832575      -0.54038982       0.24712274
C       -1.28328259       1.02042479       0.16020488
C        0.18555256       0.84362669      -0.17396397
N        1.36930604       1.36105268      -0.32897125
C        2.22309259       0.26074963      -0.54929645
C        1.43029293      -0.93468231      -0.33187144
N        0.12088113      -0.49194028      -0.17032198
H       -1.94222440      -1.05831953      -0.46167600
H       -1.43543261      -0.94150669       1.25060362
H       -1.88983195       1.44233246      -0.63851251
H       -1.48075567       1.54260883       1.09393625
H        2.32045876      -0.56773835       0.55251703
H        1.68026893      -1.93621812      -0.64977091
13
Frame=5 idx=007928 GeodesicLength=0.20770849150675422 rxn_smarts="[C:1]1([H:8])([H:9])[C:2]([H:10])([H:11])[c:3]2[n:4][c:5]([H:12])[c:6]([H:13])[n:7]21>>[C:1]1([H:8])([H:9])[C:2]([H:10])([H:11])[C:3]2=[N+:4]=[C-:5][C:6]([H:12])([H:13])[N:7]12"
C       -1.30056770      -0.53994428       0.24930916
C       -1.28561349       1.02079511       0.15865822
C        0.18454425       0.84299506      -0.16782590
N        1.36877392       1.36072143      -0.33076968
C        2.21768752       0.26082481      -0.55021277
C        1.43123890      -0.93667568      -0.32292429
N        0.12210882      -0.49136690      -0.15414780
H       -1.93784439      -1.05909458      -0.46467411
H       -1.44736871      -0.93940284       1.25209840
H       -1.88827572       1.44070593      -0.64409774
H       -1.48811052       1.54512396       1.09016741
H        2.35083499      -0.57226274       0.54954154
H        1.67259214      -1.93241929      -0.66512244
13
Frame=6 idx=007928 GeodesicLength=0.2493246063481527 rxn_smarts="[C:1]1([H:8])([H:9])[C:2]([H:10])([H:11])[c:3]2[n:4][c:5]([H:12])[c:6]([H:13])[n:7]21>>[C:1]1([H:8])([H:9])[C:2]([H:10])([H:11])[C:3]2=[N+:4]=[C-:5][C:6]([H:12])([H:13])[N:7]12"
C       -1.30274785      -0.53951704       0.25151602
C       -1.28797625       1.02113127       0.15702964
C        0.18354369       0.84243699      -0.16145326
N        1.36825079       1.36037936      -0.33226791
C        2.21222667       0.26084796      -0.55086046
C        1.43214175      -0.93866625      -0.31386291
N        0.12339712      -0.49064470      -0.13749011
H       -1.93311727      -1.06000366      -0.46771455
H       -1.45946268      -0.93727047       1.25350113
H       -1.88659938       1.43892520      -0.64989383
H       -1.49571792       1.54764990       1.08620280
H        2.38184084      -0.57708844       0.54541270
H        1.66422048      -1.92818013      -0.68011927
13
Frame=7 idx=007928 GeodesicLength=0.29096816138811704 rxn_smarts="[C:1]1([H:8])([H:9])[C:2]([H:10])([H:11])[c:3]2[n:4][c:5]([H:12])[c:6]([H:13])[n:7]21>>[C:1]1([H:8])([H:9])[C:2]([H:10])([H:11])[C:3]2=[N+:4]=[C-:5][C:6]([H:12])([H:13])[N:7]12"
C       -1.30485716      -0.53910778       0.25373061
C       -1.29036950       1.02143388       0.15532309
C        0.18254307       0.84196242      -0.15488013
N        1.36773375       1.36003835      -0.33347251
C        2.20672381       0.26082645      -0.55119236
C        1.43299310      -0.94064660      -0.30469832
N        0.12473633      -0.48975750      -0.12039383
H       -1.92804571      -1.06104099      -0.47079419
H       -1.47168304      -0.93512221       1.25479046
H       -1.88481927       1.43699709      -0.65587654
H       -1.50355792       1.55017460       1.08205378
H        2.41342380      -0.58223944       0.54008085
H        1.65517875      -1.92351828      -0.69467089
13
Frame=8 idx=007928 GeodesicLength=0.3325989620307927 rxn_smarts="[C:1]1([H:8])([H:9])[C:2]([H:10])([H:11])[c:3]2[n:4][c:5]([H:12])[c:6]([H:13])[n:7]21>>[C:1]1([H:8])([H:9])[C:2]([H:10])([H:11])[C:3]2=[N+:4]=[C-:5][C:6]([H:12])([H:13])[N:7]12"
C       -1.30688272      -0.53871715       0.25595096
C       -1.29279182       1.02170138       0.15353147
C        0.18153513       0.84158109      -0.14812861
N        1.36722427       1.35970783      -0.33436045
C        2.20119286       0.26077362      -0.55114392
C        1.43378031      -0.94260404      -0.29543832
N        0.12611875      -0.48869149      -0.10289098
H       -1.92262431      -1.06221012      -0.47389545
H       -1.48399780      -0.93296032       1.25596082
H       -1.88293966       1.43491553      -0.66204502
H       -1.51162237       1.55269333       1.07771056
H        2.44553146      -0.58775257       0.53346963
H        1.64547590      -1.91843707      -0.70872069
13
Frame=9 idx=007928 GeodesicLength=0.37407389073815495 rxn_smarts="[C:1]1([H:8])([H:9])[C:2]([H:10])([H:11])[c:3]2[n:4][c:5]([H:12])[c:6]([H:13])[n:7]21>>[C:1]1([H:8])([H:9])[C:2]([H:10])([H:11])[C:3]2=[N+:4]=[C-:5][C:6]([H:12])([H:13])[N:7]12"
C       -1.30882052      -0.53834185       0.25817946
C       -1.29524582       1.02193626       0.15164596
C        0.18051592       0.84129679      -0.14121686
N        1.36673076       1.35939456      -0.33487998
C        2.19565296       0.26068998      -0.55064169
C        1.43449664      -0.94453862      -0.28608388
N        0.12753532      -0.48743886      -0.08500274
H       -1.91686063      -1.06351212      -0.47699844
H       -1.49638612      -0.93078000       1.25701285
H       -1.88096851       1.43267781      -0.66840630
H       -1.51991194       1.55521269       1.07316154
H        2.47809375      -0.59363280       0.52546086
H        1.63516820      -1.91296384      -0.72223078
13
Frame=10 idx=007928 GeodesicLength=0.41556446989587614 rxn_smarts="[C:1]1([H:8])([H:9])[C:2]([H:10])([H:11])[c:3]2[n:4][c:5]([H:12])[c:6]([H:13])[n:7]21>>[C:1]1([H:8])([H:9])[C:2]([H:10])([H:11])[C:3]2=[N+:4]=[C-:5][C:6]([H:12])([H:13])[N:7]12"
C       -1.31065895      -0.53798434       0.26038811
C       -1.29772449       1.02213791       0.14968240
C        0.17946901       0.84111774      -0.13423104
N        1.36623951       1.35911232      -0.33511344
C        2.19012478       0.26059213      -0.54962886
C        1.43513471      -0.94643872      -0.27663680
N        0.12896088      -0.48598621      -0.06687033
H       -1.91078843      -1.06492811      -0.48009976
H       -1.50877224      -0.92861155       1.25791396
H       -1.87894706       1.43030848      -0.67489171
H       -1.52835975       1.55770118       1.06844951
H        2.51103458      -0.59990822       0.51612998
H        1.62428743      -1.90711260      -0.73509202
13
Frame=11 idx=007928 GeodesicLength=0.45704940848857883 rxn_smarts="[C:1]1([H:8])([H:9])[C:2]([H:10])([H:11])[c:3]2[n:4][c:5]([H:12])[c:6]([H:13])[n:7]21>>[C:1]1([H:8])([H:9])[C:2]([H:10])([H:11])[C:3]2=[N+:4]=[C-:5][C:6]([H:12])([H:13])[N:7]12"
C       -1.31238967      -0.53764549       0.26256401
C       -1.30022344       1.02230597       0.14764362
C        0.17838347       0.84104900      -0.12722128
N        1.36575075       1.35886411      -0.33507236
C        2.18462487       0.26049419      -0.54804602
C        1.43568303      -0.94829293      -0.26707675
N        0.13037608      -0.48432671      -0.04858757
H       -1.90443203      -1.06644688      -0.48318551
H       -1.52110743      -0.92646808       1.25865141
H       -1.87689305       1.42781852      -0.68147266
H       -1.53693049       1.56014341       1.06358870
H        2.54427416      -0.60659411       0.50545031
H        1.61288373      -1.90090100      -0.74723590
13
Frame=12 idx=007928 GeodesicLength=0.4985382324063854 rxn_smarts="[C:1]1([H:8])([H:9])[C:2]([H:10])([H:11])[c:3]2[n:4][c:5]([H:12])[c:6]([H:13])[n:7]21>>[C:1]1([H:8])([H:9])[C:2]([H:10])([H:11])[C:3]2=[N+:4]=[C-:5][C:6]([H:12])([H:13])[N:7]12"
C       -1.31401208      -0.53732434       0.26469311
C       -1.30274053       1.02244261       0.14553526
C        0.17724660       0.84109048      -0.12025566
N        1.36526066       1.35865524      -0.33478717
C        2.17917948       0.26040616      -0.54582390
C        1.43614065      -0.95009579      -0.25739037
N        0.13175580      -0.48246049      -0.03027106
H       -1.89783690      -1.06805360      -0.48624073
H       -1.53333466      -0.92436379       1.25921536
H       -1.87484054       1.42522732      -0.68810978
H       -1.54557825       1.56252696       1.05860372
H        2.57772837      -0.61370359       0.49343180
H        1.60103140      -1.89434716      -0.75860058
13
Frame=13 idx=007928 GeodesicLength=0.5400418239283091 rxn_smarts="[C:1]1([H:8])([H:9])[C:2]([H:10])([H:11])[c:3]2[n:4][c:5]([H:12])[c:6]([H:13])[n:7]21>>[C:1]1([H:8])([H:9])[C:2]([H:10])([H:11])[C:3]2=[N+:4]=[C-:5][C:6]([H:12])([H:13])[N:7]12"
C       -1.31553334      -0.53701802       0.26676277
C       -1.30527708       1.02255257       0.14336453
C        0.17604542       0.84123685      -0.11340143
N        1.36476347       1.35849143      -0.33429200
C        2.17381999       0.26033239      -0.54289290
C        1.43651201      -0.95184907      -0.24756315
N        0.13307281      -0.48039149      -0.01203038
H       -1.89105526      -1.06972989      -0.48925309
H       -1.54540672      -0.92230954       1.25959947
H       -1.87282687       1.42255829      -0.69476305
H       -1.55425920       1.56484341       1.05352192
H        2.61132031      -0.62123364       0.48009098
H        1.58882445      -1.88748329      -0.76914368
13
Frame=14 idx=007928 GeodesicLength=0.5815412268530502 rxn_smarts="[C:1]1([H:8])([H:9])[C:2]([H:10])([H:11])[c:3]2[n:4][c:5]([H:12])[c:6]([H:13])[n:7]21>>[C:1]1([H:8])([H:9])[C:2]([H:10])([H:11])[C:3]2=[N+:4]=[C-:5][C:6]([H:12])([H:13])[N:7]12"
C       -1.31695950      -0.53672449       0.26877070
C       -1.30783423       1.02263744       0.14112803
C        0.17476976       0.84148338      -0.10670473
N        1.36425679       1.35837179      -0.33359726
C        2.16857780       0.26028686      -0.53916414
C        1.43679536      -0.95354644      -0.23757560
N        0.13430584      -0.47812767       0.00605071
H       -1.88413150      -1.07146767      -0.49219953
H       -1.55728804      -0.92030594       1.25981181
H       -1.87087274       1.41981923      -0.70141965
H       -1.56294710       1.56709107       1.04834805
H        2.64499066      -0.62920360       0.46540003
H        1.57633690      -1.88031395      -0.77884842
13
Frame=15 idx=007928 GeodesicLength=0.6230338716395747 rxn_smarts="[C:1]1([H:8])([H:9])[C:2]([H:10])([H:11])[c:3]2[n:4][c:5]([H:12])[c:6]([H:13])[n:7]21>>[C:1]1([H:8])([H:9])[C:2]([H:10])([H:11])[C:3]2=[N+:4]=[C-:5][C:6]([H:12])([H:13])[N:7]12"
C       -1.31830190      -0.53644053       0.27071819
C       -1.31041562       1.02269998       0.13882164
C        0.17341116       0.84182188      -0.10020298
N        1.36373905       1.35829769      -0.33271220
C        2.16348542       0.26027878      -0.53455211
C        1.43699519      -0.95519051      -0.22741095
N        0.13543482      -0.47567888       0.02391040
H       -1.87710757      -1.07326030      -0.49505987
H       -1.56895626      -0.91834889       1.25986537
H       -1.86899785       1.41701735      -0.70807250
H       -1.57162356       1.56927440       1.04308403
H        2.67868795      -0.63762315       0.44933208
H        1.56364918      -1.87284783      -0.78772109
13
Frame=16 idx=007928 GeodesicLength=0.6645001733198583 rxn_smarts="[C:1]1([H:8])([H:9])[C:2]([H:10])([H:11])[c:3]2[n:4][c:5]([H:12])[c:6]([H:13])[n:7]21>>[C:1]1([H:8])([H:9])[C:2]([H:10])([H:11])[C:3]2=[N+:4]=[C-:5][C:6]([H:12])([H:13])[N:7]12"
C       -1.31957318      -0.53616332       0.27260838
C       -1.31302436       1.02274262       0.13643996
C        0.17196327       0.84224165      -0.09392778
N        1.36320941       1.35826794      -0.33164759
C        2.15857828       0.26031686      -0.52895981
C        1.43711705      -0.95678587      -0.21705036
N        0.13644248      -0.47305753       0.04149922
H       -1.87002239      -1.07510346      -0.49781557
H       -1.58039680      -0.91643255       1.25977532
H       -1.86721793       1.41415725      -0.71471966
H       -1.58027299       1.57139972       1.03772840
H        2.71236142      -0.64649682       0.43184393
H        1.55083574      -1.86508649      -0.79577445
