14
Frame=0 idx=007893 GeodesicLength=0.0 rxn_smarts="[C:1](/[C:2](=[N:3]\[O:4][H:11])[C@@:5]1([H:12])[C:6]([H:13])([H:14])[O:7]1)([H:8])([H:9])[H:10]>>[C:1]([C@@:2]1([C:5](=[O:7])[H:12])[N:3]([O:4][H:11])[C:6]1([H:13])[H:14])([H:8])([H:9])[H:10]"
C       -1.41226619      -1.24160528      -0.17992245
C       -0.31041292      -0.26631878      -0.07706161
N       -0.30005886       0.87883207       0.47889118
O       -1.47504102       1.38754940       0.99360727
C        1.11055411      -0.32193135      -0.66662784
C        1.62118258       0.86798200       0.06154228
O        2.02113656      -1.22501012      -0.36164032
H       -1.86338055      -1.18182635      -1.17360759
H       -0.99485910      -2.24360858      -0.06823505
H       -2.18632280      -1.06626896       0.56543507
H       -1.19978117       2.12800527       1.54026804
H        0.97972039      -0.10349638      -1.75346761
H        2.07056636       1.72949815      -0.43161612
H        1.93896260       0.65819886       1.07243472
14
Frame=1 idx=007893 GeodesicLength=0.08164187212067953 rxn_smarts="[C:1](/[C:2](=[N:3]\[O:4][H:11])[C@@:5]1([H:12])[C:6]([H:13])([H:14])[O:7]1)([H:8])([H:9])[H:10]>>[C:1]([C@@:2]1([C:5](=[O:7])[H:12])[N:3]([O:4][H:11])[C:6]1([H:13])[H:14])([H:8])([H:9])[H:10]"
C       -1.39203251      -1.25034587      -0.15312553
C       -0.30022364      -0.26078528      -0.06818764
N       -0.29362648       0.87971498       0.50769951
O       -1.49399098       1.43678236       0.90017478
C        1.09415687      -0.31481144      -0.70616385
C        1.62406573       0.83836274       0.09739172
O        2.00675242      -1.22595952      -0.44046903
H       -1.87147136      -1.18296075      -1.13286896
H       -0.96479223      -2.25020067      -0.06289872
H       -2.14720073      -1.08994992       0.61481580
H       -1.24706112       2.15706702       1.48588240
H        0.95554008      -0.03789441      -1.77651749
H        2.09086258       1.70612829      -0.36749173
H        1.93902136       0.59485248       1.10175875
14
Frame=2 idx=007893 GeodesicLength=0.16336696844404283 rxn_smarts="[C:1](/[C:2](=[N:3]\[O:4][H:11])[C@@:5]1([H:12])[C:6]([H:13])([H:14])[O:7]1)([H:8])([H:9])[H:10]>>[C:1]([C@@:2]1([C:5](=[O:7])[H:12])[N:3]([O:4][H:11])[C:6]1([H:13])[H:14])([H:8])([H:9])[H:10]"
C       -1.37238932      -1.25850006      -0.12842736
C       -0.29124845      -0.25483207      -0.06156011
N       -0.29022340       0.88103887       0.53372931
O       -1.50227902       1.47994840       0.81430991
C        1.07645636      -0.30583786      -0.74394290
C        1.62408835       0.80872522       0.13097485
O        1.99037559      -1.22260314      -0.51241690
H       -1.87735059      -1.18710675      -1.09486276
H       -0.93579356      -2.25551603      -0.05582782
H       -2.10965920      -1.10981958       0.65911178
H       -1.28764096       2.18238583       1.43319231
H        0.93349765       0.02563834      -1.79601115
H        2.10780127       1.68062781      -0.30767592
H        1.93436527       0.53585103       1.12940675
14
Frame=3 idx=007893 GeodesicLength=0.2452350239833197 rxn_smarts="[C:1](/[C:2](=[N:3]\[O:4][H:11])[C@@:5]1([H:12])[C:6]([H:13])([H:14])[O:7]1)([H:8])([H:9])[H:10]>>[C:1]([C@@:2]1([C:5](=[O:7])[H:12])[N:3]([O:4][H:11])[C:6]1([H:13])[H:14])([H:8])([H:9])[H:10]"
C       -1.35345262      -1.26554323      -0.10616607
C       -0.28324760      -0.24805913      -0.05694589
N       -0.28929813       0.88453692       0.55508195
O       -1.50362830       1.51739674       0.73757469
C        1.05836934      -0.29645769      -0.77949845
C        1.62203008       0.77975038       0.16151002
O        1.97318492      -1.21667815      -0.57562035
H       -1.88243308      -1.19169473      -1.05937294
H       -0.90802370      -2.25951646      -0.04970878
H       -2.07311717      -1.12746069       0.69951458
H       -1.32361450       2.20338923       1.38515322
H        0.91474369       0.08420063      -1.81263354
H        2.12280397       1.65301219      -0.25427521
H        1.92568309       0.48312399       1.15538675
14
Frame=4 idx=007893 GeodesicLength=0.3270516595501927 rxn_smarts="[C:1](/[C:2](=[N:3]\[O:4][H:11])[C@@:5]1([H:12])[C:6]([H:13])([H:14])[O:7]1)([H:8])([H:9])[H:10]>>[C:1]([C@@:2]1([C:5](=[O:7])[H:12])[N:3]([O:4][H:11])[C:6]1([H:13])[H:14])([H:8])([H:9])[H:10]"
C       -1.33512656      -1.27110212      -0.08620858
C       -0.27581895      -0.24048830      -0.05387582
N       -0.28982562       0.89013366       0.57232281
O       -1.50015547       1.55069328       0.66861423
C        1.04036066      -0.28753263      -0.81282903
C        1.61848388       0.75163843       0.18891802
O        1.95573981      -1.20950730      -0.63014360
H       -1.88712702      -1.19519806      -1.02599931
H       -0.88175591      -2.26207614      -0.04558376
H       -2.03697924      -1.14326988       0.73681208
H       -1.35730017       2.21914513       1.34305388
H        0.89938957       0.13675593      -1.82716464
H        2.13601082       1.62378580      -0.20780521
H        1.91410421       0.43702220       1.17988893
14
Frame=5 idx=007893 GeodesicLength=0.4090980885272294 rxn_smarts="[C:1](/[C:2](=[N:3]\[O:4][H:11])[C@@:5]1([H:12])[C:6]([H:13])([H:14])[O:7]1)([H:8])([H:9])[H:10]>>[C:1]([C@@:2]1([C:5](=[O:7])[H:12])[N:3]([O:4][H:11])[C:6]1([H:13])[H:14])([H:8])([H:9])[H:10]"
C       -1.31702449      -1.27641306      -0.06775781
C       -0.26926633      -0.23258768      -0.05212032
N       -0.29167231       0.89603019       0.58810895
O       -1.49309864       1.58088870       0.60618406
C        1.02175273      -0.27805155      -0.84495249
C        1.61336108       0.72353273       0.21479956
O        1.93773446      -1.20074607      -0.68018609
H       -1.89140833      -1.19929913      -0.99381647
H       -0.85584408      -2.26412904      -0.04265526
H       -2.00066373      -1.15876853       0.77205247
H       -1.38706711       2.23495307       1.30106407
H        0.88588676       0.18715799      -1.83989081
H        2.14725786       1.59328821      -0.16464277
H        1.90005212       0.39414417       1.20381290
14
Frame=6 idx=007893 GeodesicLength=0.4914897447786296 rxn_smarts="[C:1](/[C:2](=[N:3]\[O:4][H:11])[C@@:5]1([H:12])[C:6]([H:13])([H:14])[O:7]1)([H:8])([H:9])[H:10]>>[C:1]([C@@:2]1([C:5](=[O:7])[H:12])[N:3]([O:4][H:11])[C:6]1([H:13])[H:14])([H:8])([H:9])[H:10]"
C       -1.29916031      -1.28071861      -0.05048433
C       -0.26314172      -0.22404911      -0.05155507
N       -0.29412269       0.90310550       0.60165779
O       -1.48285572       1.60964118       0.54745792
C        1.00306588      -0.26866720      -0.87591714
C        1.60734483       0.69553235       0.23885737
O        1.91955256      -1.19134188      -0.72546838
H       -1.89574311      -1.20267756      -0.96219703
H       -0.83077559      -2.26515954      -0.04108768
H       -1.96369466      -1.17321555       0.80596042
H       -1.41677212       2.24686204       1.26249036
H        0.87472252       0.23437153      -1.85132510
H        2.15742321       1.56143730      -0.12549886
H        1.88415693       0.35487952       1.22710973
14
Frame=7 idx=007893 GeodesicLength=0.5741006220850995 rxn_smarts="[C:1](/[C:2](=[N:3]\[O:4][H:11])[C@@:5]1([H:12])[C:6]([H:13])([H:14])[O:7]1)([H:8])([H:9])[H:10]>>[C:1]([C@@:2]1([C:5](=[O:7])[H:12])[N:3]([O:4][H:11])[C:6]1([H:13])[H:14])([H:8])([H:9])[H:10]"
C       -1.28148871      -1.28480504      -0.03445187
C       -0.25760397      -0.21544395      -0.05169210
N       -0.29733532       0.91015156       0.61452458
O       -1.47014718       1.63653513       0.49353104
C        0.98396524      -0.25914703      -0.90579326
C        1.60012006       0.66766415       0.26167615
O        1.90124584      -1.18099616      -0.76708956
H       -1.89997200      -1.20587734      -0.93124353
H       -0.80630364      -2.26585905      -0.04126915
H       -1.92614723      -1.18779816       0.83837830
H       -1.44374477       2.25870395       1.22407158
H        0.86502133       0.27935865      -1.86136127
H        2.16568469       1.52887514      -0.08935730
H        1.86670567       0.31863816       1.25007639
14
Frame=8 idx=007893 GeodesicLength=0.6570268479431898 rxn_smarts="[C:1](/[C:2](=[N:3]\[O:4][H:11])[C@@:5]1([H:12])[C:6]([H:13])([H:14])[O:7]1)([H:8])([H:9])[H:10]>>[C:1]([C@@:2]1([C:5](=[O:7])[H:12])[N:3]([O:4][H:11])[C:6]1([H:13])[H:14])([H:8])([H:9])[H:10]"
C       -1.26401456      -1.28817245      -0.01936742
C       -0.25238103      -0.20652074      -0.05254023
N       -0.30083509       0.91773017       0.62621685
O       -1.45482044       1.66271678       0.44262320
C        0.96473298      -0.24979980      -0.93473663
C        1.59215288       0.63989337       0.28318857
O        1.88294274      -1.17026575      -0.80519311
H       -1.90433274      -1.20824263      -0.90047268
H       -0.78273642      -2.26585259      -0.04302945
H       -1.88770027      -1.20189584       0.86976584
H       -1.47082921       2.26778720       1.18753767
H        0.85704065       0.32176696      -1.87037271
H        2.17274497       1.49548309      -0.05635781
H        1.84803556       0.28537223       1.27273791
14
Frame=9 idx=007893 GeodesicLength=0.7403209741744805 rxn_smarts="[C:1](/[C:2](=[N:3]\[O:4][H:11])[C@@:5]1([H:12])[C:6]([H:13])([H:14])[O:7]1)([H:8])([H:9])[H:10]>>[C:1]([C@@:2]1([C:5](=[O:7])[H:12])[N:3]([O:4][H:11])[C:6]1([H:13])[H:14])([H:8])([H:9])[H:10]"
C       -1.24654345      -1.29161258      -0.00513929
C       -0.24780496      -0.19757236      -0.05410671
N       -0.30507416       0.92514237       0.63737645
O       -1.43782121       1.68768113       0.39539796
C        0.94498408      -0.24015668      -0.96300428
C        1.58301925       0.61199174       0.30400531
O        1.86450702      -1.15863207      -0.84097710
H       -1.90886078      -1.21073155      -0.86959048
H       -0.75947579      -2.26570164      -0.04647745
H       -1.84788852      -1.21663804       0.90034499
H       -1.49509844       2.27778809       1.15007382
H        0.85017530       0.36292827      -1.87821367
H        2.17813906       1.46143055      -0.02514062
H        1.82774259       0.25408277       1.29545106
14
Frame=10 idx=007893 GeodesicLength=0.8240982986538867 rxn_smarts="[C:1](/[C:2](=[N:3]\[O:4][H:11])[C@@:5]1([H:12])[C:6]([H:13])([H:14])[O:7]1)([H:8])([H:9])[H:10]>>[C:1]([C@@:2]1([C:5](=[O:7])[H:12])[N:3]([O:4][H:11])[C:6]1([H:13])[H:14])([H:8])([H:9])[H:10]"
C       -1.22912689      -1.29464861       0.00843557
C       -0.24360553      -0.18842722      -0.05625838
N       -0.30960259       0.93277758       0.64782188
O       -1.41854435       1.71239653       0.35049407
C        0.92492524      -0.23046637      -0.99065102
C        1.57311200       0.58396277       0.32401794
O        1.84602311      -1.14649883      -0.87445676
H       -1.91360114      -1.21272517      -0.83831812
H       -0.73690837      -2.26505661      -0.05143707
H       -1.80662480      -1.23135289       0.93026878
H       -1.51922502       2.28615931       1.11303989
H        0.84454405       0.40243738      -1.88510284
H        2.18238640       1.42662280       0.00402472
H        1.80624790       0.22481933       1.31812135
14
Frame=11 idx=007893 GeodesicLength=0.9082787120880345 rxn_smarts="[C:1](/[C:2](=[N:3]\[O:4][H:11])[C@@:5]1([H:12])[C:6]([H:13])([H:14])[O:7]1)([H:8])([H:9])[H:10]>>[C:1]([C@@:2]1([C:5](=[O:7])[H:12])[N:3]([O:4][H:11])[C:6]1([H:13])[H:14])([H:8])([H:9])[H:10]"
C       -1.21179455      -1.29735585       0.02130732
C       -0.23976710      -0.17918353      -0.05891581
N       -0.31440696       0.94050587       0.65766479
O       -1.39720129       1.73690214       0.30814173
C        0.90457163      -0.22084789      -1.01768813
C        1.56242174       0.55590577       0.34330272
O        1.82757657      -1.13394694      -0.90565535
H       -1.91857482      -1.21417680      -0.80661937
H       -0.71518152      -2.26400373      -0.05806095
H       -1.76382407      -1.24620003       0.95943075
H       -1.54288889       2.29318085       1.07619516
H        0.84006885       0.44018991      -1.89110732
H        2.18535557       1.39128904       0.03119493
H        1.78364487       0.19774118       1.34080954
14
Frame=12 idx=007893 GeodesicLength=0.9929032589898372 rxn_smarts="[C:1](/[C:2](=[N:3]\[O:4][H:11])[C@@:5]1([H:12])[C:6]([H:13])([H:14])[O:7]1)([H:8])([H:9])[H:10]>>[C:1]([C@@:2]1([C:5](=[O:7])[H:12])[N:3]([O:4][H:11])[C:6]1([H:13])[H:14])([H:8])([H:9])[H:10]"
C       -1.19448421      -1.30011906       0.03348948
C       -0.23636918      -0.17007540      -0.06185407
N       -0.31970322       0.94792369       0.66738552
O       -1.37406857       1.76094526       0.26847406
C        0.88371817      -0.21113042      -1.04413584
C        1.55077321       0.52784028       0.36210765
O        1.80915039      -1.12068209      -0.93501823
H       -1.92360156      -1.21553312      -0.77450140
H       -0.69412398      -2.26282058      -0.06634603
H       -1.71950935      -1.26163526       0.98765674
H       -1.56467813       2.30049332       1.03846855
H        0.83620123       0.47656473      -1.89612731
H        2.18673229       1.35567546       0.05681623
H        1.75996290       0.17255319       1.36358466
14
Frame=13 idx=007893 GeodesicLength=1.0779543842640427 rxn_smarts="[C:1](/[C:2](=[N:3]\[O:4][H:11])[C@@:5]1([H:12])[C:6]([H:13])([H:14])[O:7]1)([H:8])([H:9])[H:10]>>[C:1]([C@@:2]1([C:5](=[O:7])[H:12])[N:3]([O:4][H:11])[C:6]1([H:13])[H:14])([H:8])([H:9])[H:10]"
C       -1.17727522      -1.30268786       0.04501415
C       -0.23327017      -0.16102496      -0.06504929
N       -0.32526313       0.95520469       0.67685173
O       -1.34883738       1.78498591       0.23121400
C        0.86249512      -0.20153290      -1.07002441
C        1.53837186       0.49983252       0.38038710
O        1.79081068      -1.10697826      -0.96243072
H       -1.92873196      -1.21643047      -0.74185936
H       -0.67407040      -2.26133463      -0.07625924
H       -1.67364411      -1.27734267       1.01489975
H       -1.58582749       2.30674149       1.00043262
H        0.83306329       0.51124891      -1.90031886
H        2.18673709       1.31984473       0.08072314
H        1.73544182       0.14947349       1.38641939
14
Frame=14 idx=007893 GeodesicLength=1.1633666484447052 rxn_smarts="[C:1](/[C:2](=[N:3]\[O:4][H:11])[C@@:5]1([H:12])[C:6]([H:13])([H:14])[O:7]1)([H:8])([H:9])[H:10]>>[C:1]([C@@:2]1([C:5](=[O:7])[H:12])[N:3]([O:4][H:11])[C:6]1([H:13])[H:14])([H:8])([H:9])[H:10]"
C       -1.16022196      -1.30519286       0.05581736
C       -0.23041652      -0.15219395      -0.06828067
N       -0.33112546       0.96211338       0.68637171
O       -1.32150154       1.80894850       0.19657408
C        0.84084786      -0.19212732      -1.09530064
C        1.52522836       0.47204572       0.39821915
O        1.77261484      -1.09280116      -0.98792030
H       -1.93378534      -1.21697417      -0.70889387
H       -0.65513314      -2.25966575      -0.08774977
H       -1.62652613      -1.29342872       1.04083286
H       -1.60582714       2.31233913       0.96182075
H        0.83030343       0.54412621      -1.90371549
H        2.18518770       1.28413796       0.10291994
H        1.71035505       0.12867302       1.40930490
14
Frame=15 idx=007893 GeodesicLength=1.2490931858911296 rxn_smarts="[C:1](/[C:2](=[N:3]\[O:4][H:11])[C@@:5]1([H:12])[C:6]([H:13])([H:14])[O:7]1)([H:8])([H:9])[H:10]>>[C:1]([C@@:2]1([C:5](=[O:7])[H:12])[N:3]([O:4][H:11])[C:6]1([H:13])[H:14])([H:8])([H:9])[H:10]"
C       -1.14336653      -1.30772081       0.06586450
C       -0.22776251      -0.14368106      -0.07142121
N       -0.33733038       0.96850785       0.69610594
O       -1.29206086       1.83280434       0.16467800
C        0.81874574      -0.18298139      -1.11994586
C        1.51137368       0.44460125       0.41568552
O        1.75460589      -1.07813680      -1.01152262
H       -1.93865331      -1.21725039      -0.67572656
H       -0.63739732      -2.25788499      -0.10075085
H       -1.57835684      -1.30996039       1.06523392
H       -1.62434182       2.31750521       0.92247530
H        0.82764250       0.57511162      -1.90638893
H        2.18199853       1.24882119       0.12346576
H        1.68490324       0.11026438       1.43224708
14
Frame=16 idx=007893 GeodesicLength=1.3351001506276483 rxn_smarts="[C:1](/[C:2](=[N:3]\[O:4][H:11])[C@@:5]1([H:12])[C:6]([H:13])([H:14])[O:7]1)([H:8])([H:9])[H:10]>>[C:1]([C@@:2]1([C:5](=[O:7])[H:12])[N:3]([O:4][H:11])[C:6]1([H:13])[H:14])([H:8])([H:9])[H:10]"
C       -1.12672367      -1.31045046       0.07511369
C       -0.22530992      -0.13561217      -0.07436825
N       -0.34402038       0.97419450       0.70621250
O       -1.26061171       1.85642062       0.13565323
C        0.79611524      -0.17412272      -1.14394854
C        1.49677865       0.41761802       0.43288908
O        1.73681493      -1.06289060      -1.03331687
H       -1.94316563      -1.21755022      -0.64256486
H       -0.62080826      -2.25612114      -0.11509781
H       -1.52941612      -1.32705862       1.08785644
H       -1.64059515       2.32288326       0.88223448
H        0.82471100       0.60419605      -1.90840856
H        2.17701489       1.21418699       0.14249044
H        1.65921613       0.09430648       1.45525503
