17
Frame=0 idx=010789 GeodesicLength=0.0 rxn_smarts="[C:1]([O:2][C@@:3]1([H:11])[C:4]([H:12])([H:13])[C@:5]1([C:6]([O:7][H:17])([H:15])[H:16])[H:14])([H:8])([H:9])[H:10]>>[C:1]([O:2]/[C:3](=[C:5](\[C:6]([O:7][H:17])([H:15])[H:16])[H:14])[H:11])([H:8])([H:9])[H:10].[C:4]([H:12])[H:13]"
C        2.37032409       0.44264419       0.18190175
O        0.96400443       0.48820202       0.00301575
C        0.37810411      -0.71054044      -0.25375261
C        0.16465899      -0.17534457       2.44416159
C       -0.90255882      -0.82128156      -0.59268001
C       -1.84693390       0.32171454      -0.79506181
O       -2.46718698       0.27731955      -2.07097924
H        2.86606922       0.11837499      -0.73747791
H        2.62753733      -0.22489607       1.00829788
H        2.68649845       1.45471790       0.42426420
H        1.02230382      -1.57872711      -0.14421233
H       -0.88363927      -0.50577371       2.31407680
H        0.08253038       0.92856688       2.41685759
H       -1.29052547      -1.82102792      -0.74845475
H       -2.66794301       0.27033418      -0.07608217
H       -1.32920740       1.27385681      -0.63993734
H       -1.77403591       0.26186033      -2.73393740
17
Frame=1 idx=010789 GeodesicLength=0.11366915983111575 rxn_smarts="[C:1]([O:2][C@@:3]1([H:11])[C:4]([H:12])([H:13])[C@:5]1([C:6]([O:7][H:17])([H:15])[H:16])[H:14])([H:8])([H:9])[H:10]>>[C:1]([O:2]/[C:3](=[C:5](\[C:6]([O:7][H:17])([H:15])[H:16])[H:14])[H:11])([H:8])([H:9])[H:10].[C:4]([H:12])[H:13]"
C        2.36758121       0.45062761       0.17227558
O        0.95994214       0.49031699       0.00463441
C        0.37349242      -0.71435272      -0.23158229
C        0.15877586      -0.19258302       2.37911288
C       -0.91796011      -0.82081735      -0.54542693
C       -1.85000531       0.32519234      -0.78598346
O       -2.42754623       0.27827128      -2.08142290
H        2.85392712       0.12079852      -0.75011622
H        2.63789019      -0.20999025       1.00002724
H        2.68130219       1.46555784       0.40579425
H        1.02004167      -1.58317871      -0.14493792
H       -0.89341018      -0.52601156       2.31762483
H        0.08675340       0.91127119       2.39962619
H       -1.30748879      -1.81894835      -0.70831469
H       -2.69402829       0.27863285      -0.09383186
H       -1.33730967       1.27765470      -0.61715709
H       -1.71195762       0.26755865      -2.72032201
17
Frame=2 idx=010789 GeodesicLength=0.2274040416908444 rxn_smarts="[C:1]([O:2][C@@:3]1([H:11])[C:4]([H:12])([H:13])[C@:5]1([C:6]([O:7][H:17])([H:15])[H:16])[H:14])([H:8])([H:9])[H:10]>>[C:1]([O:2]/[C:3](=[C:5](\[C:6]([O:7][H:17])([H:15])[H:16])[H:14])[H:11])([H:8])([H:9])[H:10].[C:4]([H:12])[H:13]"
C        2.36432803       0.45782700       0.16371736
O        0.95568297       0.49215999       0.00538271
C        0.36910288      -0.71800610      -0.21192707
C        0.15278116      -0.20597747       2.31689213
C       -0.93258720      -0.81946638      -0.50139218
C       -1.85289628       0.32845027      -0.77764278
O       -2.38904770       0.27889532      -2.09038076
H        2.84259855       0.12208591      -0.76075364
H        2.64617794      -0.19576341       0.99318625
H        2.67551543       1.47547236       0.38873942
H        1.01645721      -1.58792660      -0.14521336
H       -0.89708886      -0.54876251       2.32113168
H        0.08994897       0.89603361       2.38125621
H       -1.32413808      -1.81605593      -0.66989911
H       -2.71805750       0.28564727      -0.11180507
H       -1.34593177       1.28150482      -0.59568016
H       -1.65284574       0.27388187      -2.70561163
17
Frame=3 idx=010789 GeodesicLength=0.3412125455495491 rxn_smarts="[C:1]([O:2][C@@:3]1([H:11])[C:4]([H:12])([H:13])[C@:5]1([C:6]([O:7][H:17])([H:15])[H:16])[H:14])([H:8])([H:9])[H:10]>>[C:1]([O:2]/[C:3](=[C:5](\[C:6]([O:7][H:17])([H:15])[H:16])[H:14])[H:11])([H:8])([H:9])[H:10].[C:4]([H:12])[H:13]"
C        2.36065668       0.46433435       0.15617261
O        0.95126840       0.49372827       0.00535913
C        0.36491507      -0.72157228      -0.19452790
C        0.14655867      -0.21608287       2.25724318
C       -0.94646219      -0.81739015      -0.46038628
C       -1.85563223       0.33150614      -0.76998403
O       -2.35180557       0.27928140      -2.09798350
H        2.83208059       0.12235502      -0.76952224
H        2.65263634      -0.18210112       0.98774003
H        2.66922021       1.48457931       0.37297325
H        1.01177027      -1.59298842      -0.14490984
H       -0.89524880      -0.57343908       2.32434275
H        0.09235799       0.88258380       2.36192447
H       -1.34049188      -1.81250312      -0.63308093
H       -2.74015166       0.29151305      -0.12982366
H       -1.35495863       1.28536956      -0.57550257
H       -1.59671326       0.28082612      -2.69003448
17
Frame=4 idx=010789 GeodesicLength=0.455075577438962 rxn_smarts="[C:1]([O:2][C@@:3]1([H:11])[C:4]([H:12])([H:13])[C@:5]1([C:6]([O:7][H:17])([H:15])[H:16])[H:14])([H:8])([H:9])[H:10]>>[C:1]([O:2]/[C:3](=[C:5](\[C:6]([O:7][H:17])([H:15])[H:16])[H:14])[H:11])([H:8])([H:9])[H:10].[C:4]([H:12])[H:13]"
C        2.35662735       0.47022877       0.14958443
O        0.94671556       0.49502443       0.00466446
C        0.36088603      -0.72510358      -0.17913042
C        0.14004612      -0.22340012       2.19995327
C       -0.95964337      -0.81471933      -0.42219739
C       -1.85824922       0.33437619      -0.76296665
O       -2.31586039       0.27949642      -2.10437917
H        2.82233617       0.12171284      -0.77656070
H        2.65746662      -0.16890971       0.98363490
H        2.66247477       1.49297679       0.35837755
H        1.00615938      -1.59837531      -0.14393528
H       -0.88833449      -0.59952846       2.32706352
H        0.09420802       0.87068950       2.34182656
H       -1.35657617      -1.80841170      -0.59775786
H       -2.76045620       0.29634994      -0.14779125
H       -1.36431480       1.28921871      -0.55658744
H       -1.54348539       0.28837463      -2.67379853
17
Frame=5 idx=010789 GeodesicLength=0.5690106988683717 rxn_smarts="[C:1]([O:2][C@@:3]1([H:11])[C:4]([H:12])([H:13])[C@:5]1([C:6]([O:7][H:17])([H:15])[H:16])[H:14])([H:8])([H:9])[H:10]>>[C:1]([O:2]/[C:3](=[C:5](\[C:6]([O:7][H:17])([H:15])[H:16])[H:14])[H:11])([H:8])([H:9])[H:10].[C:4]([H:12])[H:13]"
C        2.35227529       0.47558413       0.14387735
O        0.94202045       0.49605169       0.00338525
C        0.35695924      -0.72864793      -0.16548271
C        0.13320487      -0.22836328       2.14482965
C       -0.97221430      -0.81158057      -0.38657382
C       -1.86079417       0.33706691      -0.75655612
O       -2.28115856       0.27960972      -2.10974214
H        2.81329267       0.12025614      -0.78201706
H        2.66083915      -0.15609575       0.98078530
H        2.65532636       1.50075533       0.34481327
H        0.99975776      -1.60407662      -0.14222547
H       -0.87672605      -0.62657699       2.32917906
H        0.09575089       0.86010634       2.32113823
H       -1.37242988      -1.80389656      -0.56381810
H       -2.77920061       0.30024682      -0.16569065
H       -1.37396561       1.29301852      -0.53884626
H       -1.49293752       0.29654209      -2.65705575
17
Frame=6 idx=010789 GeodesicLength=0.6829894136951984 rxn_smarts="[C:1]([O:2][C@@:3]1([H:11])[C:4]([H:12])([H:13])[C@:5]1([C:6]([O:7][H:17])([H:15])[H:16])[H:14])([H:8])([H:9])[H:10]>>[C:1]([O:2]/[C:3](=[C:5](\[C:6]([O:7][H:17])([H:15])[H:16])[H:14])[H:11])([H:8])([H:9])[H:10].[C:4]([H:12])[H:13]"
C        2.34762947       0.48045288       0.13901428
O        0.93719174       0.49681520       0.00159693
C        0.35309419      -0.73223403      -0.15339237
C        0.12602043      -0.23135263       2.09170764
C       -0.98424889      -0.80805325      -0.35331151
C       -1.86329029       0.33959906      -0.75072280
O       -2.24767962       0.27966458      -2.11419558
H        2.80490443       0.11806647      -0.78598667
H        2.66287464      -0.14360753       0.97914404
H        2.64779815       1.50797377       0.33222036
H        0.99268003      -1.61008338      -0.13976768
H       -0.86065333      -0.65422470       2.33054849
H        0.09712430       0.85068164       2.29999031
H       -1.38808405      -1.79902991      -0.53118895
H       -2.79651639       0.30331515      -0.18349472
H       -1.38386645       1.29675891      -0.52223001
H       -1.44497835       0.30525778      -2.63993177
17
Frame=7 idx=010789 GeodesicLength=0.7970351623687333 rxn_smarts="[C:1]([O:2][C@@:3]1([H:11])[C:4]([H:12])([H:13])[C@:5]1([C:6]([O:7][H:17])([H:15])[H:16])[H:14])([H:8])([H:9])[H:10]>>[C:1]([O:2]/[C:3](=[C:5](\[C:6]([O:7][H:17])([H:15])[H:16])[H:14])[H:11])([H:8])([H:9])[H:10].[C:4]([H:12])[H:13]"
C        2.34270183       0.48488611       0.13494160
O        0.93221899       0.49731946      -0.00062528
C        0.34924566      -0.73588893      -0.14267500
C        0.11848590      -0.23270451       2.04043473
C       -0.99583312      -0.80421993      -0.32216963
C       -1.86577439       0.34198718      -0.74543812
O       -2.21534021       0.27970238      -2.11788557
H        2.79709082       0.11523210      -0.78857765
H        2.66368081      -0.13139714       0.97862965
H        2.63991351       1.51468874       0.32052104
H        0.98501127      -1.61637697      -0.13657026
H       -0.84030195      -0.68214491       2.33108321
H        0.09846121       0.84223270       2.27850268
H       -1.40358315      -1.79388017      -0.49975978
H       -2.81259186       0.30565740      -0.20121885
H       -1.39399300       1.30042394      -0.50666149
H       -1.39939233       0.31448254      -2.62253130
17
Frame=8 idx=010789 GeodesicLength=0.9111756256149111 rxn_smarts="[C:1]([O:2][C@@:3]1([H:11])[C:4]([H:12])([H:13])[C@:5]1([C:6]([O:7][H:17])([H:15])[H:16])[H:14])([H:8])([H:9])[H:10]>>[C:1]([O:2]/[C:3](=[C:5](\[C:6]([O:7][H:17])([H:15])[H:16])[H:14])[H:11])([H:8])([H:9])[H:10].[C:4]([H:12])[H:13]"
C        2.33749074       0.48892485       0.13161435
O        0.92708997       0.49756083      -0.00321735
C        0.34536173      -0.73965146      -0.13314999
C        0.11064649      -0.23267813       1.99086615
C       -1.00705130      -0.80017552      -0.29295309
C       -1.86827614       0.34423635      -0.74068086
O       -2.18403834       0.27978289      -2.12092407
H        2.78976828       0.11178994      -0.78987954
H        2.66333807      -0.11939454       0.97917697
H        2.63168389       1.52094937       0.30964094
H        0.97679167      -1.62292287      -0.13260961
H       -0.81583066      -0.71010599       2.33070116
H        0.09990765       0.83464516       2.25674508
H       -1.41897553      -1.78852356      -0.46944586
H       -2.82760217       0.30732491      -0.21890540
H       -1.40433958       1.30400368      -0.49205810
H       -1.35596476       0.32423410      -2.60492079
17
Frame=9 idx=010789 GeodesicLength=1.024656836960343 rxn_smarts="[C:1]([O:2][C@@:3]1([H:11])[C:4]([H:12])([H:13])[C@:5]1([C:6]([O:7][H:17])([H:15])[H:16])[H:14])([H:8])([H:9])[H:10]>>[C:1]([O:2]/[C:3](=[C:5](\[C:6]([O:7][H:17])([H:15])[H:16])[H:14])[H:11])([H:8])([H:9])[H:10].[C:4]([H:12])[H:13]"
C        2.33212226       0.49256243       0.12898892
O        0.92194107       0.49753811      -0.00613740
C        0.34163321      -0.74349147      -0.12499225
C        0.10278262      -0.23168425       1.94313068
C       -1.01778656      -0.79583807      -0.26552456
C       -1.87071340       0.34632151      -0.73627674
O       -2.15386022       0.27976814      -2.12315459
H        2.78302372       0.10800249      -0.79001914
H        2.66204118      -0.10784951       0.98057512
H        2.62321839       1.52671375       0.29969841
H        0.96823980      -1.62978295      -0.12821437
H       -0.78826017      -0.73722434       2.32883810
H        0.10094408       0.82780643       2.23473924
H       -1.43413463      -1.78289778      -0.44007098
H       -2.84148677       0.30836475      -0.23646673
H       -1.41480841       1.30741070      -0.47814904
H       -1.31489617       0.33428006      -2.58696468
17
Frame=10 idx=010789 GeodesicLength=1.138272434190355 rxn_smarts="[C:1]([O:2][C@@:3]1([H:11])[C:4]([H:12])([H:13])[C@:5]1([C:6]([O:7][H:17])([H:15])[H:16])[H:14])([H:8])([H:9])[H:10]>>[C:1]([O:2]/[C:3](=[C:5](\[C:6]([O:7][H:17])([H:15])[H:16])[H:14])[H:11])([H:8])([H:9])[H:10].[C:4]([H:12])[H:13]"
C        2.32651292       0.49587786       0.12699583
O        0.91664241       0.49726599      -0.00933036
C        0.33780659      -0.74747211      -0.11772185
C        0.09468742      -0.22982571       1.89684021
C       -1.02827608      -0.79140556      -0.23963959
C       -1.87320948       0.34826821      -0.73231055
O       -2.12453978       0.27985138      -2.12488424
H        2.77666800       0.10373650      -0.78908361
H        2.65979644      -0.09645729       0.98287288
H        2.61447630       1.53209986       0.29043094
H        0.95929351      -1.63686821      -0.12312498
H       -0.75718867      -0.76377610       2.32587183
H        0.10222771       0.82153435       2.21260625
H       -1.44922529      -1.77716278      -0.41164689
H       -2.85456173       0.30881555      -0.25401541
H       -1.42549601       1.31069026      -0.46498863
H       -1.27561426       0.34482779      -2.56887181
17
Frame=11 idx=010789 GeodesicLength=1.2519984265198094 rxn_smarts="[C:1]([O:2][C@@:3]1([H:11])[C:4]([H:12])([H:13])[C@:5]1([C:6]([O:7][H:17])([H:15])[H:16])[H:14])([H:8])([H:9])[H:10]>>[C:1]([O:2]/[C:3](=[C:5](\[C:6]([O:7][H:17])([H:15])[H:16])[H:14])[H:11])([H:8])([H:9])[H:10].[C:4]([H:12])[H:13]"
C        2.32069595       0.49889139       0.12559827
O        0.91121834       0.49675667      -0.01276494
C        0.33389922      -0.75158061      -0.11125099
C        0.08634620      -0.22734405       1.85191218
C       -1.03852444      -0.78689271      -0.21517300
C       -1.87576353       0.35007056      -0.72871932
O       -2.09605699       0.28002933      -2.12613383
H        2.77069046       0.09907255      -0.78714475
H        2.65668655      -0.08524531       0.98599741
H        2.60549107       1.53712168       0.28181655
H        0.95005085      -1.64418438      -0.11742180
H       -0.72295708      -0.78933517       2.32161857
H        0.10375863       0.81564079       2.19040510
H       -1.46421427      -1.77133983      -0.38411420
H       -2.86688377       0.30871459      -0.27149544
H       -1.43638547       1.31381908      -0.45248738
H       -1.23805172       0.35580542      -2.55064243
17
Frame=12 idx=010789 GeodesicLength=1.3658391055012342 rxn_smarts="[C:1]([O:2][C@@:3]1([H:11])[C:4]([H:12])([H:13])[C@:5]1([C:6]([O:7][H:17])([H:15])[H:16])[H:14])([H:8])([H:9])[H:10]>>[C:1]([O:2]/[C:3](=[C:5](\[C:6]([O:7][H:17])([H:15])[H:16])[H:14])[H:11])([H:8])([H:9])[H:10].[C:4]([H:12])[H:13]"
C        2.31469170       0.50162200       0.12475716
O        0.90568547       0.49600886      -0.01641360
C        0.32991942      -0.75582824      -0.10549378
C        0.07780336      -0.22442972       1.80826307
C       -1.04855214      -0.78234136      -0.19200300
C       -1.87837793       0.35172068      -0.72544795
O       -2.06835582       0.28032232      -2.12691476
H        2.76507015       0.09405435      -0.78427465
H        2.65278052      -0.07420875       0.98988490
H        2.59628405       1.54179855       0.27381809
H        0.94057194      -1.65171869      -0.11115595
H       -0.68590672      -0.81358725       2.31593634
H        0.10555529       0.81001118       2.16815527
H       -1.47908856      -1.76546651      -0.35742667
H       -2.87850872       0.30807187      -0.28887363
H       -1.44746598       1.31677373      -0.44054527
H       -1.20210604       0.36719700      -2.53226557
17
Frame=13 idx=010789 GeodesicLength=1.4798293567891074 rxn_smarts="[C:1]([O:2][C@@:3]1([H:11])[C:4]([H:12])([H:13])[C@:5]1([C:6]([O:7][H:17])([H:15])[H:16])[H:14])([H:8])([H:9])[H:10]>>[C:1]([O:2]/[C:3](=[C:5](\[C:6]([O:7][H:17])([H:15])[H:16])[H:14])[H:11])([H:8])([H:9])[H:10].[C:4]([H:12])[H:13]"
C        2.30851680       0.50409907       0.12441436
O        0.90005571       0.49502184      -0.02024647
C        0.32587717      -0.76022806      -0.10034701
C        0.06914636      -0.22126531       1.76582519
C       -1.05837156      -0.77782247      -0.17001270
C       -1.88105637       0.35320681      -0.72244127
O       -2.04135137       0.28077293      -2.12725458
H        2.75975741       0.08872965      -0.78056200
H        2.64816126      -0.06331580       0.99444245
H        2.58687543       1.54616046       0.26637253
H        0.93091275      -1.65945078      -0.10435026
H       -0.64650622      -0.83621134       2.30870788
H        0.10769088       0.80446704       2.14586157
H       -1.49383243      -1.75960543      -0.33150942
H       -2.88952723       0.30689553      -0.30611578
H       -1.45872881       1.31952732      -0.42905641
H       -1.16761977       0.37901854      -2.51372808
17
Frame=14 idx=010789 GeodesicLength=1.5939896268752007 rxn_smarts="[C:1]([O:2][C@@:3]1([H:11])[C:4]([H:12])([H:13])[C@:5]1([C:6]([O:7][H:17])([H:15])[H:16])[H:14])([H:8])([H:9])[H:10]>>[C:1]([O:2]/[C:3](=[C:5](\[C:6]([O:7][H:17])([H:15])[H:16])[H:14])[H:11])([H:8])([H:9])[H:10].[C:4]([H:12])[H:13]"
C        2.30221848       0.50632772       0.12454939
O        0.89437666       0.49379646      -0.02427001
C        0.32181350      -0.76478331      -0.09579950
C        0.06043135      -0.21802413       1.72450451
C       -1.06796923      -0.77334129      -0.14909470
C       -1.88377655       0.35452851      -0.71962832
O       -2.01504510       0.28137698      -2.12711060
H        2.75479480       0.08313468      -0.77604463
H        2.64288487      -0.05259185       0.99963572
H        2.57731082       1.55021191       0.25947629
H        0.92115708      -1.66738743      -0.09713670
H       -0.60511008      -0.85696412       2.29983592
H        0.11000080       0.79897883       2.12347543
H       -1.50841548      -1.75375853      -0.30629300
H       -2.89993798       0.30520813      -0.32316465
H       -1.47013880       1.32206682      -0.41793238
H       -1.13459514       0.39122064      -2.49500277
17
Frame=15 idx=010789 GeodesicLength=1.708363990731032 rxn_smarts="[C:1]([O:2][C@@:3]1([H:11])[C:4]([H:12])([H:13])[C@:5]1([C:6]([O:7][H:17])([H:15])[H:16])[H:14])([H:8])([H:9])[H:10]>>[C:1]([O:2]/[C:3](=[C:5](\[C:6]([O:7][H:17])([H:15])[H:16])[H:14])[H:11])([H:8])([H:9])[H:10].[C:4]([H:12])[H:13]"
C        2.29582945       0.50832871       0.12511494
O        0.88868150       0.49233086      -0.02848427
C        0.31776329      -0.76950511      -0.09181301
C        0.05176120      -0.21486032       1.68423039
C       -1.07733468      -0.76894047      -0.12913249
C       -1.88652530       0.35568601      -0.71694684
O       -1.98938957       0.28215747      -2.12647299
H        2.75018189       0.07730902      -0.77078869
H        2.63702240      -0.04202261       1.00539248
H        2.56762237       1.55397446       0.25308616
H        0.91137290      -1.67551912      -0.08959179
H       -0.56218744      -0.87563868       2.28927073
H        0.11241306       0.79345161       2.10094800
H       -1.52281385      -1.74796094      -0.28168582
H       -2.90978825       0.30303852      -0.33997903
H       -1.48166223       1.32437680      -0.40708014
H       -1.10294673       0.40379379      -2.47606762
17
Frame=16 idx=010789 GeodesicLength=1.822961551228942 rxn_smarts="[C:1]([O:2][C@@:3]1([H:11])[C:4]([H:12])([H:13])[C@:5]1([C:6]([O:7][H:17])([H:15])[H:16])[H:14])([H:8])([H:9])[H:10]>>[C:1]([O:2]/[C:3](=[C:5](\[C:6]([O:7][H:17])([H:15])[H:16])[H:14])[H:11])([H:8])([H:9])[H:10].[C:4]([H:12])[H:13]"
C        2.28939065       0.51011783       0.12606596
O        0.88301251       0.49062420      -0.03289838
C        0.31377268      -0.77440312      -0.08837292
C        0.04325422      -0.21191560       1.64494341
C       -1.08643942      -0.76464903      -0.11002773
C       -1.88928140       0.35667799      -0.71433176
O       -1.96435867       0.28313489      -2.12531892
H        2.74593459       0.07128599      -0.76485533
H        2.63064464      -0.03160165       1.01164813
H        2.55784751       1.55746576       0.24716233
H        0.90162843      -1.68384582      -0.08180519
H       -0.51824384      -0.89206331       2.27699661
H        0.11482241       0.78783361       2.07821979
H       -1.53698979      -1.74223603      -0.25760357
H       -2.91910593       0.30040463      -0.35651675
H       -1.49326324       1.32644091      -0.39640497
H       -1.07262535       0.41672875      -2.45690070
