11
Frame=0 idx=002171 GeodesicLength=0.0 rxn_smarts="[O:1]([C:2]([C:3]([C:4]#[C:5][H:11])([H:9])[H:10])([H:7])[H:8])[H:6]>>[O:1]([C:2]([C:3](=[C:4]=[C:5]([H:9])[H:11])[H:10])([H:7])[H:8])[H:6]"
O       -1.95983898      -1.00208890       0.74719362
C       -0.92418243      -0.69186979      -0.15436253
C       -0.16457757       0.53754684       0.26507239
C        1.12232463       0.78364854      -0.15295964
C        2.20915435       0.59136527      -0.83791106
H       -1.57163637      -1.26413437       1.58428614
H       -0.20882297      -1.51738186      -0.27389169
H       -1.40046428      -0.53957259      -1.12593559
H        0.53828549       1.75234662      -0.47941535
H       -0.70896556       1.27622164       0.84491917
H        3.06872374       0.07391865      -0.41699546
11
Frame=1 idx=002171 GeodesicLength=0.09496880192206025 rxn_smarts="[O:1]([C:2]([C:3]([C:4]#[C:5][H:11])([H:9])[H:10])([H:7])[H:8])[H:6]>>[O:1]([C:2]([C:3](=[C:4]=[C:5]([H:9])[H:11])[H:10])([H:7])[H:8])[H:6]"
O       -1.93161535      -1.02216644       0.77041487
C       -0.93434500      -0.68459996      -0.16431807
C       -0.18624441       0.55669998       0.23990651
C        1.12860631       0.77265148      -0.09996898
C        2.20506624       0.58584940      -0.79784315
H       -1.50819213      -1.27687447       1.59269926
H       -0.21496416      -1.50033119      -0.31937699
H       -1.44656714      -0.52796626      -1.11656697
H        0.55672260       1.74793851      -0.51703655
H       -0.73467338       1.29627541       0.81478543
H        3.06620643       0.05252355      -0.40269537
11
Frame=2 idx=002171 GeodesicLength=0.1901003335412014 rxn_smarts="[O:1]([C:2]([C:3]([C:4]#[C:5][H:11])([H:9])[H:10])([H:7])[H:8])[H:6]>>[O:1]([C:2]([C:3](=[C:4]=[C:5]([H:9])[H:11])[H:10])([H:7])[H:8])[H:6]"
O       -1.90027971      -1.04079350       0.79481108
C       -0.94625038      -0.67683447      -0.17478453
C       -0.20602867       0.57456458       0.21251260
C        1.13063118       0.76054672      -0.05234667
C        2.20137615       0.57922740      -0.75574937
H       -1.43978812      -1.28898066       1.59909675
H       -0.22567700      -1.48283639      -0.36866149
H       -1.49758496      -0.51559240      -1.10399320
H        0.57615571       1.74076570      -0.55708356
H       -0.75637791       1.31399088       0.78586232
H        3.06382372       0.03594215      -0.37966393
11
Frame=3 idx=002171 GeodesicLength=0.28529648007807995 rxn_smarts="[O:1]([C:2]([C:3]([C:4]#[C:5][H:11])([H:9])[H:10])([H:7])[H:8])[H:6]>>[O:1]([C:2]([C:3](=[C:4]=[C:5]([H:9])[H:11])[H:10])([H:7])[H:8])[H:6]"
O       -1.86664560      -1.05795220       0.81891807
C       -0.95895332      -0.66876606      -0.18503449
C       -0.22381745       0.59127123       0.18443295
C        1.12930705       0.74809201      -0.00835285
C        2.19746418       0.57258985      -0.71262782
H       -1.36898928      -1.30057308       1.60259611
H       -0.23972574      -1.46490911      -0.41917442
H       -1.55037651      -0.50298938      -1.08826971
H        0.59617717       1.73109408      -0.59869599
H       -0.77532230       1.32997430       0.75792174
H        3.06088179       0.02216837      -0.35171360
11
Frame=4 idx=002171 GeodesicLength=0.3807820612599898 rxn_smarts="[O:1]([C:2]([C:3]([C:4]#[C:5][H:11])([H:9])[H:10])([H:7])[H:8])[H:6]>>[O:1]([C:2]([C:3](=[C:4]=[C:5]([H:9])[H:11])[H:10])([H:7])[H:8])[H:6]"
O       -1.83193621      -1.07318079       0.84268068
C       -0.97345252      -0.66033391      -0.19484938
C       -0.23941391       0.60614181       0.15634976
C        1.12551966       0.73324945       0.03180088
C        2.19282963       0.56324815      -0.67063564
H       -1.29715666      -1.31227242       1.60276140
H       -0.25913874      -1.44715240      -0.47096433
H       -1.60569959      -0.48904038      -1.06880649
H        0.61740346       1.71719703      -0.64234723
H       -0.79063806       1.34422801       0.73143866
H        3.06168294       0.01791545      -0.31742832
11
Frame=5 idx=002171 GeodesicLength=0.47628185770358694 rxn_smarts="[O:1]([C:2]([C:3]([C:4]#[C:5][H:11])([H:9])[H:10])([H:7])[H:8])[H:6]>>[O:1]([C:2]([C:3](=[C:4]=[C:5]([H:9])[H:11])[H:10])([H:7])[H:8])[H:6]"
O       -1.79579660      -1.08774298       0.86392222
C       -0.98688655      -0.65180737      -0.20378936
C       -0.25307559       0.62030800       0.12960567
C        1.11940818       0.71994617       0.07076232
C        2.18754105       0.55704398      -0.62758537
H       -1.22624369      -1.32250571       1.59978884
H       -0.27888252      -1.42867355      -0.52044035
H       -1.65789922      -0.47577905      -1.04721281
H        0.63793066       1.70123052      -0.68683681
H       -0.80488526       1.35725306       0.70611401
H        3.05878955       0.01072692      -0.28432834
11
Frame=6 idx=002171 GeodesicLength=0.5719938068561208 rxn_smarts="[O:1]([C:2]([C:3]([C:4]#[C:5][H:11])([H:9])[H:10])([H:7])[H:8])[H:6]>>[O:1]([C:2]([C:3](=[C:4]=[C:5]([H:9])[H:11])[H:10])([H:7])[H:8])[H:6]"
O       -1.75976431      -1.10095524       0.88311661
C       -1.00038598      -0.64323687      -0.21176654
C       -0.26468880       0.63320750       0.10434392
C        1.11184684       0.70615425       0.10794202
C        2.18162580       0.55164005      -0.58536230
H       -1.15743763      -1.33239714       1.59363220
H       -0.30083625      -1.41038850      -0.56790819
H       -1.70833244      -0.46230206      -1.02324644
H        0.65860746       1.68194417      -0.73233948
H       -0.81705866       1.36916540       0.68231487
H        3.05642398       0.00716845      -0.25072667
11
Frame=7 idx=002171 GeodesicLength=0.6679688371721896 rxn_smarts="[O:1]([C:2]([C:3]([C:4]#[C:5][H:11])([H:9])[H:10])([H:7])[H:8])[H:6]>>[O:1]([C:2]([C:3](=[C:4]=[C:5]([H:9])[H:11])[H:10])([H:7])[H:8])[H:6]"
O       -1.72457507      -1.11243829       0.90061729
C       -1.01446807      -0.63444999      -0.21866361
C       -0.27421446       0.64453013       0.08058529
C        1.10325827       0.69057468       0.14312784
C        2.17487898       0.54568468      -0.54490747
H       -1.09137696      -1.34302413       1.58413051
H       -0.32609491      -1.39245400      -0.61348490
H       -1.75747671      -0.44765628      -0.99662188
H        0.67980074       1.65815454      -0.77927466
H       -0.82653278       1.37997971       0.66001104
H        3.05680097       0.01109894      -0.21551946
11
Frame=8 idx=002171 GeodesicLength=0.7640534628179667 rxn_smarts="[O:1]([C:2]([C:3]([C:4]#[C:5][H:11])([H:9])[H:10])([H:7])[H:8])[H:6]>>[O:1]([C:2]([C:3](=[C:4]=[C:5]([H:9])[H:11])[H:10])([H:7])[H:8])[H:6]"
O       -1.68983232      -1.12332492       0.91547017
C       -1.02729319      -0.62575337      -0.22450595
C       -0.28201336       0.65522749       0.05877682
C        1.09365785       0.67614795       0.17818425
C        2.16786342       0.54396104      -0.50390483
H       -1.02855841      -1.35289432       1.57232423
H       -0.35085326      -1.37445067      -0.65559523
H       -1.80240293      -0.43357136      -0.96898308
H        0.70033380       1.63172954      -0.82673843
H       -0.83524160       1.39016072       0.63883988
H        3.05434000       0.01276790      -0.18386782
11
Frame=9 idx=002171 GeodesicLength=0.8603700196960845 rxn_smarts="[O:1]([C:2]([C:3]([C:4]#[C:5][H:11])([H:9])[H:10])([H:7])[H:8])[H:6]>>[O:1]([C:2]([C:3](=[C:4]=[C:5]([H:9])[H:11])[H:10])([H:7])[H:8])[H:6]"
O       -1.65660442      -1.13304728       0.92849474
C       -1.04036135      -0.61688610      -0.22930963
C       -0.28789065       0.66461375       0.03864871
C        1.08362920       0.66022924       0.21219051
C        2.16042327       0.54328728      -0.46413795
H       -0.96936329      -1.36353057       1.55790430
H       -0.37790167      -1.35682334      -0.69543052
H       -1.84531773      -0.41834860      -0.93953297
H        0.72110064       1.60046921      -0.87561493
H       -0.84160250       1.39956327       0.61914051
H        3.05388850       0.02047314      -0.15235276
11
Frame=10 idx=002171 GeodesicLength=0.956779580693235 rxn_smarts="[O:1]([C:2]([C:3]([C:4]#[C:5][H:11])([H:9])[H:10])([H:7])[H:8])[H:6]>>[O:1]([C:2]([C:3](=[C:4]=[C:5]([H:9])[H:11])[H:10])([H:7])[H:8])[H:6]"
O       -1.62485609      -1.14209773       0.93931658
C       -1.05263415      -0.60802862      -0.23314338
C       -0.29200911       0.67314394       0.02035816
C        1.07315757       0.64415122       0.24627870
C        2.15288057       0.54683965      -0.42406055
H       -0.91421100      -1.37411965       1.54169946
H       -0.40508339      -1.33945516      -0.73215274
H       -1.88462563      -0.40291807      -0.90941101
H        0.74158491       1.56521336      -0.92524623
H       -0.84659529       1.40836106       0.60063934
H        3.05239161       0.02891000      -0.12427832
11
Frame=11 idx=002171 GeodesicLength=1.0533688284085279 rxn_smarts="[O:1]([C:2]([C:3]([C:4]#[C:5][H:11])([H:9])[H:10])([H:7])[H:8])[H:6]>>[O:1]([C:2]([C:3](=[C:4]=[C:5]([H:9])[H:11])[H:10])([H:7])[H:8])[H:6]"
O       -1.59538023      -1.15014499       0.94849340
C       -1.06516482      -0.59895796      -0.23601717
C       -0.29412016       0.68030755       0.00368576
C        1.06272794       0.62582896       0.27987554
C        2.14519005       0.55280504      -0.38474496
H       -0.86342991      -1.38588840       1.52341734
H       -0.43444598      -1.32261144      -0.76662687
H       -1.92185941      -0.38592011      -0.87802031
H        0.76236178       1.52402607      -0.97632097
H       -0.84894720       1.41648000       0.58354415
H        3.05306794       0.04407530      -0.09728591
11
Frame=12 idx=002171 GeodesicLength=1.149994383468998 rxn_smarts="[O:1]([C:2]([C:3]([C:4]#[C:5][H:11])([H:9])[H:10])([H:7])[H:8])[H:6]>>[O:1]([C:2]([C:3](=[C:4]=[C:5]([H:9])[H:11])[H:10])([H:7])[H:8])[H:6]"
O       -1.56839957      -1.15755175       0.95578946
C       -1.07736715      -0.58977466      -0.23804433
C       -0.29417709       0.68623298      -0.01125114
C        1.05239685       0.60559787       0.31376003
C        2.13760081       0.56397057      -0.34480152
H       -0.81755558      -1.39818390       1.50381076
H       -0.46474200      -1.30627054      -0.79845531
H       -1.95610426      -0.36778969      -0.84622390
H        0.78327167       1.47680920      -1.02841214
H       -0.84898857       1.42388563       0.56778655
H        3.05406490       0.06307428      -0.07395847
11
Frame=13 idx=002171 GeodesicLength=1.2467455205149633 rxn_smarts="[O:1]([C:2]([C:3]([C:4]#[C:5][H:11])([H:9])[H:10])([H:7])[H:8])[H:6]>>[O:1]([C:2]([C:3](=[C:4]=[C:5]([H:9])[H:11])[H:10])([H:7])[H:8])[H:6]"
O       -1.54498972      -1.16393662       0.96174556
C       -1.09050672      -0.58019944      -0.23916627
C       -0.29159520       0.69005781      -0.02469537
C        1.04289637       0.58040264       0.34695892
C        2.12997745       0.57847607      -0.30567636
H       -0.77734412      -1.41252965       1.48235908
H       -0.49870059      -1.29072028      -0.82854832
H       -1.98897865      -0.34666551      -0.81312073
H        0.80497913       1.42093134      -1.08227162
H       -0.84474642       1.43033031       0.55368462
H        3.05900847       0.09385333      -0.05126951
11
Frame=14 idx=002171 GeodesicLength=1.3435787562778163 rxn_smarts="[O:1]([C:2]([C:3]([C:4]#[C:5][H:11])([H:9])[H:10])([H:7])[H:8])[H:6]>>[O:1]([C:2]([C:3](=[C:4]=[C:5]([H:9])[H:11])[H:10])([H:7])[H:8])[H:6]"
O       -1.52598836      -1.16937305       0.96630455
C       -1.10480561      -0.57010823      -0.23943583
C       -0.28579924       0.69124627      -0.03660033
C        1.03484713       0.54842277       0.37920545
C        2.12231310       0.59786795      -0.26705360
H       -0.74385573      -1.42915813       1.45928790
H       -0.53701521      -1.27605988      -0.85703050
H       -2.02048420      -0.32168511      -0.77883119
H        0.82773982       1.35436723      -1.13813342
H       -0.83495397       1.43541954       0.54173483
H        3.06800228       0.13906063      -0.02944787
11
Frame=15 idx=002171 GeodesicLength=1.440446126438434 rxn_smarts="[O:1]([C:2]([C:3]([C:4]#[C:5][H:11])([H:9])[H:10])([H:7])[H:8])[H:6]>>[O:1]([C:2]([C:3](=[C:4]=[C:5]([H:9])[H:11])[H:10])([H:7])[H:8])[H:6]"
O       -1.51224263      -1.17374652       0.96946951
C       -1.12035046      -0.55934308      -0.23888984
C       -0.27598042       0.68909231      -0.04699006
C        1.02904514       0.50740522       0.41001389
C        2.11410674       0.62431906      -0.22822784
H       -0.71825582      -1.44844983       1.43477896
H       -0.58036635      -1.26234553      -0.88396414
H       -2.05034603      -0.29181131      -0.74347637
H        0.85227320       1.27469078      -1.19595730
H       -0.81803442       1.43857784       0.53239317
H        3.08015105       0.20161106      -0.00914997
11
Frame=16 idx=002171 GeodesicLength=1.5371315491278426 rxn_smarts="[O:1]([C:2]([C:3]([C:4]#[C:5][H:11])([H:9])[H:10])([H:7])[H:8])[H:6]>>[O:1]([C:2]([C:3](=[C:4]=[C:5]([H:9])[H:11])[H:10])([H:7])[H:8])[H:6]"
O       -1.50366934      -1.17702035       0.97134132
C       -1.13706285      -0.54751993      -0.23756273
C       -0.26141081       0.68314560      -0.05611942
C        1.02634204       0.45586900       0.43833406
C        2.10343508       0.65730556      -0.18987932
H       -0.70053834      -1.47077744       1.40861833
H       -0.62928970      -1.24897778      -0.90971890
H       -2.07830021      -0.25594105      -0.70668716
H        0.87983490       1.17981275      -1.25523995
H       -0.79257077       1.43920525       0.52609158
H        3.09323001       0.28489837       0.01082219
