14
Frame=0 idx=005739 GeodesicLength=0.0 rxn_smarts="[C:1]([O:2][C@@:3]([C:4]([H:11])([H:12])[H:13])([C:5](=[O:6])[H:14])[H:10])([H:7])([H:8])[H:9]>>[C:1]([O+:2]=[C:3]=[C:5]([O-:6])[H:14])([H:7])([H:8])[H:9].[C:4]([H:10])([H:11])([H:12])[H:13]"
C        2.01842867      -0.29126135      -0.53783352
O        1.05668980      -0.13650172       0.50158591
C        0.01485076       0.62433929       0.18979417
C       -1.49258652      -0.80008036      -0.40566418
C       -0.69735577       1.28586621       1.25291491
O       -1.89212731       1.46485514       1.37142630
H        2.89575346      -0.75422518      -0.09033046
H        1.62220984      -0.94371511      -1.32107375
H        2.27102536       0.68040954      -0.96375519
H       -0.76221528       0.16753954      -0.72527476
H       -1.93631188      -0.87955026      -1.39917691
H       -0.89673236      -1.67029973      -0.15265977
H       -2.22707180      -0.52384717       0.34095630
H        0.02544301       1.77647111       1.93909096
14
Frame=1 idx=005739 GeodesicLength=0.08156438806053758 rxn_smarts="[C:1]([O:2][C@@:3]([C:4]([H:11])([H:12])[H:13])([C:5](=[O:6])[H:14])[H:10])([H:7])([H:8])[H:9]>>[C:1]([O+:2]=[C:3]=[C:5]([O-:6])[H:14])([H:7])([H:8])[H:9].[C:4]([H:10])([H:11])([H:12])[H:13]"
C        2.01838914      -0.28100161      -0.54481541
O        1.05816438      -0.14835474       0.49914816
C        0.01142248       0.61028300       0.19750892
C       -1.49900690      -0.80171576      -0.40795123
C       -0.68175901       1.28066824       1.27087548
O       -1.87140684       1.49004951       1.38381014
H        2.90322910      -0.73657652      -0.10450683
H        1.62723435      -0.93181753      -1.33196333
H        2.25797210       0.69778423      -0.96242404
H       -0.76890809       0.17433977      -0.74472707
H       -1.88308542      -0.94178419      -1.41941114
H       -0.94110668      -1.67082469      -0.07529551
H       -2.27954476      -0.49553591       0.27839709
H        0.04840616       1.75448619       1.96135476
14
Frame=2 idx=005739 GeodesicLength=0.16277824940489594 rxn_smarts="[C:1]([O:2][C@@:3]([C:4]([H:11])([H:12])[H:13])([C:5](=[O:6])[H:14])[H:10])([H:7])([H:8])[H:9]>>[C:1]([O+:2]=[C:3]=[C:5]([O-:6])[H:14])([H:7])([H:8])[H:9].[C:4]([H:10])([H:11])([H:12])[H:13]"
C        2.01831502      -0.27065760      -0.55131131
O        1.05862021      -0.16092583       0.49595440
C        0.00760780       0.59616113       0.20400633
C       -1.50581452      -0.80372655      -0.41026756
C       -0.66587995       1.27640931       1.28706654
O       -1.85016266       1.51168375       1.39801750
H        2.90982625      -0.71956302      -0.11755327
H        1.63292972      -0.91862274      -1.34367385
H        2.24580995       0.71540345      -0.95909050
H       -0.77584974       0.18053861      -0.76494170
H       -1.82962224      -1.00481239      -1.43244809
H       -0.98999848      -1.66625659      -0.00004258
H       -2.32731700      -0.46865541       0.21257317
H        0.07153566       1.73302389       1.98171092
14
Frame=3 idx=005739 GeodesicLength=0.24367838793520583 rxn_smarts="[C:1]([O:2][C@@:3]([C:4]([H:11])([H:12])[H:13])([C:5](=[O:6])[H:14])[H:10])([H:7])([H:8])[H:9]>>[C:1]([O+:2]=[C:3]=[C:5]([O-:6])[H:14])([H:7])([H:8])[H:9].[C:4]([H:10])([H:11])([H:12])[H:13]"
C        2.01835745      -0.26011876      -0.55718629
O        1.05805186      -0.17438272       0.49192439
C        0.00339180       0.58178979       0.20924154
C       -1.51323627      -0.80625259      -0.41239571
C       -0.64948255       1.27322307       1.30129821
O       -1.82843320       1.53030828       1.41347753
H        2.91564085      -0.70319657      -0.12930170
H        1.63962971      -0.90376105      -1.35629575
H        2.23468940       0.73345863      -0.95326457
H       -0.78308172       0.18574694      -0.78597271
H       -1.77734947      -1.06791353      -1.43809113
H       -1.04279201      -1.65684513       0.07205206
H       -2.37045930      -0.44405678       0.14444196
H        0.09507344       1.71200042       2.00007217
14
Frame=4 idx=005739 GeodesicLength=0.32430749558425576 rxn_smarts="[C:1]([O:2][C@@:3]([C:4]([H:11])([H:12])[H:13])([C:5](=[O:6])[H:14])[H:10])([H:7])([H:8])[H:9]>>[C:1]([O+:2]=[C:3]=[C:5]([O-:6])[H:14])([H:7])([H:8])[H:9].[C:4]([H:10])([H:11])([H:12])[H:13]"
C        2.01862217      -0.24929891      -0.56236303
O        1.05654310      -0.18875500       0.48702462
C       -0.00121395       0.56708330       0.21327468
C       -1.52139407      -0.80929631      -0.41421012
C       -0.63238012       1.27110428       1.31355676
O       -1.80613180       1.54673152       1.42950307
H        2.92082522      -0.68739332      -0.13967661
H        1.64751745      -0.88702994      -1.36976634
H        2.22461463       0.75202039      -0.94477486
H       -0.79058569       0.18975796      -0.80784416
H       -1.72742911      -1.13055279      -1.43633749
H       -1.09883241      -1.64284085       0.14013623
H       -2.40924835      -0.42262598       0.07485736
H        0.11909294       1.69109563       2.01661989
14
Frame=5 idx=005739 GeodesicLength=0.4048277405126323 rxn_smarts="[C:1]([O:2][C@@:3]([C:4]([H:11])([H:12])[H:13])([C:5](=[O:6])[H:14])[H:10])([H:7])([H:8])[H:9]>>[C:1]([O+:2]=[C:3]=[C:5]([O-:6])[H:14])([H:7])([H:8])[H:9].[C:4]([H:10])([H:11])([H:12])[H:13]"
C        2.01896719      -0.23823991      -0.56694570
O        1.05416842      -0.20399768       0.48131809
C       -0.00623237       0.55208186       0.21631051
C       -1.53025897      -0.81267422      -0.41593004
C       -0.61468000       1.26992440       1.32405761
O       -1.78315170       1.56206087       1.44551965
H        2.92534284      -0.67224281      -0.14890736
H        1.65623821      -0.86839804      -1.38404458
H        2.21540604       0.77099490      -0.93389497
H       -0.79841385       0.19282135      -0.83050423
H       -1.67894094      -1.19251650      -1.42782851
H       -1.15775981      -1.62435070       0.20406610
H       -2.44423082      -0.40529565       0.00498871
H        0.14354575       1.66983211       2.03179473
14
Frame=6 idx=005739 GeodesicLength=0.4851077099328589 rxn_smarts="[C:1]([O:2][C@@:3]([C:4]([H:11])([H:12])[H:13])([C:5](=[O:6])[H:14])[H:10])([H:7])([H:8])[H:9]>>[C:1]([O+:2]=[C:3]=[C:5]([O-:6])[H:14])([H:7])([H:8])[H:9].[C:4]([H:10])([H:11])([H:12])[H:13]"
C        2.01942943      -0.22679707      -0.57090624
O        1.05110821      -0.22003570       0.47477002
C       -0.01162053       0.53665855       0.21852411
C       -1.53988999      -0.81648589      -0.41729802
C       -0.59607371       1.26939105       1.33300653
O       -1.75923123       1.57682835       1.46112145
H        2.92935781      -0.65734951      -0.15702645
H        1.66591529      -0.84786971      -1.39890653
H        2.20674273       0.79047772      -0.92064332
H       -0.80643451       0.19458380      -0.85386252
H       -1.63308878      -1.25350168      -1.41260368
H       -1.21891614      -1.60169520       0.26366251
H       -2.47580337      -0.39208579      -0.06567855
H        0.16850479       1.64788108       2.04584069
14
Frame=7 idx=005739 GeodesicLength=0.5651747740978977 rxn_smarts="[C:1]([O:2][C@@:3]([C:4]([H:11])([H:12])[H:13])([C:5](=[O:6])[H:14])[H:10])([H:7])([H:8])[H:9]>>[C:1]([O+:2]=[C:3]=[C:5]([O-:6])[H:14])([H:7])([H:8])[H:9].[C:4]([H:10])([H:11])([H:12])[H:13]"
C        2.01994731      -0.21497064      -0.57428028
O        1.04749546      -0.23674515       0.46744662
C       -0.01739251       0.52081690       0.22015433
C       -1.55024015      -0.82067778      -0.41832353
C       -0.57658602       1.26920625       1.34074497
O       -1.73416581       1.59155894       1.47616484
H        2.93297034      -0.64255571      -0.16417086
H        1.67638371      -0.82554550      -1.41414061
H        2.19836541       0.81034969      -0.90525465
H       -0.81459578       0.19508623      -0.87784756
H       -1.59000467      -1.31330255      -1.39099054
H       -1.28173192      -1.57516120       0.31874311
H       -2.50441621      -0.38320266      -0.13714697
H        0.19397086       1.62514319       2.05890114
14
Frame=8 idx=005739 GeodesicLength=0.6450005897384005 rxn_smarts="[C:1]([O:2][C@@:3]([C:4]([H:11])([H:12])[H:13])([C:5](=[O:6])[H:14])[H:10])([H:7])([H:8])[H:9]>>[C:1]([O+:2]=[C:3]=[C:5]([O-:6])[H:14])([H:7])([H:8])[H:9].[C:4]([H:10])([H:11])([H:12])[H:13]"
C        2.02044606      -0.20276634      -0.57711699
O        1.04344329      -0.25395596       0.45939158
C       -0.02354493       0.50461540       0.22142292
C       -1.56125302      -0.82513368      -0.41901773
C       -0.55617403       1.26903968       1.34767869
O       -1.70779011       1.60671672       1.49046512
H        2.93622985      -0.62771125      -0.17048477
H        1.68746161      -0.80158100      -1.42952324
H        2.19001580       0.83046514      -0.88802483
H       -0.82283323       0.19441988      -0.90237015
H       -1.54983910      -1.37168097      -1.36314190
H       -1.34575666      -1.54498774       0.36909902
H       -2.53029712      -0.37898278      -0.20957987
H        0.21989157       1.60154291       2.07120215
14
Frame=9 idx=005739 GeodesicLength=0.7248793866873678 rxn_smarts="[C:1]([O:2][C@@:3]([C:4]([H:11])([H:12])[H:13])([C:5](=[O:6])[H:14])[H:10])([H:7])([H:8])[H:9]>>[C:1]([O+:2]=[C:3]=[C:5]([O-:6])[H:14])([H:7])([H:8])[H:9].[C:4]([H:10])([H:11])([H:12])[H:13]"
C        2.02056676      -0.19042201      -0.57962149
O        1.03900222      -0.27150616       0.45078496
C       -0.03005595       0.48825676       0.22259451
C       -1.57267259      -0.82967228      -0.42000537
C       -0.53510840       1.26879194       1.35423041
O       -1.68010913       1.62271814       1.50417232
H        2.93890688      -0.61303065      -0.17631030
H        1.69833567      -0.77643112      -1.44491841
H        2.18134387       0.85046615      -0.86968445
H       -0.83119408       0.19327485      -0.92735734
H       -1.51025543      -1.42834355      -1.32980152
H       -1.41128309      -1.51069732       0.41508828
H       -2.55361380      -0.38039157      -0.28233684
H        0.24613707       1.57698682       2.08316524
14
Frame=10 idx=005739 GeodesicLength=0.804556762524985 rxn_smarts="[C:1]([O:2][C@@:3]([C:4]([H:11])([H:12])[H:13])([C:5](=[O:6])[H:14])[H:10])([H:7])([H:8])[H:9]>>[C:1]([O+:2]=[C:3]=[C:5]([O-:6])[H:14])([H:7])([H:8])[H:9].[C:4]([H:10])([H:11])([H:12])[H:13]"
C        2.02043567      -0.17777246      -0.58174629
O        1.03435484      -0.28921331       0.44158644
C       -0.03688028       0.47171200       0.22379021
C       -1.58450663      -0.83431956      -0.42087193
C       -0.51312765       1.26811557       1.36062226
O       -1.65089615       1.63971076       1.51711589
H        2.94121184      -0.59810566      -0.18161778
H        1.70927071      -0.75009564      -1.46008655
H        2.17217229       0.87042819      -0.85022105
H       -0.83949398       0.19129595      -0.95275007
H       -1.47334884      -1.48314601      -1.29064685
H       -1.47753108      -1.47281833       0.45626436
H       -2.57435046      -0.38717463      -0.35636345
H        0.27268970       1.55138313       2.09492481
14
Frame=11 idx=005739 GeodesicLength=0.8840213807312508 rxn_smarts="[C:1]([O:2][C@@:3]([C:4]([H:11])([H:12])[H:13])([C:5](=[O:6])[H:14])[H:10])([H:7])([H:8])[H:9]>>[C:1]([O+:2]=[C:3]=[C:5]([O-:6])[H:14])([H:7])([H:8])[H:9].[C:4]([H:10])([H:11])([H:12])[H:13]"
C        2.01996666      -0.16485471      -0.58354498
O        1.02953027      -0.30696443       0.43184642
C       -0.04402476       0.45503212       0.22515580
C       -1.59666949      -0.83899085      -0.42175564
C       -0.49031913       1.26677459       1.36713544
O       -1.62004203       1.65772201       1.52944738
H        2.94313297      -0.58287791      -0.18651031
H        1.72005821      -0.72272223      -1.47489496
H        2.16236546       0.89022695      -0.82988039
H       -0.84767648       0.18866322      -0.97851505
H       -1.43908239      -1.53587189      -1.24589410
H       -1.54433953      -1.43141927       0.49259085
H       -2.59245386      -0.39956934      -0.43170527
H        0.29955410       1.52485175       2.10652481
14
Frame=12 idx=005739 GeodesicLength=0.9632037779764828 rxn_smarts="[C:1]([O:2][C@@:3]([C:4]([H:11])([H:12])[H:13])([C:5](=[O:6])[H:14])[H:10])([H:7])([H:8])[H:9]>>[C:1]([O+:2]=[C:3]=[C:5]([O-:6])[H:14])([H:7])([H:8])[H:9].[C:4]([H:10])([H:11])([H:12])[H:13]"
C        2.01908281      -0.15171942      -0.58505032
O        1.02456027      -0.32459500       0.42160775
C       -0.05148160       0.43828956       0.22681322
C       -1.60906425      -0.84358222      -0.42280629
C       -0.46677160       1.26451650       1.37405571
O       -1.58745799       1.67665977       1.54135865
H        2.94464823      -0.56728274      -0.19105567
H        1.73052046      -0.69452604      -1.48915836
H        2.15179656       0.90969264      -0.80894114
H       -0.85567414       0.18559124      -1.00460464
H       -1.40753820      -1.58614420      -1.19565082
H       -1.61159849      -1.38651973       0.52375854
H       -2.60775324      -0.41798010      -0.50825732
H        0.32673118       1.49759974       2.11793069
14
Frame=13 idx=005739 GeodesicLength=1.0424510475240971 rxn_smarts="[C:1]([O:2][C@@:3]([C:4]([H:11])([H:12])[H:13])([C:5](=[O:6])[H:14])[H:10])([H:7])([H:8])[H:9]>>[C:1]([O+:2]=[C:3]=[C:5]([O-:6])[H:14])([H:7])([H:8])[H:9].[C:4]([H:10])([H:11])([H:12])[H:13]"
C        2.01760614      -0.13840260      -0.58648569
O        1.01952118      -0.34201738       0.41096376
C       -0.05910710       0.42166458       0.22882783
C       -1.62146950      -0.84814797      -0.42441424
C       -0.44258148       1.26148447       1.38140607
O       -1.55298190       1.69725514       1.55236672
H        2.94561303      -0.55141791      -0.19551832
H        1.74012569      -0.66568818      -1.50309609
H        2.14041264       0.92886500      -0.78783851
H       -0.86356536       0.18242039      -1.03110020
H       -1.37745824      -1.63390372      -1.14006708
H       -1.67986063      -1.33716577       0.54997322
H       -2.61997057      -0.44332887      -0.58525619
H        0.35371610       1.46838282       2.13023871
14
Frame=14 idx=005739 GeodesicLength=1.1214306586574723 rxn_smarts="[C:1]([O:2][C@@:3]([C:4]([H:11])([H:12])[H:13])([C:5](=[O:6])[H:14])[H:10])([H:7])([H:8])[H:9]>>[C:1]([O+:2]=[C:3]=[C:5]([O-:6])[H:14])([H:7])([H:8])[H:9].[C:4]([H:10])([H:11])([H:12])[H:13]"
C        2.01560584      -0.12486020      -0.58770502
O        1.01441331      -0.35917373       0.39992869
C       -0.06698356       0.40505136       0.23134938
C       -1.63396084      -0.85256551      -0.42641049
C       -0.41780189       1.25707248       1.38961881
O       -1.51656143       1.71860413       1.56326123
H        2.94613803      -0.53503070      -0.19972869
H        1.74913976      -0.63628838      -1.51637527
H        2.12807104       0.94768510      -0.76650694
H       -0.87117803       0.17906576      -1.05788776
H       -1.35070339      -1.67875564      -1.07903143
H       -1.74854951      -1.28397941       0.57029923
H       -2.62876148      -0.47547216      -0.66324605
H        0.38113216       1.43864689       2.14243432
14
Frame=15 idx=005739 GeodesicLength=1.2001374798986049 rxn_smarts="[C:1]([O:2][C@@:3]([C:4]([H:11])([H:12])[H:13])([C:5](=[O:6])[H:14])[H:10])([H:7])([H:8])[H:9]>>[C:1]([O+:2]=[C:3]=[C:5]([O-:6])[H:14])([H:7])([H:8])[H:9].[C:4]([H:10])([H:11])([H:12])[H:13]"
C        2.01304767      -0.11097293      -0.58881928
O        1.00917427      -0.37606901       0.38830959
C       -0.07515569       0.38844269       0.23430936
C       -1.64651897      -0.85682574      -0.42893036
C       -0.39249374       1.25112223       1.39869355
O       -1.47794199       1.74077558       1.57393859
H        2.94614571      -0.51811277      -0.20387437
H        1.75754897      -0.60599596      -1.52917417
H        2.11477686       0.96627130      -0.74484588
H       -0.87846175       0.17548051      -1.08508418
H       -1.32745121      -1.72091346      -1.01219101
H       -1.81797790      -1.22637557       0.58485698
H       -2.63342590      -0.51458662      -0.74200078
H        0.40873366       1.40775974       2.15481197
14
Frame=16 idx=005739 GeodesicLength=1.2786819896299795 rxn_smarts="[C:1]([O:2][C@@:3]([C:4]([H:11])([H:12])[H:13])([C:5](=[O:6])[H:14])[H:10])([H:7])([H:8])[H:9]>>[C:1]([O+:2]=[C:3]=[C:5]([O-:6])[H:14])([H:7])([H:8])[H:9].[C:4]([H:10])([H:11])([H:12])[H:13]"
C        2.00988398      -0.09672158      -0.58986595
O        1.00381620      -0.39276437       0.37613150
C       -0.08360293       0.37179762       0.23779689
C       -1.65906468      -0.86100793      -0.43223000
C       -0.36686426       1.24325177       1.40891794
O       -1.43707518       1.76352162       1.58459185
H        2.94561439      -0.50062669      -0.20798655
H        1.76525127      -0.57481945      -1.54157952
H        2.10047049       0.98468213      -0.72290422
H       -0.88539882       0.17176183      -1.11275316
H       -1.30793559      -1.76010364      -0.93928031
H       -1.88836816      -1.16383821       0.59271578
H       -2.63345622      -0.56109545      -0.82078899
H        0.43672950       1.37596234       2.16723473
