19
Frame=0 idx=010402 GeodesicLength=0.0 rxn_smarts="[C:1]([C:2]1([H:11])[C:3]([H:12])([H:13])[C:4]2([C:5]([H:14])([H:15])[C:6]2([H:16])[H:17])[C:7]1([H:18])[H:19])([H:8])([H:9])[H:10]>>[C:1]([C:2](=[C:3]([H:12])[H:13])[H:11])([H:8])([H:9])[H:10].[C:4]1(=[C:7]([H:18])[H:19])[C:5]([H:14])([H:15])[C:6]1([H:16])[H:17]"
C       -2.63189056      -0.10831883      -0.12460439
C       -1.32582109      -0.66797244      -0.52613530
C       -0.26950090       0.19130424      -0.95272980
C        0.86011855       0.23859584       0.23564903
C        1.86633013      -0.87886843       0.03175729
C        2.28609556       0.56266646      -0.08635157
C        0.24069517       0.60265924       1.44963577
H       -3.19471375       0.28946123      -0.97911905
H       -2.47051372       0.76460986       0.53381239
H       -3.26494279      -0.83109896       0.38950427
H       -1.17284266      -1.74068324      -0.52714216
H        0.29676430      -0.17025275      -1.81300966
H       -0.59515718       1.21504753      -1.13617904
H        1.80839428      -1.47292811      -0.87449460
H        2.16920990      -1.42498069       0.91525475
H        2.50806201       0.93379580      -1.07932231
H        2.90381786       0.99016668       0.69364704
H       -0.80164765       0.38657404       1.62113795
H        0.78754257       1.12022247       2.22868944
19
Frame=1 idx=010402 GeodesicLength=0.12999951270628246 rxn_smarts="[C:1]([C:2]1([H:11])[C:3]([H:12])([H:13])[C:4]2([C:5]([H:14])([H:15])[C:6]2([H:16])[H:17])[C:7]1([H:18])[H:19])([H:8])([H:9])[H:10]>>[C:1]([C:2](=[C:3]([H:12])[H:13])[H:11])([H:8])([H:9])[H:10].[C:4]1(=[C:7]([H:18])[H:19])[C:5]([H:14])([H:15])[C:6]1([H:16])[H:17]"
C       -2.64680156      -0.11440414      -0.12371427
C       -1.32372157      -0.65530018      -0.49845632
C       -0.28647720       0.20386883      -0.96908193
C        0.87796961       0.23693774       0.23579887
C        1.87933742      -0.88077643       0.02260156
C        2.30675480       0.56071559      -0.07088719
C        0.24533796       0.58426356       1.44764308
H       -3.22819950       0.20647080      -0.99731374
H       -2.51047075       0.79978961       0.48100021
H       -3.24615134      -0.82587835       0.44428997
H       -1.16270493      -1.72711761      -0.50432184
H        0.26416902      -0.16121753      -1.83770490
H       -0.61805383       1.22543497      -1.15383164
H        1.83289494      -1.46060544      -0.89333193
H        2.17289406      -1.44444139       0.89837722
H        2.54038298       0.94550594      -1.05594520
H        2.92549110       0.96800029       0.71924371
H       -0.81838788       0.49512587       1.59472429
H        0.79573669       1.04362787       2.26091006
19
Frame=2 idx=010402 GeodesicLength=0.25919288966143084 rxn_smarts="[C:1]([C:2]1([H:11])[C:3]([H:12])([H:13])[C:4]2([C:5]([H:14])([H:15])[C:6]2([H:16])[H:17])[C:7]1([H:18])[H:19])([H:8])([H:9])[H:10]>>[C:1]([C:2](=[C:3]([H:12])[H:13])[H:11])([H:8])([H:9])[H:10].[C:4]1(=[C:7]([H:18])[H:19])[C:5]([H:14])([H:15])[C:6]1([H:16])[H:17]"
C       -2.65971438      -0.11978858      -0.11897049
C       -1.32205590      -0.64169536      -0.47312616
C       -0.30394973       0.21482173      -0.98819829
C        0.89523731       0.23472247       0.23507994
C        1.89305849      -0.88219943       0.01360727
C        2.32701717       0.55931505      -0.05277638
C        0.24510848       0.56343948       1.44308359
H       -3.25943692       0.12336596      -1.00464253
H       -2.54829970       0.83183333       0.42913960
H       -3.22475238      -0.81465085       0.50280807
H       -1.15478321      -1.71292238      -0.48559335
H        0.23121672      -0.15549521      -1.86397867
H       -0.64131530       1.23391464      -1.17636053
H        1.86061733      -1.44687675      -0.91220265
H        2.17562029      -1.46385678       0.88141422
H        2.57372109       0.95887280      -1.02874740
H        2.94390265       0.94621227       0.74911469
H       -0.82478022       0.60777487       1.56101790
H        0.79358821       0.96321273       2.28933115
19
Frame=3 idx=010402 GeodesicLength=0.3882941245944692 rxn_smarts="[C:1]([C:2]1([H:11])[C:3]([H:12])([H:13])[C:4]2([C:5]([H:14])([H:15])[C:6]2([H:16])[H:17])[C:7]1([H:18])[H:19])([H:8])([H:9])[H:10]>>[C:1]([C:2](=[C:3]([H:12])[H:13])[H:11])([H:8])([H:9])[H:10].[C:4]1(=[C:7]([H:18])[H:19])[C:5]([H:14])([H:15])[C:6]1([H:16])[H:17]"
C       -2.67028150      -0.12401165      -0.11018448
C       -1.32080789      -0.62715051      -0.45143040
C       -0.32200275       0.22443378      -1.01065970
C        0.91185071       0.23238495       0.23326853
C        1.90703947      -0.88299618       0.00529086
C        2.34688038       0.55818116      -0.03189668
C        0.23992027       0.54216549       1.43490462
H       -3.28905309       0.04186084      -1.00011131
H       -2.58318068       0.86037325       0.37965868
H       -3.20002021      -0.79799130       0.56387237
H       -1.14873945      -1.69791677      -0.47113048
H        0.19798897      -0.15263127      -1.89231799
H       -0.66532416       1.24051443      -1.20418260
H        1.89089054      -1.43181413      -0.93026730
H        2.17650959      -1.48269444       0.86511475
H        2.60836009       0.97310016      -0.99752374
H        2.95906472       0.92453937       0.78331469
H       -0.81960182       0.71703765       1.52187113
H        0.78050681       0.88261519       2.31240904
19
Frame=4 idx=010402 GeodesicLength=0.5183716324933363 rxn_smarts="[C:1]([C:2]1([H:11])[C:3]([H:12])([H:13])[C:4]2([C:5]([H:14])([H:15])[C:6]2([H:16])[H:17])[C:7]1([H:18])[H:19])([H:8])([H:9])[H:10]>>[C:1]([C:2](=[C:3]([H:12])[H:13])[H:11])([H:8])([H:9])[H:10].[C:4]1(=[C:7]([H:18])[H:19])[C:5]([H:14])([H:15])[C:6]1([H:16])[H:17]"
C       -2.67885366      -0.12700900      -0.09793257
C       -1.31977119      -0.61175158      -0.43365884
C       -0.34072601       0.23339190      -1.03642333
C        0.92803458       0.23032702       0.23041769
C        1.92119441      -0.88342018      -0.00213200
C        2.36666376       0.55691959      -0.00862788
C        0.23059902       0.52233353       1.42296916
H       -3.31730099      -0.03730702      -0.98456862
H       -2.61592328       0.88537493       0.33298234
H       -3.17195541      -0.77671544       0.62642104
H       -1.14364709      -1.68223382      -0.46030128
H        0.16448522      -0.15146923      -1.92303688
H       -0.69068161       1.24600278      -1.23677553
H        1.92325172      -1.41585314      -0.94711470
H        2.17533252      -1.50121791       0.84981906
H        2.64469782       0.98749565      -0.96278991
H        2.97166041       0.90241183       0.82112569
H       -0.80450753       0.81764907       1.48004968
H        0.75744732       0.80507104       2.32957687
19
Frame=5 idx=010402 GeodesicLength=0.6478814247774345 rxn_smarts="[C:1]([C:2]1([H:11])[C:3]([H:12])([H:13])[C:4]2([C:5]([H:14])([H:15])[C:6]2([H:16])[H:17])[C:7]1([H:18])[H:19])([H:8])([H:9])[H:10]>>[C:1]([C:2](=[C:3]([H:12])[H:13])[H:11])([H:8])([H:9])[H:10].[C:4]1(=[C:7]([H:18])[H:19])[C:5]([H:14])([H:15])[C:6]1([H:16])[H:17]"
C       -2.68529069      -0.12927146      -0.08355112
C       -1.31850562      -0.59554645      -0.41935849
C       -0.36026909       0.24232170      -1.06449785
C        0.94403134       0.22907071       0.22677262
C        1.93458618      -0.88349739      -0.00861295
C        2.38625704       0.55514061       0.01646710
C        0.21906006       0.50590747       1.40741457
H       -3.34280268      -0.11392317      -0.96010363
H       -2.64677321       0.90611320       0.28944768
H       -3.14078895      -0.75201010       0.68788572
H       -1.13864393      -1.66570487      -0.45221357
H        0.12995186      -0.15085054      -1.95543021
H       -0.71757169       1.25089623      -1.27217117
H        1.95573313      -1.39944514      -0.96226372
H        2.17117779      -1.51912011       0.83532620
H        2.68241105       1.00090907      -0.92506631
H        2.98230003       0.87942174       0.86123181
H       -0.78188511       0.90611131       1.43829687
H        0.72702249       0.73347719       2.34042644
19
Frame=6 idx=010402 GeodesicLength=0.7783867683297068 rxn_smarts="[C:1]([C:2]1([H:11])[C:3]([H:12])([H:13])[C:4]2([C:5]([H:14])([H:15])[C:6]2([H:16])[H:17])[C:7]1([H:18])[H:19])([H:8])([H:9])[H:10]>>[C:1]([C:2](=[C:3]([H:12])[H:13])[H:11])([H:8])([H:9])[H:10].[C:4]1(=[C:7]([H:18])[H:19])[C:5]([H:14])([H:15])[C:6]1([H:16])[H:17]"
C       -2.69044174      -0.13122715      -0.06755141
C       -1.31700625      -0.57850460      -0.40800470
C       -0.38087046       0.25180827      -1.09455804
C        0.96029173       0.22849364       0.22270448
C        1.94778007      -0.88363691      -0.01426131
C        2.40627383       0.55236999       0.04314525
C        0.20624968       0.49256500       1.38921441
H       -3.36608178      -0.18878340      -0.92804304
H       -2.67774759       0.92268572       0.24835071
H       -3.10726048      -0.72495425       0.74777861
H       -1.13311549      -1.64833084      -0.44653785
H        0.09413793      -0.14966723      -1.98971749
H       -0.74670443       1.25588279      -1.30959281
H        1.98857594      -1.38288002      -0.97599700
H        2.16504938      -1.53705865       0.82144913
H        2.72190515       1.01298794      -0.88481178
H        2.99201632       0.85475238       0.90324907
H       -0.75408135       0.98483108       1.39732632
H        0.69102953       0.66866622       2.34585743
19
Frame=7 idx=010402 GeodesicLength=0.9093696047915507 rxn_smarts="[C:1]([C:2]1([H:11])[C:3]([H:12])([H:13])[C:4]2([C:5]([H:14])([H:15])[C:6]2([H:16])[H:17])[C:7]1([H:18])[H:19])([H:8])([H:9])[H:10]>>[C:1]([C:2](=[C:3]([H:12])[H:13])[H:11])([H:8])([H:9])[H:10].[C:4]1(=[C:7]([H:18])[H:19])[C:5]([H:14])([H:15])[C:6]1([H:16])[H:17]"
C       -2.69440373      -0.13334051      -0.05054333
C       -1.31510023      -0.56060417      -0.39906191
C       -0.40269224       0.26220905      -1.12605463
C        0.97701947       0.22869227       0.21843717
C        1.96054731      -0.88394446      -0.01917809
C        2.42676208       0.54835020       0.07122222
C        0.19307690       0.48252802       1.36875303
H       -3.38642370      -0.26246266      -0.88962871
H       -2.70951499       0.93481438       0.20936367
H       -3.07162998      -0.69625186       0.80532801
H       -1.12663946      -1.63000572      -0.44289003
H        0.05655142      -0.14726735      -2.02555213
H       -0.77832182       1.26128935      -1.34804320
H        2.02116921      -1.36633492      -0.98832628
H        2.15680531      -1.55513828       0.80783659
H        2.76310883       1.02329407      -0.84215262
H        3.00114742       0.82800291       0.94668393
H       -0.72259147       1.05513292       1.35748625
H        0.65112963       0.61103677       2.34632006
19
Frame=8 idx=010402 GeodesicLength=1.0407317753993786 rxn_smarts="[C:1]([C:2]1([H:11])[C:3]([H:12])([H:13])[C:4]2([C:5]([H:14])([H:15])[C:6]2([H:16])[H:17])[C:7]1([H:18])[H:19])([H:8])([H:9])[H:10]>>[C:1]([C:2](=[C:3]([H:12])[H:13])[H:11])([H:8])([H:9])[H:10].[C:4]1(=[C:7]([H:18])[H:19])[C:5]([H:14])([H:15])[C:6]1([H:16])[H:17]"
C       -2.69729159      -0.13596140      -0.03290873
C       -1.31269085      -0.54178895      -0.39214913
C       -0.42593018       0.27378687      -1.15867346
C        0.99438157       0.22966787       0.21415754
C        1.97285304      -0.88452298      -0.02342016
C        2.44777665       0.54285448       0.10062690
C        0.18012527       0.47580372       1.34636099
H       -3.40329614      -0.33544393      -0.84581463
H       -2.74270083       0.94227713       0.17232711
H       -3.03411564      -0.66641275       0.86013903
H       -1.11890317      -1.61061630      -0.44107922
H        0.01675464      -0.14321515      -2.06277665
H       -0.81274736       1.26735169      -1.38692185
H        2.05326200      -1.34996088      -0.99928993
H        2.14652457      -1.57343925       0.79427019
H        2.80596510       1.03147793      -0.79713560
H        3.00988845       0.79886340       0.99130381
H       -0.68836181       1.11873227       1.31863902
H        0.60850627       0.56054624       2.34234479
19
Frame=9 idx=010402 GeodesicLength=1.1722417640200014 rxn_smarts="[C:1]([C:2]1([H:11])[C:3]([H:12])([H:13])[C:4]2([C:5]([H:14])([H:15])[C:6]2([H:16])[H:17])[C:7]1([H:18])[H:19])([H:8])([H:9])[H:10]>>[C:1]([C:2](=[C:3]([H:12])[H:13])[H:11])([H:8])([H:9])[H:10].[C:4]1(=[C:7]([H:18])[H:19])[C:5]([H:14])([H:15])[C:6]1([H:16])[H:17]"
C       -2.69898420      -0.13936484      -0.01482959
C       -1.30969960      -0.52196644      -0.38706014
C       -0.45075093       0.28669329      -1.19220049
C        1.01247401       0.23142591       0.20998692
C        1.98451409      -0.88534756      -0.02705906
C        2.46925568       0.53570381       0.13148154
C        0.16780300       0.47236796       1.32210689
H       -3.41614765      -0.40845073      -0.79697284
H       -2.77758628       0.94485514       0.13678746
H       -2.99456106      -0.63552306       0.91215365
H       -1.10974148      -1.58996548      -0.44107650
H       -0.02567166      -0.13725831      -2.10120979
H       -0.85019000       1.27410877      -1.42580387
H        2.08456520      -1.33369997      -1.00892330
H        2.13397000      -1.59189201       0.78040487
H        2.85039206       1.03727910      -0.74943710
H        3.01818790       0.76704274       1.03711404
H       -0.65180851       1.17716716       1.28039925
H        0.56397943       0.51682452       2.33413805
19
Frame=10 idx=010402 GeodesicLength=1.304057521795475 rxn_smarts="[C:1]([C:2]1([H:11])[C:3]([H:12])([H:13])[C:4]2([C:5]([H:14])([H:15])[C:6]2([H:16])[H:17])[C:7]1([H:18])[H:19])([H:8])([H:9])[H:10]>>[C:1]([C:2](=[C:3]([H:12])[H:13])[H:11])([H:8])([H:9])[H:10].[C:4]1(=[C:7]([H:18])[H:19])[C:5]([H:14])([H:15])[C:6]1([H:16])[H:17]"
C       -2.69969091      -0.14376358       0.00353234
C       -1.30610605      -0.50110070      -0.38353333
C       -0.47732734       0.30112577      -1.22657562
C        1.03144622       0.23394430       0.20603014
C        1.99576868      -0.88662291      -0.03012267
C        2.49132351       0.52675280       0.16364276
C        0.15629845       0.47224536       1.29631865
H       -3.42443992      -0.48132858      -0.74395555
H       -2.81458999       0.94232184       0.10319042
H       -2.95363328      -0.60406860       0.96116532
H       -1.09890945      -1.56806751      -0.44273817
H       -0.07098565      -0.12919025      -2.14093582
H       -0.89097187       1.28183334      -1.46448965
H        2.11538960      -1.31787220      -1.01732477
H        2.11944424      -1.61070427       0.76627049
H        2.89653374       1.04044598      -0.69935026
H        3.02610746       0.73240791       1.08394413
H       -0.61370547       1.23147657       1.24260665
H        0.51804800       0.48016473       2.32232492
19
Frame=11 idx=010402 GeodesicLength=1.4360611090097726 rxn_smarts="[C:1]([C:2]1([H:11])[C:3]([H:12])([H:13])[C:4]2([C:5]([H:14])([H:15])[C:6]2([H:16])[H:17])[C:7]1([H:18])[H:19])([H:8])([H:9])[H:10]>>[C:1]([C:2](=[C:3]([H:12])[H:13])[H:11])([H:8])([H:9])[H:10].[C:4]1(=[C:7]([H:18])[H:19])[C:5]([H:14])([H:15])[C:6]1([H:16])[H:17]"
C       -2.69927640      -0.14934061       0.02213005
C       -1.30189216      -0.47909891      -0.38148961
C       -0.50586017       0.31715737      -1.26172536
C        1.05137739       0.23720260       0.20235346
C        2.00656335      -0.88833895      -0.03264357
C        2.51391935       0.51586180       0.19724182
C        0.14580592       0.47542993       1.26896640
H       -3.42761215      -0.55433090      -0.68705845
H       -2.85369529       0.93438798       0.07153585
H       -2.91134258      -0.57213028       1.00716810
H       -1.08633214      -1.54474673      -0.44612938
H       -0.11959261      -0.11894376      -2.18184481
H       -0.93533331       1.29049384      -1.50276012
H        2.14573663      -1.30245429      -1.02450185
H        2.10280937      -1.62979546       0.75165396
H        2.94437555       1.04074156      -0.64658635
H        3.03346166       0.69476806       1.13187282
H       -0.57420864       1.28269681       1.20476825
H        0.47109624       0.45043995       2.30704878
19
Frame=12 idx=010402 GeodesicLength=1.568287805145545 rxn_smarts="[C:1]([C:2]1([H:11])[C:3]([H:12])([H:13])[C:4]2([C:5]([H:14])([H:15])[C:6]2([H:16])[H:17])[C:7]1([H:18])[H:19])([H:8])([H:9])[H:10]>>[C:1]([C:2](=[C:3]([H:12])[H:13])[H:11])([H:8])([H:9])[H:10].[C:4]1(=[C:7]([H:18])[H:19])[C:5]([H:14])([H:15])[C:6]1([H:16])[H:17]"
C       -2.69759348      -0.15624854       0.04098279
C       -1.29704265      -0.45586092      -0.38092683
C       -0.53656504       0.33488654      -1.29766943
C        1.07234478       0.24116416       0.19900691
C        2.01690130      -0.89052667      -0.03463865
C        2.53697224       0.50287084       0.23244118
C        0.13643379       0.48193898       1.23998062
H       -3.42509090      -0.62766494      -0.62645373
H       -2.89488711       0.92073832       0.04192730
H       -2.86765105      -0.53972808       1.05025868
H       -1.07191265      -1.51985337      -0.45139499
H       -0.17187056      -0.10645490      -2.22392410
H       -0.98356389       1.30011144      -1.54048510
H        2.17572629      -1.28747107      -1.03046351
H        2.08395596      -1.64913452       0.73638467
H        2.99391267       1.03792931      -0.59083292
H        3.03997286       0.65393120       1.18104983
H       -0.53337071       1.33175385       1.16635258
H        0.42332816       0.42761836       2.28840469
19
Frame=13 idx=010402 GeodesicLength=1.7007179641752015 rxn_smarts="[C:1]([C:2]1([H:11])[C:3]([H:12])([H:13])[C:4]2([C:5]([H:14])([H:15])[C:6]2([H:16])[H:17])[C:7]1([H:18])[H:19])([H:8])([H:9])[H:10]>>[C:1]([C:2](=[C:3]([H:12])[H:13])[H:11])([H:8])([H:9])[H:10].[C:4]1(=[C:7]([H:18])[H:19])[C:5]([H:14])([H:15])[C:6]1([H:16])[H:17]"
C       -2.69433187      -0.16459689       0.06012700
C       -1.29151765      -0.43126220      -0.38187379
C       -0.56973610       0.35434572      -1.33444276
C        1.09439831       0.24582493       0.19601838
C        2.02673614      -0.89314975      -0.03609805
C        2.56031660       0.48761341       0.26942912
C        0.12832303       0.49184962       1.20921142
H       -3.41615828      -0.70125561      -0.56231048
H       -2.93786260       0.90096627       0.01455929
H       -2.82241564      -0.50689937       1.09045516
H       -1.05553055      -1.49314217      -0.45866838
H       -0.22831924      -0.09174435      -2.26710566
H       -1.03603670       1.31056277      -1.57756932
H        2.20547337      -1.27285480      -1.03515259
H        2.06272992      -1.66857550       0.72031281
H        3.04505446       1.03169292      -0.53172200
H        3.04524556       0.60965564       1.23163523
H       -0.49125515       1.37928197       1.12682400
H        0.37488639       0.41168738       2.26637062
19
Frame=14 idx=010402 GeodesicLength=1.8334786895356456 rxn_smarts="[C:1]([C:2]1([H:11])[C:3]([H:12])([H:13])[C:4]2([C:5]([H:14])([H:15])[C:6]2([H:16])[H:17])[C:7]1([H:18])[H:19])([H:8])([H:9])[H:10]>>[C:1]([C:2](=[C:3]([H:12])[H:13])[H:11])([H:8])([H:9])[H:10].[C:4]1(=[C:7]([H:18])[H:19])[C:5]([H:14])([H:15])[C:6]1([H:16])[H:17]"
C       -2.68930248      -0.17453506       0.07963471
C       -1.28532087      -0.40519009      -0.38444018
C       -0.60562951       0.37569389      -1.37212493
C        1.11762454       0.25112269       0.19343636
C        2.03609646      -0.89630836      -0.03699808
C        2.58384161       0.46989330       0.30840772
C        0.12151045       0.50523337       1.17649307
H       -3.40010173      -0.77527662      -0.49470354
H       -2.98253033       0.87465275      -0.01022777
H       -2.77558387      -0.47365711       1.12786578
H       -1.03710774      -1.46448835      -0.46827059
H       -0.28931300      -0.07470213      -2.31142438
H       -1.09307240       1.32196902      -1.61383482
H        2.23517158      -1.25876299      -1.03851584
H        2.03901161      -1.68812231       0.70330658
H        3.09778604       1.02173761      -0.46887694
H        3.04884382       0.56179104       1.28381638
H       -0.44775833       1.42602673       1.08557951
H        0.32583413       0.40292262       2.24087695
19
Frame=15 idx=010402 GeodesicLength=1.966609609883386 rxn_smarts="[C:1]([C:2]1([H:11])[C:3]([H:12])([H:13])[C:4]2([C:5]([H:14])([H:15])[C:6]2([H:16])[H:17])[C:7]1([H:18])[H:19])([H:8])([H:9])[H:10]>>[C:1]([C:2](=[C:3]([H:12])[H:13])[H:11])([H:8])([H:9])[H:10].[C:4]1(=[C:7]([H:18])[H:19])[C:5]([H:14])([H:15])[C:6]1([H:16])[H:17]"
C       -2.68210738      -0.18620074       0.09957691
C       -1.27842571      -0.37750172      -0.38874306
C       -0.64462762       0.39900245      -1.41076617
C        1.14207732       0.25702409       0.19129573
C        2.04492757      -0.90001008      -0.03730148
C        2.60730440       0.44948478       0.34963349
C        0.11611593       0.52221375       1.14156876
H       -3.37600229      -0.84957425      -0.42384973
H       -3.02840983       0.84126421      -0.03197501
H       -2.72696950      -0.44009044       1.16248561
H       -1.01653814      -1.43362394      -0.48050409
H       -0.35543978      -0.05532329      -2.35679488
H       -1.15512767       1.33423939      -1.64908157
H        2.26498953      -1.24520199      -1.04043345
H        2.01258387      -1.70763394       0.68520169
H        3.15196244       1.00765365      -0.40179747
H        3.05016644       0.51008913       1.33780904
H       -0.40277185       1.47248247       1.04194072
H        0.27629225       0.40170646       2.21173493
19
Frame=16 idx=010402 GeodesicLength=2.100231225878529 rxn_smarts="[C:1]([C:2]1([H:11])[C:3]([H:12])([H:13])[C:4]2([C:5]([H:14])([H:15])[C:6]2([H:16])[H:17])[C:7]1([H:18])[H:19])([H:8])([H:9])[H:10]>>[C:1]([C:2](=[C:3]([H:12])[H:13])[H:11])([H:8])([H:9])[H:10].[C:4]1(=[C:7]([H:18])[H:19])[C:5]([H:14])([H:15])[C:6]1([H:16])[H:17]"
C       -2.67227170      -0.19970969       0.12004368
C       -1.27081501      -0.34803745      -0.39496158
C       -0.68717083       0.42436443      -1.45043515
C        1.16780475       0.26346196       0.18963774
C        2.05318491      -0.90429080      -0.03694852
C        2.63038325       0.42614044       0.39340851
C        0.11224738       0.54291233       1.10410579
H       -3.34280843      -0.92402626      -0.34986829
H       -3.07493822       0.80022205      -0.05020966
H       -2.67628748      -0.40618307       1.19434781
H       -0.99373413      -1.40026650      -0.49577773
H       -0.42732955      -0.03358032      -2.40313384
H       -1.22269384       1.34731405      -1.68305234
H        2.29513738      -1.23222791      -1.04073914
H        1.98325126      -1.72697651       0.66582383
H        3.20733819       0.98901602      -0.32988947
H        3.04845846       0.45432797       1.39385693
H       -0.35608050       1.51910879       0.99514990
H        0.22632413       0.40843046       2.17864153
