11
Frame=0 idx=004445 GeodesicLength=0.0 rxn_smarts="[N:1]1([H:7])[C@@:2]2([H:8])[C@:3]1([H:9])[C@@:4]1([H:10])[O:5][C@@:6]21[H:11]>>[N:1]1([H:7])[C@@:2]2([H:8])[C@:3]1([H:9])[C@:4]2([O+:5]=[C-:6][H:11])[H:10]"
N        1.16884271       0.46258924       1.01073523
C        0.25990123       0.85213002      -0.04189213
C        1.21451877      -0.23714041      -0.24342113
C       -0.19756802      -0.56916600      -0.50243487
O       -0.94672875      -1.27881822       0.43468114
C       -1.65865725      -0.13156985       0.75018992
H        0.67320866      -0.06973424       1.72292330
H        0.19488933       1.81714134      -0.51425898
H        2.05949656      -0.29282358      -0.90855605
H       -0.53186411      -0.67573145      -1.53196394
H       -2.23603909       0.12312317      -0.17600252
11
Frame=1 idx=004445 GeodesicLength=0.050013575950117156 rxn_smarts="[N:1]1([H:7])[C@@:2]2([H:8])[C@:3]1([H:9])[C@@:4]1([H:10])[O:5][C@@:6]21[H:11]>>[N:1]1([H:7])[C@@:2]2([H:8])[C@:3]1([H:9])[C@:4]2([O+:5]=[C-:6][H:11])[H:10]"
N        1.16494573       0.46273115       1.01118723
C        0.25426218       0.85525030      -0.03918160
C        1.21031573      -0.23293596      -0.24538181
C       -0.20044539      -0.57634584      -0.50768271
O       -0.94425979      -1.28134331       0.44016163
C       -1.64802340      -0.12898968       0.74108964
H        0.67452045      -0.07635233       1.72171207
H        0.19459612       1.82376713      -0.50565959
H        2.05810197      -0.28553206      -0.90738320
H       -0.52945339      -0.70198702      -1.53638270
H       -2.23456020       0.14173762      -0.17247896
11
Frame=2 idx=004445 GeodesicLength=0.1000240727962485 rxn_smarts="[N:1]1([H:7])[C@@:2]2([H:8])[C@:3]1([H:9])[C@@:4]1([H:10])[O:5][C@@:6]21[H:11]>>[N:1]1([H:7])[C@@:2]2([H:8])[C@:3]1([H:9])[C@:4]2([O+:5]=[C-:6][H:11])[H:10]"
N        1.16106167       0.46280543       1.01159449
C        0.24864679       0.85848208      -0.03644128
C        1.20600411      -0.22868029      -0.24744626
C       -0.20335482      -0.58350431      -0.51299720
O       -0.94171802      -1.28378844       0.44557772
C       -1.63759792      -0.12667178       0.73173470
H        0.67575110      -0.08288490       1.72040368
H        0.19431606       1.83052797      -0.49681553
H        2.05655990      -0.27825416      -0.90631992
H       -0.52682339      -0.72869994      -1.54050551
H       -2.23284547       0.16066834      -0.16878488
11
Frame=3 idx=004445 GeodesicLength=0.15002369728064552 rxn_smarts="[N:1]1([H:7])[C@@:2]2([H:8])[C@:3]1([H:9])[C@@:4]1([H:10])[O:5][C@@:6]21[H:11]>>[N:1]1([H:7])[C@@:2]2([H:8])[C@:3]1([H:9])[C@:4]2([O+:5]=[C-:6][H:11])[H:10]"
N        1.15718899       0.46281107       1.01195401
C        0.24305432       0.86182686      -0.03366986
C        1.20158180      -0.22437135      -0.24961588
C       -0.20629649      -0.59063967      -0.51838949
O       -0.93910899      -1.28614609       0.45091679
C       -1.62737969      -0.12460229       0.72211623
H        0.67689278      -0.08933408       1.71899499
H        0.19405234       1.83741744      -0.48773186
H        2.05487211      -0.27099772      -0.90536306
H       -0.52395715      -0.75585460      -1.54431867
H       -2.23090001       0.17989043      -0.16489320
11
Frame=4 idx=004445 GeodesicLength=0.2000078884695882 rxn_smarts="[N:1]1([H:7])[C@@:2]2([H:8])[C@:3]1([H:9])[C@@:4]1([H:10])[O:5][C@@:6]21[H:11]>>[N:1]1([H:7])[C@@:2]2([H:8])[C@:3]1([H:9])[C@:4]2([O+:5]=[C-:6][H:11])[H:10]"
N        1.15332559       0.46274781       1.01226415
C        0.23748408       0.86528698      -0.03086668
C        1.19704678      -0.22000793      -0.25189200
C       -0.20927032      -0.59775110      -0.52387244
O       -0.93643908      -1.28840978       0.45616489
C       -1.61736644      -0.12276713       0.71222618
H        0.67793761      -0.09570227       1.71748477
H        0.19380807       1.84443037      -0.47841726
H        2.05304160      -0.26377198      -0.90450828
H       -0.52083754      -0.78343328      -1.54780968
H       -2.22873034       0.19937830      -0.16077365
11
Frame=5 idx=004445 GeodesicLength=0.24996193870124042 rxn_smarts="[N:1]1([H:7])[C@@:2]2([H:8])[C@:3]1([H:9])[C@@:4]1([H:10])[O:5][C@@:6]21[H:11]>>[N:1]1([H:7])[C@@:2]2([H:8])[C@:3]1([H:9])[C@:4]2([O+:5]=[C-:6][H:11])[H:10]"
N        1.14946850       0.46261556       1.01252093
C        0.23193281       0.86886352      -0.02803508
C        1.19239630      -0.21558996      -0.25427609
C       -0.21227745      -0.60483832      -0.52945916
O       -0.93371825      -1.29057331       0.46130779
C       -1.60756170      -0.12115780       0.70206125
H        0.67887639      -0.10199297       1.71587021
H        0.19358388       1.85155924      -0.46888725
H        2.05107309      -0.25658707      -0.90374976
H       -0.51743495      -0.81141090      -1.55096472
H       -2.22633863       0.21911201      -0.15638812
11
Frame=6 idx=004445 GeodesicLength=0.2999121376096632 rxn_smarts="[N:1]1([H:7])[C@@:2]2([H:8])[C@:3]1([H:9])[C@@:4]1([H:10])[O:5][C@@:6]21[H:11]>>[N:1]1([H:7])[C@@:2]2([H:8])[C@:3]1([H:9])[C@:4]2([O+:5]=[C-:6][H:11])[H:10]"
N        1.14561111       0.46241353       1.01272380
C        0.22640458       0.87255829      -0.02517478
C        1.18762974      -0.21111632      -0.25677134
C       -0.21531369      -0.61190474      -0.53516958
O       -0.93094622      -1.29263063       0.46631947
C       -1.59794662      -0.11975789       0.69159339
H        0.67970002      -0.10820774       1.71414308
H        0.19338508       1.85880098      -0.45914847
H        2.04897152      -0.24945304      -0.90307645
H       -0.51374292      -0.83976951      -1.55373944
H       -2.22375260       0.23906707      -0.15169969
11
Frame=7 idx=004445 GeodesicLength=0.3497500446064304 rxn_smarts="[N:1]1([H:7])[C@@:2]2([H:8])[C@:3]1([H:9])[C@@:4]1([H:10])[O:5][C@@:6]21[H:11]>>[N:1]1([H:7])[C@@:2]2([H:8])[C@:3]1([H:9])[C@:4]2([O+:5]=[C-:6][H:11])[H:10]"
N        1.14177449       0.46215324       1.01287734
C        0.22089580       0.87636420      -0.02227000
C        1.18275089      -0.20659276      -0.25936132
C       -0.21837165      -0.61897114      -0.54095960
O       -0.92814166      -1.29458264       0.47124129
C       -1.58850045      -0.11854887       0.68089633
H        0.68044370      -0.11434037       1.71233072
H        0.19319975       1.86612091      -0.44923441
H        2.04673914      -0.24239024      -0.90248370
H       -0.50983822      -0.86836515      -1.55619888
H       -2.22095179       0.25915284      -0.14683776
11
Frame=8 idx=004445 GeodesicLength=0.3995547542645397 rxn_smarts="[N:1]1([H:7])[C@@:2]2([H:8])[C@:3]1([H:9])[C@@:4]1([H:10])[O:5][C@@:6]21[H:11]>>[N:1]1([H:7])[C@@:2]2([H:8])[C@:3]1([H:9])[C@:4]2([O+:5]=[C-:6][H:11])[H:10]"
N        1.13793396       0.46181902       1.01296696
C        0.21540507       0.88028562      -0.01933150
C        1.17774890      -0.20200705      -0.26206496
C       -0.22146401      -0.62601571      -0.54689074
O       -0.92531785      -1.29640433       0.47602069
C       -1.57925149      -0.11750522       0.66990005
H        0.68106619      -0.12041263       1.71040493
H        0.19304171       1.87353443      -0.43911677
H        2.04437472      -0.23537242      -0.90197763
H       -0.50559303      -0.89733942      -1.55828250
H       -2.21794417       0.27941772      -0.14162853
11
Frame=9 idx=004445 GeodesicLength=0.44934121400838983 rxn_smarts="[N:1]1([H:7])[C@@:2]2([H:8])[C@:3]1([H:9])[C@@:4]1([H:10])[O:5][C@@:6]21[H:11]>>[N:1]1([H:7])[C@@:2]2([H:8])[C@:3]1([H:9])[C@:4]2([O+:5]=[C-:6][H:11])[H:10]"
N        1.13408412       0.46141178       1.01299360
C        0.20992993       0.88432478      -0.01636786
C        1.17262603      -0.19736457      -0.26488636
C       -0.22458179      -0.63304926      -0.55296817
O       -0.92248784      -1.29809088       0.48063552
C       -1.57018612      -0.11661186       0.65858583
H        0.68155964      -0.12643104       1.70835893
H        0.19290639       1.88104650      -0.42879651
H        2.04188499      -0.22840220      -0.90155570
H       -0.50099193      -0.92668761      -1.55996161
H       -2.21474342       0.29985435      -0.13603769
11
Frame=10 idx=004445 GeodesicLength=0.4991031328028876 rxn_smarts="[N:1]1([H:7])[C@@:2]2([H:8])[C@:3]1([H:9])[C@@:4]1([H:10])[O:5][C@@:6]21[H:11]>>[N:1]1([H:7])[C@@:2]2([H:8])[C@:3]1([H:9])[C@:4]2([O+:5]=[C-:6][H:11])[H:10]"
N        1.13022308       0.46092721       1.01295179
C        0.20446345       0.88847793      -0.01338359
C        1.16737695      -0.19266568      -0.26782814
C       -0.22773121      -0.64008025      -0.55920027
O       -0.91967924      -1.29963864       0.48508934
C       -1.56131758      -0.11585759       0.64695458
H        0.68191793      -0.13240830       1.70619225
H        0.19278618       1.88865296      -0.41827829
H        2.03926310      -0.22146374      -0.90122996
H       -0.49598069      -0.95641775      -1.56123159
H       -2.21132198       0.32047385      -0.13003611
11
Frame=11 idx=004445 GeodesicLength=0.548865195160326 rxn_smarts="[N:1]1([H:7])[C@@:2]2([H:8])[C@:3]1([H:9])[C@@:4]1([H:10])[O:5][C@@:6]21[H:11]>>[N:1]1([H:7])[C@@:2]2([H:8])[C@:3]1([H:9])[C@:4]2([O+:5]=[C-:6][H:11])[H:10]"
N        1.12634436       0.46036169       1.01283418
C        0.19901322       0.89274583      -0.01037914
C        1.16199889      -0.18790747      -0.27089757
C       -0.23090759      -0.64710895      -0.56559938
O       -0.91690079      -1.30102492       0.48934681
C       -1.55262377      -0.11521011       0.63497178
H        0.68213331      -0.13834977       1.70388854
H        0.19269343       1.89635599      -0.40753440
H        2.03650665      -0.21455200      -0.90099873
H       -0.49054958      -0.98655856      -1.56203863
H       -2.20770814       0.34124827      -0.12359344
11
Frame=12 idx=004445 GeodesicLength=0.5986003099846171 rxn_smarts="[N:1]1([H:7])[C@@:2]2([H:8])[C@:3]1([H:9])[C@@:4]1([H:10])[O:5][C@@:6]21[H:11]>>[N:1]1([H:7])[C@@:2]2([H:8])[C@:3]1([H:9])[C@:4]2([O+:5]=[C-:6][H:11])[H:10]"
N        1.12243966       0.45972029       1.01263543
C        0.19356901       0.89712515      -0.00735521
C        1.15648351      -0.18309381      -0.27408857
C       -0.23410835      -0.65414850      -0.57216591
O       -0.91416952      -1.30225290       0.49341913
C       -1.54410620      -0.11466191       0.62265505
H        0.68220325      -0.14425594       1.70144771
H        0.19261899       1.90413598      -0.39659857
H        2.03360707      -0.20768367      -0.90085443
H       -0.48467869      -1.01703344      -1.56239512
H       -2.20385873       0.36214875      -0.11669950
11
Frame=13 idx=004445 GeodesicLength=0.6483189659053915 rxn_smarts="[N:1]1([H:7])[C@@:2]2([H:8])[C@:3]1([H:9])[C@@:4]1([H:10])[O:5][C@@:6]21[H:11]>>[N:1]1([H:7])[C@@:2]2([H:8])[C@:3]1([H:9])[C@:4]2([O+:5]=[C-:6][H:11])[H:10]"
N        1.11851369       0.45899510       1.01235721
C        0.18813786       0.90161766      -0.00431967
C        1.15084101      -0.17822142      -0.27741228
C       -0.23733447      -0.66119717      -0.57892189
O       -0.91151273      -1.30330165       0.49728159
C       -1.53576900      -0.11418513       0.60997384
H        0.68212280      -0.15014128       1.69887032
H        0.19257596       1.91199911      -0.38546290
H        2.03058755      -0.20084632      -0.90080547
H       -0.47833803      -1.04787427      -1.56225791
H       -2.19982462       0.38315537      -0.10930284
11
Frame=14 idx=004445 GeodesicLength=0.6980351971346715 rxn_smarts="[N:1]1([H:7])[C@@:2]2([H:8])[C@:3]1([H:9])[C@@:4]1([H:10])[O:5][C@@:6]21[H:11]>>[N:1]1([H:7])[C@@:2]2([H:8])[C@:3]1([H:9])[C@:4]2([O+:5]=[C-:6][H:11])[H:10]"
N        1.11455404       0.45818134       1.01198753
C        0.18271562       0.90622314      -0.00127731
C        1.14506117      -0.17329194      -0.28087502
C       -0.24058401      -0.66826087      -0.58587881
O       -0.90894708      -1.30415905       0.50091503
C       -1.52760701      -0.11375850       0.59690678
H        0.68187877      -0.15601491       1.69613836
H        0.19256544       1.91994477      -0.37411672
H        2.02743701      -0.19403333      -0.90085274
H       -0.47148551      -1.07909478      -1.56158696
H       -2.19558841       0.40426413      -0.10136013
11
Frame=15 idx=004445 GeodesicLength=0.7477354320016368 rxn_smarts="[N:1]1([H:7])[C@@:2]2([H:8])[C@:3]1([H:9])[C@@:4]1([H:10])[O:5][C@@:6]21[H:11]>>[N:1]1([H:7])[C@@:2]2([H:8])[C@:3]1([H:9])[C@:4]2([O+:5]=[C-:6][H:11])[H:10]"
N        1.11055719       0.45728293       1.01152497
C        0.17730379       0.91093599       0.00176360
C        1.13914624      -0.16831140      -0.28446839
C       -0.24385048      -0.67535476      -0.59303653
O       -0.90648973      -1.30481882       0.50431466
C       -1.51961022      -0.11336712       0.58344763
H        0.68146673      -0.16187289       1.69325342
H        0.19259009       1.92795133      -0.36259856
H        2.02416011      -0.18726156      -0.90098102
H       -0.46412168      -1.11060485      -1.56037749
H       -2.19115204       0.42542116      -0.09284229
11
Frame=16 idx=004445 GeodesicLength=0.7974349310469822 rxn_smarts="[N:1]1([H:7])[C@@:2]2([H:8])[C@:3]1([H:9])[C@@:4]1([H:10])[O:5][C@@:6]21[H:11]>>[N:1]1([H:7])[C@@:2]2([H:8])[C@:3]1([H:9])[C@:4]2([O+:5]=[C-:6][H:11])[H:10]"
N        1.10651377       0.45629682       1.01096426
C        0.17190246       0.91575636       0.00479724
C        1.13309334      -0.16327842      -0.28820207
C       -0.24713001      -0.68248352      -0.60041428
O       -0.90416713      -1.30526791       0.50745879
C       -1.51177960      -0.11299039       0.56956984
H        0.68086913      -0.16772131       1.69020757
H        0.19265795       1.93601933      -0.35089758
H        2.02075650      -0.18052271      -0.90120101
H       -0.45620754      -1.14242701      -1.55858851
H       -2.18650887       0.44661876      -0.08369424
