12
Frame=0 idx=005303 GeodesicLength=0.0 rxn_smarts="[O:1]([C@:2]12[C:3]([H:8])([H:9])[C@@:4]1([H:10])[O:5][C:6]2([H:11])[H:12])[H:7]>>[O:1]([C@:2]1([H:11])[C:3]([H:8])([H:9])[C@:4]1([O+:5]=[C-:6][H:12])[H:10])[H:7]"
O        0.12121261      -1.40976051      -1.16622794
C        0.08445894      -0.49902721      -0.15674682
C       -1.13331578      -0.04250927       0.59643905
C       -0.36256731       0.91939476      -0.26031538
O        0.63170143       1.63077068       0.40190173
C        1.63412971       0.63487534       0.50575948
H       -0.07332699      -2.28276750      -0.81472775
H       -2.06363195      -0.38596259       0.16126508
H       -1.11123453       0.05711745       1.67409357
H       -0.80857678       1.36263568      -1.14401193
H        1.00346412      -0.50638117       0.70265061
H        2.07768653       0.52161438      -0.50007968
12
Frame=1 idx=005303 GeodesicLength=0.06641214077596683 rxn_smarts="[O:1]([C@:2]12[C:3]([H:8])([H:9])[C@@:4]1([H:10])[O:5][C:6]2([H:11])[H:12])[H:7]>>[O:1]([C@:2]1([H:11])[C:3]([H:8])([H:9])[C@:4]1([O+:5]=[C-:6][H:12])[H:10])[H:7]"
O        0.11589640      -1.41382761      -1.16318797
C        0.08535981      -0.50325920      -0.15105227
C       -1.13667025      -0.04558904       0.59487869
C       -0.36182063       0.91494247      -0.25841874
O        0.62818612       1.62550680       0.41550099
C        1.64120196       0.64374453       0.49490733
H       -0.09060832      -2.28503212      -0.81406227
H       -2.06738336      -0.38428758       0.15664125
H       -1.11887562       0.05498029       1.67258737
H       -0.79212985       1.35870159      -1.14932472
H        1.01379645      -0.51581979       0.71532355
H        2.08304730       0.54993966      -0.51379320
12
Frame=2 idx=005303 GeodesicLength=0.13279310630442176 rxn_smarts="[O:1]([C@:2]12[C:3]([H:8])([H:9])[C@@:4]1([H:10])[O:5][C:6]2([H:11])[H:12])[H:7]>>[O:1]([C@:2]1([H:11])[C:3]([H:8])([H:9])[C@:4]1([O+:5]=[C-:6][H:12])[H:10])[H:7]"
O        0.11050802      -1.41799425      -1.16009550
C        0.08617066      -0.50759371      -0.14533453
C       -1.14007385      -0.04863239       0.59325307
C       -0.36100569       0.91044259      -0.25655396
O        0.62500372       1.61983172       0.42890785
C        1.64811675       0.65251877       0.48381029
H       -0.10775170      -2.28725610      -0.81329922
H       -2.07116415      -0.38249764       0.15192587
H       -1.12655961       0.05292019       1.67099515
H       -0.77554221       1.35478968      -1.15434326
H        1.02413963      -0.52547326       0.72820889
H        2.08815843       0.57894441      -0.52747466
12
Frame=3 idx=005303 GeodesicLength=0.19912894243117882 rxn_smarts="[O:1]([C@:2]12[C:3]([H:8])([H:9])[C@@:4]1([H:10])[O:5][C:6]2([H:11])[H:12])[H:7]>>[O:1]([C@:2]1([H:11])[C:3]([H:8])([H:9])[C@:4]1([O+:5]=[C-:6][H:12])[H:10])[H:7]"
O        0.10503888      -1.42225193      -1.15696753
C        0.08688527      -0.51202903      -0.13960585
C       -1.14351952      -0.05162992       0.59156377
C       -0.36012312       0.90589538      -0.25473443
O        0.62217123       1.61375345       0.44208627
C        1.65486739       0.66119084       0.47247887
H       -0.12473935      -2.28944294      -0.81244984
H       -2.07496962      -0.38059379       0.14713631
H       -1.13426129       0.05095962       1.66931703
H       -0.75885825       1.35088930      -1.15906906
H        1.03448159      -0.53536468       0.74130709
H        2.09302680       0.60862368      -0.54106262
12
Frame=4 idx=005303 GeodesicLength=0.26542424212935023 rxn_smarts="[O:1]([C@:2]12[C:3]([H:8])([H:9])[C@@:4]1([H:10])[O:5][C:6]2([H:11])[H:12])[H:7]>>[O:1]([C@:2]1([H:11])[C:3]([H:8])([H:9])[C@:4]1([O+:5]=[C-:6][H:12])[H:10])[H:7]"
O        0.09947972      -1.42659772      -1.15382586
C        0.08749787      -0.51656499      -0.13387995
C       -1.14699962      -0.05457200       0.58981520
C       -0.35917307       0.90130533      -0.25297488
O        0.61970417       1.60729004       0.45500105
C        1.66144940       0.66975965       0.46092392
H       -0.14155684      -2.29160568      -0.81152757
H       -2.07879485      -0.37857770       0.14229135
H       -1.14195500       0.04912095       1.66756108
H       -0.74212172       1.34699249      -1.16351188
H        1.04481079      -0.54552471       0.75461707
H        2.09765915       0.63897432      -0.55448953
12
Frame=5 idx=005303 GeodesicLength=0.33164640581791466 rxn_smarts="[O:1]([C@:2]12[C:3]([H:8])([H:9])[C@@:4]1([H:10])[O:5][C:6]2([H:11])[H:12])[H:7]>>[O:1]([C@:2]1([H:11])[C:3]([H:8])([H:9])[C@:4]1([O+:5]=[C-:6][H:12])[H:10])[H:7]"
O        0.09382398      -1.43102056      -1.15067121
C        0.08800531      -0.52119760      -0.12816109
C       -1.15051168      -0.05745214       0.58800159
C       -0.35815506       0.89666580      -0.25127779
O        0.61758693       1.60041946       0.46766742
C        1.66787351       0.67821620       0.44910831
H       -0.15817202      -2.29374501      -0.81052729
H       -2.08263705      -0.37644261       0.13739369
H       -1.14963391       0.04740812       1.66570901
H       -0.72535898       1.34311555      -1.16766304
H        1.05510732      -0.55593323       0.76817539
H        2.10207165       0.66996603      -0.56775499
12
Frame=6 idx=005303 GeodesicLength=0.39781705354527186 rxn_smarts="[O:1]([C@:2]12[C:3]([H:8])([H:9])[C@@:4]1([H:10])[O:5][C:6]2([H:11])[H:12])[H:7]>>[O:1]([C@:2]1([H:11])[C:3]([H:8])([H:9])[C@:4]1([O+:5]=[C-:6][H:12])[H:10])[H:7]"
O        0.08807036      -1.43552716      -1.14751874
C        0.08841174      -0.52593093      -0.12246160
C       -1.15403904      -0.06026790       0.58613044
C       -0.35706331       0.89197763      -0.24966445
O        0.61586538       1.59318383       0.48002135
C        1.67412932       0.68656544       0.43707859
H       -0.17465723      -2.29586269      -0.80946678
H       -2.08648512      -0.37420081       0.13246425
H       -1.15726613       0.04584888       1.66378098
H       -0.70860069       1.33919729      -1.17155990
H        1.06538497      -0.56666744       0.78193934
H        2.10624975       0.70168387      -0.58074348
12
Frame=7 idx=005303 GeodesicLength=0.46393081851652174 rxn_smarts="[O:1]([C@:2]12[C:3]([H:8])([H:9])[C@@:4]1([H:10])[O:5][C:6]2([H:11])[H:12])[H:7]>>[O:1]([C@:2]1([H:11])[C:3]([H:8])([H:9])[C@:4]1([O+:5]=[C-:6][H:12])[H:10])[H:7]"
O        0.08221290      -1.44011512      -1.14437120
C        0.08871583      -0.53076297      -0.11678400
C       -1.15758258      -0.06301358       0.58419730
C       -0.35589943       0.88724132      -0.24813216
O        0.61450147       1.58556531       0.49210077
C        1.68023461       0.69481423       0.42477663
H       -0.19097508      -2.29797594      -0.80834191
H       -2.09033896      -0.37183933       0.12750013
H       -1.16485218       0.04443577       1.66176266
H       -0.69185936       1.33527270      -1.17519338
H        1.07562711      -0.57769627       0.79596124
H        2.11021568       0.73407388      -0.59347609
12
Frame=8 idx=005303 GeodesicLength=0.5300264457328691 rxn_smarts="[O:1]([C@:2]12[C:3]([H:8])([H:9])[C@@:4]1([H:10])[O:5][C:6]2([H:11])[H:12])[H:7]>>[O:1]([C@:2]1([H:11])[C:3]([H:8])([H:9])[C@:4]1([O+:5]=[C-:6][H:12])[H:10])[H:7]"
O        0.07625741      -1.44481120      -1.14124975
C        0.08892137      -0.53570335      -0.11114208
C       -1.16112366      -0.06568630       0.58221764
C       -0.35465465       0.88246202      -0.24670642
O        0.61353953       1.57760723       0.50384902
C        1.68617736       0.70297113       0.41224108
H       -0.20720780      -2.30010380      -0.80717863
H       -2.09418487      -0.36936597       0.12252723
H       -1.17236053       0.04319503       1.65969432
H       -0.67516006       1.33129390      -1.17862676
H        1.08583900      -0.58909865       0.81020878
H        2.11395691       0.76723995      -0.60583445
12
Frame=9 idx=005303 GeodesicLength=0.5960076529722823 rxn_smarts="[O:1]([C@:2]12[C:3]([H:8])([H:9])[C@@:4]1([H:10])[O:5][C:6]2([H:11])[H:12])[H:7]>>[O:1]([C@:2]1([H:11])[C:3]([H:8])([H:9])[C@:4]1([O+:5]=[C-:6][H:12])[H:10])[H:7]"
O        0.07018313      -1.44956875      -1.13811259
C        0.08902494      -0.54074288      -0.10552877
C       -1.16466238      -0.06828641       0.58016026
C       -0.35332579       0.87759516      -0.24537318
O        0.61297383       1.56920455       0.51529613
C        1.69198117       0.71100858       0.39940443
H       -0.22331729      -2.30219172      -0.80593986
H       -2.09802652      -0.36676638       0.11752702
H       -1.17978553       0.04211954       1.65748867
H       -0.65852311       1.32725466      -1.18180117
H        1.09599334      -0.60080148       0.82474071
H        2.11748423       0.80117513      -0.61786166
12
Frame=10 idx=005303 GeodesicLength=0.6620075447727634 rxn_smarts="[O:1]([C@:2]12[C:3]([H:8])([H:9])[C@@:4]1([H:10])[O:5][C:6]2([H:11])[H:12])[H:7]>>[O:1]([C@:2]1([H:11])[C:3]([H:8])([H:9])[C@:4]1([O+:5]=[C-:6][H:12])[H:10])[H:7]"
O        0.06400228      -1.45445065      -1.13503073
C        0.08903021      -0.54589993      -0.09996504
C       -1.16819642      -0.07079961       0.57806523
C       -0.35191473       0.87269836      -0.24416012
O        0.61279954       1.56047257       0.52642070
C        1.69764240       0.71895722       0.38628078
H       -0.23930628      -2.30434549      -0.80466921
H       -2.10186123      -0.36404134       0.11253456
H       -1.18712217       0.04123368       1.65525044
H       -0.64197082       1.32319617      -1.18480667
H        1.10608364      -0.61291077       0.83956069
H        2.12081358       0.83588979      -0.62948062
12
Frame=11 idx=005303 GeodesicLength=0.7278608627936808 rxn_smarts="[O:1]([C@:2]12[C:3]([H:8])([H:9])[C@@:4]1([H:10])[O:5][C:6]2([H:11])[H:12])[H:7]>>[O:1]([C@:2]1([H:11])[C:3]([H:8])([H:9])[C@:4]1([O+:5]=[C-:6][H:12])[H:10])[H:7]"
O        0.05767782      -1.45937002      -1.13195990
C        0.08893832      -0.55112416      -0.09446287
C       -1.17169338      -0.07323441       0.57589669
C       -0.35042429       0.86773488      -0.24306431
O        0.61301591       1.55140389       0.53717797
C        1.70315453       0.72685369       0.37284846
H       -0.25520128      -2.30644551      -0.80333083
H       -2.10566223      -0.36121983       0.10754171
H       -1.19430683       0.04052755       1.65289309
H       -0.62553792       1.31900739      -1.18759600
H        1.11614451      -0.62539396       0.85460446
H        2.12389484       0.87126048      -0.64054849
12
Frame=12 idx=005303 GeodesicLength=0.793685626149859 rxn_smarts="[O:1]([C@:2]12[C:3]([H:8])([H:9])[C@@:4]1([H:10])[O:5][C:6]2([H:11])[H:12])[H:7]>>[O:1]([C@:2]1([H:11])[C:3]([H:8])([H:9])[C@:4]1([O+:5]=[C-:6][H:12])[H:10])[H:7]"
O        0.05123442      -1.46440510      -1.12892556
C        0.08875445      -0.55646553      -0.08901768
C       -1.17516608      -0.07558496       0.57368243
C       -0.34884012       0.86271148      -0.24210024
O        0.61364671       1.54196293       0.54758516
C        1.70853875       0.73466544       0.35907799
H       -0.27103527      -2.30858442      -0.80194532
H       -2.10944464      -0.35826554       0.10256819
H       -1.20136991       0.04002025       1.65047456
H       -0.60921181       1.31474517      -1.19024012
H        1.12611747      -0.63830561       0.86995179
H        2.12677602       0.90750590      -0.65111119
12
Frame=13 idx=005303 GeodesicLength=0.8595088079342789 rxn_smarts="[O:1]([C@:2]12[C:3]([H:8])([H:9])[C@@:4]1([H:10])[O:5][C:6]2([H:11])[H:12])[H:7]>>[O:1]([C@:2]1([H:11])[C:3]([H:8])([H:9])[C@:4]1([O+:5]=[C-:6][H:12])[H:10])[H:7]"
O        0.04466343      -1.46956587      -1.12592088
C        0.08848630      -0.56192632      -0.08363279
C       -1.17859736      -0.07785422       0.57141571
C       -0.34715571       0.85761845      -0.24127400
O        0.61470268       1.53215334       0.55764687
C        1.71380010       0.74241718       0.34493258
H       -0.28687418      -2.31075798      -0.80051955
H       -2.11319484      -0.35518314       0.09760450
H       -1.20829119       0.03972127       1.64798333
H       -0.59299614       1.31037548      -1.19275755
H        1.13603109      -0.65165549       0.88562294
H        2.12942581       0.94465730      -0.66110115
12
Frame=14 idx=005303 GeodesicLength=0.9252646013506352 rxn_smarts="[O:1]([C@:2]12[C:3]([H:8])([H:9])[C@@:4]1([H:10])[O:5][C:6]2([H:11])[H:12])[H:7]>>[O:1]([C@:2]1([H:11])[C:3]([H:8])([H:9])[C@:4]1([O+:5]=[C-:6][H:12])[H:10])[H:7]"
O        0.03796671      -1.47484281      -1.12292859
C        0.08814395      -0.56749773      -0.07831266
C       -1.18197580      -0.08004340       0.56909136
C       -0.34536842       0.85244682      -0.24058953
O        0.61618216       1.52195946       0.56735100
C        1.71894079       0.75011559       0.33037237
H       -0.30274788      -2.31293507      -0.79903610
H       -2.11690300      -0.35196676       0.09265580
H       -1.21505513       0.03963128       1.64540609
H       -0.57689542       1.30585963      -1.19516331
H        1.14588595      -0.66545939       0.90160101
H        2.13182610       0.98273240      -0.67044744
12
Frame=15 idx=005303 GeodesicLength=0.9909982241348386 rxn_smarts="[O:1]([C@:2]12[C:3]([H:8])([H:9])[C@@:4]1([H:10])[O:5][C:6]2([H:11])[H:12])[H:7]>>[O:1]([C@:2]1([H:11])[C:3]([H:8])([H:9])[C@:4]1([O+:5]=[C-:6][H:12])[H:10])[H:7]"
O        0.03112968      -1.48024221      -1.11996596
C        0.08772391      -0.57318180      -0.07307023
C       -1.18529535      -0.08214752       0.56671336
C       -0.34347486       0.84719929      -0.24005770
O        0.61810387       1.51138425       0.57668196
C        1.72396861       0.75778178       0.31536092
H       -0.31863855      -2.31513903      -0.79749845
H       -2.12056817      -0.34862194       0.08773436
H       -1.22164457       0.03975701       1.64274905
H       -0.56093574       1.30121670      -1.19747361
H        1.15565075      -0.67973432       0.91793134
H        2.13398042       1.02172779      -0.67910505
12
Frame=16 idx=005303 GeodesicLength=1.0567070858393357 rxn_smarts="[O:1]([C@:2]12[C:3]([H:8])([H:9])[C@@:4]1([H:10])[O:5][C:6]2([H:11])[H:12])[H:7]>>[O:1]([C@:2]1([H:11])[C:3]([H:8])([H:9])[C@:4]1([O+:5]=[C-:6][H:12])[H:10])[H:7]"
O        0.02414851      -1.48577990      -1.11702745
C        0.08723430      -0.57898083      -0.06791193
C       -1.18854012      -0.08416652       0.56428160
C       -0.34147000       0.84187322      -0.23968976
O        0.62047429       1.50042777       0.58562408
C        1.72888083       0.76543711       0.29985551
H       -0.33459644      -2.31737078      -0.79590227
H       -2.12417706      -0.34514315       0.08284757
H       -1.22803801       0.04010407       1.64001372
H       -0.54512026       1.29641823      -1.19971921
H        1.16532674      -0.69451043       0.93461502
H        2.13587724       1.06169120      -0.68698690
