14
Frame=0 idx=002157 GeodesicLength=0.0 rxn_smarts="[C:1]([C:2]([C:3]([O:4][C:5](=[O:6])[H:14])([H:12])[H:13])([H:10])[H:11])([H:7])([H:8])[H:9]>>[C-:3](=[O+:4][C:5](=[O:6])[H:14])[H:13].[C:1]([C:2]([H:10])([H:11])[H:12])([H:7])([H:8])[H:9]"
C       -1.98504420       0.22339161      -0.37672294
C       -0.78956981       0.38744662       0.52825951
C        0.62524642      -1.29908526       0.19133315
O        1.80946710      -0.77336136       0.66391100
C        2.52294768       0.10025993      -0.09521910
O        2.15871235       0.60125905      -1.11147173
H       -2.63642064      -0.58462600      -0.03991457
H       -2.57742973       1.14116870      -0.39470134
H       -1.68028960       0.00753448      -1.40149934
H       -1.04492473       0.62490557       1.56373026
H       -0.05091201       1.09122980       0.16128191
H       -0.36835502      -0.75595320       0.79816695
H        0.52059606      -1.03594856      -0.86936815
H        3.49597613       0.27177860       0.38221436
14
Frame=1 idx=002157 GeodesicLength=0.06574624916016959 rxn_smarts="[C:1]([C:2]([C:3]([O:4][C:5](=[O:6])[H:14])([H:12])[H:13])([H:10])[H:11])([H:7])([H:8])[H:9]>>[C-:3](=[O+:4][C:5](=[O:6])[H:14])[H:13].[C:1]([C:2]([H:10])([H:11])[H:12])([H:7])([H:8])[H:9]"
C       -1.98699892       0.22427185      -0.37818625
C       -0.79671113       0.38229046       0.53655515
C        0.62906853      -1.28171352       0.19092399
O        1.81064108      -0.75590033       0.66724562
C        2.53681360       0.09678339      -0.10487548
O        2.18346142       0.57779322      -1.13430057
H       -2.63907550      -0.58776415      -0.05244841
H       -2.58166393       1.14052280      -0.39328110
H       -1.67427568       0.01705037      -1.40249152
H       -1.06295547       0.62201982       1.56888975
H       -0.06736995       1.10274228       0.18130410
H       -0.38305553      -0.77360832       0.81830027
H        0.52439451      -1.03526989      -0.87357991
H        3.50772697       0.27078201       0.37594436
14
Frame=2 idx=002157 GeodesicLength=0.1316038411987876 rxn_smarts="[C:1]([C:2]([C:3]([O:4][C:5](=[O:6])[H:14])([H:12])[H:13])([H:10])[H:11])([H:7])([H:8])[H:9]>>[C-:3](=[O+:4][C:5](=[O:6])[H:14])[H:13].[C:1]([C:2]([H:10])([H:11])[H:12])([H:7])([H:8])[H:9]"
C       -1.98902252       0.22532713      -0.37956016
C       -0.80412893       0.37735043       0.54507339
C        0.63270742      -1.26341493       0.19072144
O        1.81172056      -0.73734503       0.67038962
C        2.55097883       0.09313689      -0.11471137
O        2.20968534       0.55151491      -1.15823146
H       -2.64120367      -0.59126930      -0.06550717
H       -2.58653545       1.13967657      -0.39127114
H       -1.66812179       0.02758607      -1.40336272
H       -1.08151940       0.61823679       1.57434759
H       -0.08470200       1.11467036       0.20212286
H       -0.39748626      -0.79122906       0.83762699
H        0.52825223      -1.03468974      -0.87758696
H        3.51937564       0.27044891       0.36994909
14
Frame=3 idx=002157 GeodesicLength=0.19750898691405297 rxn_smarts="[C:1]([C:2]([C:3]([O:4][C:5](=[O:6])[H:14])([H:12])[H:13])([H:10])[H:11])([H:7])([H:8])[H:9]>>[C-:3](=[O+:4][C:5](=[O:6])[H:14])[H:13].[C:1]([C:2]([H:10])([H:11])[H:12])([H:7])([H:8])[H:9]"
C       -1.99108972       0.22667179      -0.38070881
C       -0.81165862       0.37256786       0.55374588
C        0.63609270      -1.24438170       0.19038704
O        1.81271031      -0.71808033       0.67297885
C        2.56556896       0.08876426      -0.12502408
O        2.23768751       0.52169589      -1.18338610
H       -2.64292029      -0.59480572      -0.07875701
H       -2.59180628       1.13884959      -0.38857500
H       -1.66199982       0.03908203      -1.40397144
H       -1.10026995       0.61350408       1.58006821
H       -0.10270283       1.12682003       0.22360464
H       -0.41157646      -0.80894994       0.85598437
H        0.53205475      -1.03427369      -0.88162625
H        3.52990974       0.27253583       0.36527971
14
Frame=4 idx=002157 GeodesicLength=0.26345398334118725 rxn_smarts="[C:1]([C:2]([C:3]([O:4][C:5](=[O:6])[H:14])([H:12])[H:13])([H:10])[H:11])([H:7])([H:8])[H:9]>>[C-:3](=[O+:4][C:5](=[O:6])[H:14])[H:13].[C:1]([C:2]([H:10])([H:11])[H:12])([H:7])([H:8])[H:9]"
C       -1.99327347       0.22822822      -0.38172057
C       -0.81944313       0.36797271       0.56262754
C        0.63930300      -1.22441883       0.18999927
O        1.81360994      -0.69771024       0.67520172
C        2.58054992       0.08405536      -0.13554453
O        2.26743862       0.48843008      -1.20935733
H       -2.64425596      -0.59850566      -0.09235950
H       -2.59761310       1.13792174      -0.38536273
H       -1.65590065       0.05148673      -1.40437425
H       -1.11943613       0.60778257       1.58611077
H       -0.12160413       1.13932086       0.24594140
H       -0.42532337      -0.82675158       0.87340944
H        0.53586028      -1.03381958      -0.88559967
H        3.54008819       0.27600762       0.36102846
14
Frame=5 idx=002157 GeodesicLength=0.32946774807284707 rxn_smarts="[C:1]([C:2]([C:3]([O:4][C:5](=[O:6])[H:14])([H:12])[H:13])([H:10])[H:11])([H:7])([H:8])[H:9]>>[C-:3](=[O+:4][C:5](=[O:6])[H:14])[H:13].[C:1]([C:2]([H:10])([H:11])[H:12])([H:7])([H:8])[H:9]"
C       -1.99569625       0.22993658      -0.38256251
C       -0.82760801       0.36359578       0.57166533
C        0.64247163      -1.20330656       0.18942882
O        1.81440272      -0.67595787       0.67706125
C        2.59592873       0.07926390      -0.14604121
O        2.29916164       0.45159129      -1.23581229
H       -2.64526924      -0.60236487      -0.10616106
H       -2.60412575       1.13681174      -0.38168262
H       -1.64998570       0.06463356      -1.40449608
H       -1.13913749       0.60105393       1.59241052
H       -0.14168389       1.15221734       0.26909159
H       -0.43864388      -0.84460747       0.88978396
H        0.53986155      -1.03299779      -0.88954724
H        3.55032394       0.28013043       0.35686155
14
Frame=6 idx=002157 GeodesicLength=0.3954824254374329 rxn_smarts="[C:1]([C:2]([C:3]([O:4][C:5](=[O:6])[H:14])([H:12])[H:13])([H:10])[H:11])([H:7])([H:8])[H:9]>>[C-:3](=[O+:4][C:5](=[O:6])[H:14])[H:13].[C:1]([C:2]([H:10])([H:11])[H:12])([H:7])([H:8])[H:9]"
C       -1.99834331       0.23185256      -0.38319975
C       -0.83610721       0.35940209       0.58087232
C        0.64552586      -1.18103707       0.18856340
O        1.81508189      -0.65282485       0.67837865
C        2.61182424       0.07408153      -0.15674538
O        2.33305711       0.41058444      -1.26256500
H       -2.64599789      -0.60629599      -0.12017123
H       -2.61127010       1.13555479      -0.37745924
H       -1.64426613       0.07864480      -1.40429534
H       -1.15930669       0.59322127       1.59898001
H       -0.16285934       1.16541101       0.29313647
H       -0.45152350      -0.86256287       0.90505366
H        0.54394276      -1.03180041      -0.89352320
H        3.56024232       0.28576870       0.35297464
14
Frame=7 idx=002157 GeodesicLength=0.46158709069045734 rxn_smarts="[C:1]([C:2]([C:3]([O:4][C:5](=[O:6])[H:14])([H:12])[H:13])([H:10])[H:11])([H:7])([H:8])[H:9]>>[C-:3](=[O+:4][C:5](=[O:6])[H:14])[H:13].[C:1]([C:2]([H:10])([H:11])[H:12])([H:7])([H:8])[H:9]"
C       -2.00131447       0.23393563      -0.38366006
C       -0.84504608       0.35542443       0.59026814
C        0.64855492      -1.15742526       0.18737394
O        1.81566097      -0.62797462       0.67919068
C        2.62829064       0.06868702      -0.16753551
O        2.36920127       0.36525480      -1.28926535
H       -2.64646949      -0.61038239      -0.13442415
H       -2.61922202       1.13408026      -0.37274636
H       -1.63883852       0.09349974      -1.40380534
H       -1.18007049       0.58424473       1.60586181
H       -0.18536439       1.17898800       0.31815973
H       -0.46387794      -0.88061830       0.91919116
H        0.54819169      -1.03001877      -0.89754929
H        3.57030391       0.29230475       0.34894061
14
Frame=8 idx=002157 GeodesicLength=0.5277148357594508 rxn_smarts="[C:1]([C:2]([C:3]([O:4][C:5](=[O:6])[H:14])([H:12])[H:13])([H:10])[H:11])([H:7])([H:8])[H:9]>>[C-:3](=[O+:4][C:5](=[O:6])[H:14])[H:13].[C:1]([C:2]([H:10])([H:11])[H:12])([H:7])([H:8])[H:9]"
C       -2.00445238       0.23625465      -0.38399107
C       -0.85439744       0.35165063       0.59995424
C        0.65148050      -1.13247199       0.18594748
O        1.81607459      -0.60119985       0.67940527
C        2.64531765       0.06277346      -0.17866524
O        2.40742501       0.31512195      -1.31571097
H       -2.64644115      -0.61471197      -0.14925014
H       -2.62787694       1.13238710      -0.36748819
H       -1.63343592       0.10956396      -1.40304394
H       -1.20150345       0.57399666       1.61313174
H       -0.20917074       1.19295568       0.34444567
H       -0.47568710      -0.89884522       0.93226384
H        0.55244214      -1.02780898      -0.90153229
H        3.58022523       0.30033392       0.34453360
14
Frame=9 idx=002157 GeodesicLength=0.5938452571377135 rxn_smarts="[C:1]([C:2]([C:3]([O:4][C:5](=[O:6])[H:14])([H:12])[H:13])([H:10])[H:11])([H:7])([H:8])[H:9]>>[C-:3](=[O+:4][C:5](=[O:6])[H:14])[H:13].[C:1]([C:2]([H:10])([H:11])[H:12])([H:7])([H:8])[H:9]"
C       -2.00810052       0.23873547      -0.38403128
C       -0.86424417       0.34810127       0.60972644
C        0.65446265      -1.10580316       0.18380904
O        1.81637105      -0.57230134       0.67879262
C        2.66309224       0.05651772      -0.18982483
O        2.44836732       0.25952267      -1.34110602
H       -2.64621321      -0.61913934      -0.16412328
H       -2.63759481       1.13036904      -0.36156194
H       -1.62869682       0.12649596      -1.40184347
H       -1.22344327       0.56245196       1.62058515
H       -0.23459863       1.20722607       0.37165561
H       -0.48670813      -0.91714504       0.94387191
H        0.55697989      -1.02445306      -0.90578595
H        3.59032642       0.30942178       0.33983601
14
Frame=10 idx=002157 GeodesicLength=0.6599615929984031 rxn_smarts="[C:1]([C:2]([C:3]([O:4][C:5](=[O:6])[H:14])([H:12])[H:13])([H:10])[H:11])([H:7])([H:8])[H:9]>>[C-:3](=[O+:4][C:5](=[O:6])[H:14])[H:13].[C:1]([C:2]([H:10])([H:11])[H:12])([H:7])([H:8])[H:9]"
C       -2.01222524       0.24141785      -0.38376550
C       -0.87459058       0.34478492       0.61961317
C        0.65749853      -1.07730911       0.18086693
O        1.81649879      -0.54103093       0.67716706
C        2.68169851       0.04953840      -0.20114529
O        2.49202962       0.19788922      -1.36492769
H       -2.64563988      -0.62370184      -0.17916959
H       -2.64841392       1.12800009      -0.35484395
H       -1.62457991       0.14450508      -1.40018325
H       -1.24590897       0.54951990       1.62824479
H       -0.26174556       1.22178758       0.39993141
H       -0.49680850      -0.93553266       0.95393329
H        0.56179918      -1.01987417      -0.91037576
H        3.60038793       0.32000567       0.33465436
14
Frame=11 idx=002157 GeodesicLength=0.7261664036373191 rxn_smarts="[C:1]([C:2]([C:3]([O:4][C:5](=[O:6])[H:14])([H:12])[H:13])([H:10])[H:11])([H:7])([H:8])[H:9]>>[C-:3](=[O+:4][C:5](=[O:6])[H:14])[H:13].[C:1]([C:2]([H:10])([H:11])[H:12])([H:7])([H:8])[H:9]"
C       -2.01698170       0.24426903      -0.38320879
C       -0.88549048       0.34169450       0.62961675
C        0.66054412      -1.04675887       0.17704133
O        1.81650765      -0.50701600       0.67438742
C        2.70142152       0.04159928      -0.21269205
O        2.53852846       0.13001086      -1.38631642
H       -2.64491363      -0.62844533      -0.19439582
H       -2.66050057       1.12516318      -0.34733658
H       -1.62127372       0.16364055      -1.39812294
H       -1.26892825       0.53507911       1.63615138
H       -0.29067811       1.23660630       0.42932333
H       -0.50594880      -0.95397315       0.96240960
H        0.56688586      -1.01382976      -0.91541431
H        3.61082764       0.33196029       0.32855708
14
Frame=12 idx=002157 GeodesicLength=0.7920895401793984 rxn_smarts="[C:1]([C:2]([C:3]([O:4][C:5](=[O:6])[H:14])([H:12])[H:13])([H:10])[H:11])([H:7])([H:8])[H:9]>>[C-:3](=[O+:4][C:5](=[O:6])[H:14])[H:13].[C:1]([C:2]([H:10])([H:11])[H:12])([H:7])([H:8])[H:9]"
C       -2.02224110       0.24714166      -0.38243654
C       -0.89699201       0.33894932       0.63971294
C        0.66369128      -1.01371313       0.17242760
O        1.81625080      -0.46926655       0.67029756
C        2.72203803       0.03294919      -0.22434530
O        2.58678353       0.05625867      -1.40425187
H       -2.64344579      -0.63381932      -0.21014775
H       -2.67401723       1.12149424      -0.33906159
H       -1.61863421       0.18406569      -1.39560002
H       -1.29258824       0.51911372       1.64414241
H       -0.32183909       1.25193149       0.45996671
H       -0.51375596      -0.97231304       0.96925231
H        0.57227442      -1.00608790      -0.92071101
H        3.62247556       0.34329598       0.32075455
14
Frame=13 idx=002157 GeodesicLength=0.8580173353006502 rxn_smarts="[C:1]([C:2]([C:3]([O:4][C:5](=[O:6])[H:14])([H:12])[H:13])([H:10])[H:11])([H:7])([H:8])[H:9]>>[C-:3](=[O+:4][C:5](=[O:6])[H:14])[H:13].[C:1]([C:2]([H:10])([H:11])[H:12])([H:7])([H:8])[H:9]"
C       -2.02837554       0.25012347      -0.38123031
C       -0.90895833       0.33645668       0.64970791
C        0.66691318      -0.97821327       0.16631427
O        1.81586376      -0.42832743       0.66439608
C        2.74413370       0.02237457      -0.23588931
O        2.63762550      -0.02404105      -1.41789450
H       -2.64199290      -0.63924079      -0.22553397
H       -2.68900676       1.11726544      -0.32984086
H       -1.61747187       0.20534402      -1.39264158
H       -1.31633625       0.50158610       1.65224540
H       -0.35503586       1.26736334       0.49136779
H       -0.52005195      -0.99061161       0.97407853
H        0.57816565      -0.99614593      -0.92704622
H        3.63452766       0.35606647       0.31196675
14
Frame=14 idx=002157 GeodesicLength=0.9241116292802896 rxn_smarts="[C:1]([C:2]([C:3]([O:4][C:5](=[O:6])[H:14])([H:12])[H:13])([H:10])[H:11])([H:7])([H:8])[H:9]>>[C-:3](=[O+:4][C:5](=[O:6])[H:14])[H:13].[C:1]([C:2]([H:10])([H:11])[H:12])([H:7])([H:8])[H:9]"
C       -2.03509988       0.25315433      -0.37998721
C       -0.92179784       0.33436485       0.66010109
C        0.67023174      -0.93939543       0.15955720
O        1.81533780      -0.38169406       0.65635988
C        2.76805203       0.00947278      -0.24779938
O        2.68946604      -0.11130956      -1.42648437
H       -2.63927338      -0.64582880      -0.24273035
H       -2.70622294       1.11146770      -0.31942071
H       -1.61667919       0.22931168      -1.38931272
H       -1.34137918       0.48200502       1.66065335
H       -0.39082464       1.28323567       0.52490618
H       -0.52477471      -1.00848382       0.97741112
H        0.58420586      -0.98451139      -0.93347835
H        3.64875829       0.36821103       0.30022427
14
Frame=15 idx=002157 GeodesicLength=0.9893251539718275 rxn_smarts="[C:1]([C:2]([C:3]([O:4][C:5](=[O:6])[H:14])([H:12])[H:13])([H:10])[H:11])([H:7])([H:8])[H:9]>>[C-:3](=[O+:4][C:5](=[O:6])[H:14])[H:13].[C:1]([C:2]([H:10])([H:11])[H:12])([H:7])([H:8])[H:9]"
C       -2.04308246       0.25595469      -0.37773622
C       -0.93467382       0.33258893       0.66959042
C        0.67365792      -0.89715977       0.14966939
O        1.81425869      -0.33113026       0.64508035
C        2.79289873      -0.00500495      -0.25830962
O        2.74377996      -0.20624983      -1.42721560
H       -2.63664190      -0.65252338      -0.25788022
H       -2.72505761       1.10474990      -0.30745376
H       -1.61903578       0.25315582      -1.38503967
H       -1.36484647       0.46081665       1.66838796
H       -0.42911683       1.29915625       0.55785203
H       -0.52667461      -1.02609725       0.97732838
H        0.59116135      -0.96825900      -0.94230762
H        3.66337284       0.38000221       0.28803418
14
Frame=16 idx=002157 GeodesicLength=1.0544093013799918 rxn_smarts="[C:1]([C:2]([C:3]([O:4][C:5](=[O:6])[H:14])([H:12])[H:13])([H:10])[H:11])([H:7])([H:8])[H:9]>>[C-:3](=[O+:4][C:5](=[O:6])[H:14])[H:13].[C:1]([C:2]([H:10])([H:11])[H:12])([H:7])([H:8])[H:9]"
C       -2.05227910       0.25880336      -0.37476323
C       -0.94774092       0.33104384       0.67871337
C        0.67712632      -0.85135450       0.13689075
O        1.81301250      -0.27566068       0.62996757
C        2.81945401      -0.02274373      -0.26753870
O        2.80006385      -0.31093121      -1.41870218
H       -2.63383959      -0.65955329      -0.27268802
H       -2.74599105       1.09689221      -0.29347076
H       -1.62389006       0.27852488      -1.38012127
H       -1.38744606       0.43739149       1.67603734
H       -0.46973138       1.31494103       0.59166522
H       -0.52587254      -1.04346215       0.97397991
H        0.59881154      -0.94790988      -0.95356951
H        3.67832247       0.39401863       0.27359952
