13
Frame=0 idx=003974 GeodesicLength=0.0 rxn_smarts="[C:1]([C@@:2]1([H:9])[C:3]([H:10])([H:11])[C@:4]1([O:5][H:13])[H:12])([H:6])([H:7])[H:8]>>[C:1]([O:5][H:13])([H:6])([H:7])[H:8].[C:2]1([H:9])=[C:4]([H:12])[C:3]1([H:10])[H:11]"
C        1.44227395       0.88254361      -0.09642080
C       -0.51270489      -0.30221897      -1.00669068
C       -0.57736956      -1.45639762      -0.04227683
C       -0.99239210      -0.07446533       0.31640813
O        0.02276907       0.66908612       1.10248525
H        1.93318170       1.38438868       0.73477497
H        1.25204988       1.51153669      -0.95090979
H        1.87419418      -0.07479951      -0.33885273
H       -1.13330313      -0.25388072      -1.89438036
H        0.34606967      -1.84632761       0.38398633
H       -1.36550758      -2.20555641      -0.09617923
H       -1.98542057       0.19514972       0.65906570
H       -0.30384058       1.57094133       1.22899005
13
Frame=1 idx=003974 GeodesicLength=0.10481084552758611 rxn_smarts="[C:1]([C@@:2]1([H:9])[C:3]([H:10])([H:11])[C@:4]1([O:5][H:13])[H:12])([H:6])([H:7])[H:8]>>[C:1]([O:5][H:13])([H:6])([H:7])[H:8].[C:2]1([H:9])=[C:4]([H:12])[C:3]1([H:10])[H:11]"
C        1.43035929       0.87981622      -0.10177473
C       -0.51293344      -0.32173227      -1.00832193
C       -0.57932910      -1.46029872      -0.02579187
C       -1.01248738      -0.07582778       0.30159852
O        0.00350041       0.69119931       1.09785873
H        1.96216724       1.29721943       0.75069278
H        1.25455736       1.57898496      -0.90442468
H        1.88444246      -0.04008395      -0.43579203
H       -1.11497540      -0.29435980      -1.90929769
H        0.34269415      -1.83725210       0.41437490
H       -1.35953424      -2.21784002      -0.07353317
H       -2.00742133       0.20598929       0.62701523
H       -0.29104003       1.59418543       1.26739595
13
Frame=2 idx=003974 GeodesicLength=0.20962975956662191 rxn_smarts="[C:1]([C@@:2]1([H:9])[C:3]([H:10])([H:11])[C@:4]1([O:5][H:13])[H:12])([H:6])([H:7])[H:8]>>[C:1]([O:5][H:13])([H:6])([H:7])[H:8].[C:2]1([H:9])=[C:4]([H:12])[C:3]1([H:10])[H:11]"
C        1.41834246       0.87606415      -0.10814487
C       -0.51315660      -0.34189887      -1.01002798
C       -0.58079873      -1.46361945      -0.00857804
C       -1.03305830      -0.07753341       0.28581543
O       -0.01721499       0.71567042       1.09138593
H        1.98568670       1.20267035       0.76095118
H        1.26302287       1.64483853      -0.85052044
H        1.89068054       0.00360564      -0.53491844
H       -1.09604706      -0.33678208      -1.92362849
H        0.33972158      -1.82655049       0.44567968
H       -1.35253779      -2.22992220      -0.04920869
H       -2.02969224       0.21641557       0.59322499
H       -0.27494844       1.61704185       1.30796975
13
Frame=3 idx=003974 GeodesicLength=0.3142393838168641 rxn_smarts="[C:1]([C@@:2]1([H:9])[C:3]([H:10])([H:11])[C@:4]1([O:5][H:13])[H:12])([H:6])([H:7])[H:8]>>[C:1]([O:5][H:13])([H:6])([H:7])[H:8].[C:2]1([H:9])=[C:4]([H:12])[C:3]1([H:10])[H:11]"
C        1.40586883       0.87250278      -0.11618810
C       -0.51309888      -0.36312733      -1.01184263
C       -0.58208610      -1.46648051       0.00949931
C       -1.05397904      -0.07964537       0.26882390
O       -0.03922606       0.74252662       1.08261289
H        2.00322108       1.10180463       0.76395683
H        1.27788415       1.70841034      -0.78970508
H        1.89180860       0.05693192      -0.63375670
H       -1.07597886      -0.38146985      -1.93746132
H        0.33673545      -1.81434451       0.47814469
H       -1.34488967      -2.24178140      -0.02334252
H       -2.05209171       0.22661415       0.55711918
H       -0.25416778       1.63805852       1.35213956
13
Frame=4 idx=003974 GeodesicLength=0.4187814615173305 rxn_smarts="[C:1]([C@@:2]1([H:9])[C:3]([H:10])([H:11])[C@:4]1([O:5][H:13])[H:12])([H:6])([H:7])[H:8]>>[C:1]([O:5][H:13])([H:6])([H:7])[H:8].[C:2]1([H:9])=[C:4]([H:12])[C:3]1([H:10])[H:11]"
C        1.39262819       0.86992024      -0.12683448
C       -0.51239727      -0.38590162      -1.01378442
C       -0.58352400      -1.46898745       0.02863277
C       -1.07512013      -0.08220431       0.25030531
O       -0.06236468       0.77196691       1.07091976
H        2.01329835       0.99569412       0.75819693
H        1.30022520       1.76958571      -0.72141075
H        1.88810758       0.12074844      -0.73128817
H       -1.05434052      -0.42889741      -1.95073752
H        0.33321194      -1.80066609       0.51225188
H       -1.33734636      -2.25308941       0.00479461
H       -2.07439817       0.23685109       0.51811612
H       -0.22798013       1.65497979       1.40083795
13
Frame=5 idx=003974 GeodesicLength=0.5228647927934861 rxn_smarts="[C:1]([C@@:2]1([H:9])[C:3]([H:10])([H:11])[C@:4]1([O:5][H:13])[H:12])([H:6])([H:7])[H:8]>>[C:1]([O:5][H:13])([H:6])([H:7])[H:8].[C:2]1([H:9])=[C:4]([H:12])[C:3]1([H:10])[H:11]"
C        1.37815269       0.87000660      -0.14039985
C       -0.51062737      -0.41052825      -1.01575134
C       -0.58545571      -1.47103514       0.04910633
C       -1.09641813      -0.08509287       0.22993204
O       -0.08690384       0.80446199       1.05593606
H        2.01560987       0.88677417       0.74164092
H        1.33005874       1.82701624      -0.64653339
H        1.87858522       0.19457977      -0.82495041
H       -1.03028330      -0.47934529      -1.96345525
H        0.32867905      -1.78521775       0.54849306
H       -1.33026367      -2.26367275       0.03508044
H       -2.09658032       0.24736398       0.47520152
H       -0.19455323       1.66468932       1.45569988
13
Frame=6 idx=003974 GeodesicLength=0.6261739557164158 rxn_smarts="[C:1]([C@@:2]1([H:9])[C:3]([H:10])([H:11])[C@:4]1([O:5][H:13])[H:12])([H:6])([H:7])[H:8]>>[C:1]([O:5][H:13])([H:6])([H:7])[H:8].[C:2]1([H:9])=[C:4]([H:12])[C:3]1([H:10])[H:11]"
C        1.36215625       0.87377830      -0.15708998
C       -0.50745860      -0.43701673      -1.01749969
C       -0.58805298      -1.47229699       0.07120885
C       -1.11777634      -0.08811760       0.20755292
O       -0.11320868       0.84095790       1.03731798
H        2.00944359       0.77754522       0.71281755
H        1.36796242       1.87920422      -0.56515499
H        1.86336384       0.27795564      -0.91354991
H       -1.00340861      -0.53280237      -1.97524367
H        0.32281170      -1.76742675       0.58736279
H       -1.32396235      -2.27304498       0.06794330
H       -2.11855892       0.25812035       0.42782026
H       -0.15331132       1.66314379       1.51651461
13
Frame=7 idx=003974 GeodesicLength=0.7281954043603202 rxn_smarts="[C:1]([C@@:2]1([H:9])[C:3]([H:10])([H:11])[C@:4]1([O:5][H:13])[H:12])([H:6])([H:7])[H:8]>>[C:1]([O:5][H:13])([H:6])([H:7])[H:8].[C:2]1([H:9])=[C:4]([H:12])[C:3]1([H:10])[H:11]"
C        1.34469722       0.88189270      -0.17681794
C       -0.50249173      -0.46502208      -1.01852490
C       -0.59140491      -1.47226820       0.09525073
C       -1.13876826      -0.09089618       0.18336369
O       -0.14107055       0.88220598       1.01535063
H        1.99492954       0.67092751       0.67058032
H        1.41368853       1.92382459      -0.47738430
H        1.84292436       0.37039593      -0.99642576
H       -0.97332088      -0.58872726      -1.98543909
H        0.31530275      -1.74669997       0.62930681
H       -1.31888976      -2.28034930       0.10394460
H       -2.13984869       0.26931517       0.37581351
H       -0.10574761       1.64540112       1.58098170
13
Frame=8 idx=003974 GeodesicLength=0.8283286750136531 rxn_smarts="[C:1]([C@@:2]1([H:9])[C:3]([H:10])([H:11])[C@:4]1([O:5][H:13])[H:12])([H:6])([H:7])[H:8]>>[C:1]([O:5][H:13])([H:6])([H:7])[H:8].[C:2]1([H:9])=[C:4]([H:12])[C:3]1([H:10])[H:11]"
C        1.32600344       0.89444186      -0.19790389
C       -0.49584691      -0.49317186      -1.01807118
C       -0.59529544      -1.47042685       0.12094403
C       -1.15888364      -0.09317974       0.15848908
O       -0.17025541       0.92796651       0.99226073
H        1.97335729       0.57118517       0.61590862
H        1.46563189       1.95715278      -0.38588720
H        1.81758985       0.46911349      -1.07091682
H       -0.94052058      -0.64480929      -1.99308892
H        0.30661184      -1.72308152       0.67308145
H       -1.31468144      -2.28519705       0.14193488
H       -2.15996130       0.28035711       0.32072603
H       -0.05374958       1.60964939       1.64252319
13
Frame=9 idx=003974 GeodesicLength=0.9273817267277167 rxn_smarts="[C:1]([C@@:2]1([H:9])[C:3]([H:10])([H:11])[C@:4]1([O:5][H:13])[H:12])([H:6])([H:7])[H:8]>>[C:1]([O:5][H:13])([H:6])([H:7])[H:8].[C:2]1([H:9])=[C:4]([H:12])[C:3]1([H:10])[H:11]"
C        1.30718846       0.91029463      -0.21933293
C       -0.48737650      -0.52044081      -1.01554332
C       -0.59963976      -1.46681129       0.14781102
C       -1.17699465      -0.09471373       0.13412325
O       -0.19803052       0.97580422       0.97113035
H        1.94750254       0.48044125       0.54979885
H        1.52049335       1.97659739      -0.29241223
H        1.78897445       0.57323261      -1.13690942
H       -0.90529230      -0.69931522      -1.99748487
H        0.29683970      -1.69756160       0.71764689
H       -1.31210619      -2.28688482       0.18174721
H       -2.17722978       0.29211641       0.26447569
H       -0.00432880       1.55724097       1.69494951
13
Frame=10 idx=003974 GeodesicLength=1.0261394443367846 rxn_smarts="[C:1]([C@@:2]1([H:9])[C:3]([H:10])([H:11])[C@:4]1([O:5][H:13])[H:12])([H:6])([H:7])[H:8]>>[C:1]([O:5][H:13])([H:6])([H:7])[H:8].[C:2]1([H:9])=[C:4]([H:12])[C:3]1([H:10])[H:11]"
C        1.28861429       0.92778414      -0.23866565
C       -0.47799540      -0.54540965      -1.01085188
C       -0.60396363      -1.46199592       0.17447533
C       -1.19291747      -0.09606469       0.11172941
O       -0.22349797       1.02268105       0.95572457
H        1.91931907       0.40044069       0.47616327
H        1.57519750       1.98041799      -0.20147614
H        1.75808638       0.67866302      -1.19158212
H       -0.86915241      -0.74965156      -1.99856511
H        0.28720909      -1.67197489       0.76005883
H       -1.31018189      -2.28653612       0.22043050
H       -2.19124512       0.30383398       0.20996870
H        0.04052755       1.49781199       1.73259028
13
Frame=11 idx=003974 GeodesicLength=1.125451863744738 rxn_smarts="[C:1]([C@@:2]1([H:9])[C:3]([H:10])([H:11])[C@:4]1([O:5][H:13])[H:12])([H:6])([H:7])[H:8]>>[C:1]([O:5][H:13])([H:6])([H:7])[H:8].[C:2]1([H:9])=[C:4]([H:12])[C:3]1([H:10])[H:11]"
C        1.27128452       0.94500688      -0.25619416
C       -0.46809335      -0.56814070      -1.00468303
C       -0.60790168      -1.45643646       0.20025081
C       -1.20647101      -0.09740658       0.09125139
O       -0.24488959       1.06724511       0.94593595
H        1.89038103       0.32990141       0.39629100
H        1.62727827       1.96894214      -0.11421816
H        1.72713602       0.78543714      -1.23594604
H       -0.83319382      -0.79609255      -1.99687870
H        0.27815818      -1.64693387       0.79973462
H       -1.30898895      -2.28422582       0.25849583
H       -2.20138588       0.31609447       0.15822460
H        0.07668627       1.43660884       1.75773589
13
Frame=12 idx=003974 GeodesicLength=1.224881225038456 rxn_smarts="[C:1]([C@@:2]1([H:9])[C:3]([H:10])([H:11])[C@:4]1([O:5][H:13])[H:12])([H:6])([H:7])[H:8]>>[C:1]([O:5][H:13])([H:6])([H:7])[H:8].[C:2]1([H:9])=[C:4]([H:12])[C:3]1([H:10])[H:11]"
C        1.25482405       0.96094801      -0.27064049
C       -0.45875745      -0.58825928      -0.99772084
C       -0.61099432      -1.45058933       0.22426515
C       -1.21848200      -0.09936569       0.07294301
O       -0.26356180       1.10912611       0.94211792
H        1.86052399       0.26876112       0.31410077
H        1.67590727       1.94374943      -0.03428249
H        1.69697138       0.88948481      -1.26822340
H       -0.79862788      -0.83769947      -1.99339388
H        0.27065693      -1.62304074       0.83527897
H       -1.30699674      -2.28145413       0.29374374
H       -2.20871187       0.32780642       0.11019177
H        0.10724843       1.38053275       1.77161977
13
Frame=13 idx=003974 GeodesicLength=1.3249004868361631 rxn_smarts="[C:1]([C@@:2]1([H:9])[C:3]([H:10])([H:11])[C@:4]1([O:5][H:13])[H:12])([H:6])([H:7])[H:8]>>[C:1]([O:5][H:13])([H:6])([H:7])[H:8].[C:2]1([H:9])=[C:4]([H:12])[C:3]1([H:10])[H:11]"
C        1.23958525       0.97480372      -0.28328489
C       -0.45050255      -0.60625022      -0.99087071
C       -0.61280171      -1.44428468       0.24649144
C       -1.22928373      -0.10184489       0.05615104
O       -0.27944964       1.14954484       0.94183655
H        1.82961804       0.21530384       0.23005979
H        1.72059130       1.90609358       0.03946856
H        1.67007920       0.99164529      -1.28958520
H       -0.76685164      -0.87591348      -1.98871315
H        0.26536026      -1.59959825       0.86675560
H       -1.30372428      -2.27797180       0.32787051
H       -2.21366248       0.33905489       0.06599562
H        0.13104200       1.32941715       1.77782483
13
Frame=14 idx=003974 GeodesicLength=1.4250433537880582 rxn_smarts="[C:1]([C@@:2]1([H:9])[C:3]([H:10])([H:11])[C@:4]1([O:5][H:13])[H:12])([H:6])([H:7])[H:8]>>[C:1]([O:5][H:13])([H:6])([H:7])[H:8].[C:2]1([H:9])=[C:4]([H:12])[C:3]1([H:10])[H:11]"
C        1.22515382       0.98652957      -0.29363795
C       -0.44362780      -0.62236000      -0.98441208
C       -0.61335452      -1.43771464       0.26690813
C       -1.23939272      -0.10503130       0.04074302
O       -0.29351063       1.18864321       0.94504173
H        1.79764577       0.16922753       0.14612645
H        1.76095199       1.85850030       0.10527546
H        1.64626415       1.08979130      -1.29997168
H       -0.73759603      -0.91081956      -1.98351884
H        0.26228069      -1.57667536       0.89428659
H       -1.29876061      -2.27439899       0.36007367
H       -2.21686774       0.34977806       0.02509975
H        0.15081362       1.28452987       1.77798574
13
Frame=15 idx=003974 GeodesicLength=1.5258200049325938 rxn_smarts="[C:1]([C@@:2]1([H:9])[C:3]([H:10])([H:11])[C@:4]1([O:5][H:13])[H:12])([H:6])([H:7])[H:8]>>[C:1]([O:5][H:13])([H:6])([H:7])[H:8].[C:2]1([H:9])=[C:4]([H:12])[C:3]1([H:10])[H:11]"
C        1.21159064       0.99601382      -0.30322656
C       -0.43867110      -0.63685981      -0.97901959
C       -0.61213608      -1.43059798       0.28552707
C       -1.24907240      -0.10885934       0.02640617
O       -0.30572209       1.22774033       0.94955590
H        1.76403616       0.12941471       0.06234404
H        1.79665286       1.80136034       0.16518146
H        1.62874108       1.18452028      -1.29998865
H       -0.71258686      -0.94341654      -1.97811788
H        0.26229995      -1.55355955       0.91760054
H       -1.29134045      -2.27046001       0.39185126
H       -2.21893736       0.35965687      -0.01175087
H        0.16514567       1.24504687       1.77363711
13
Frame=16 idx=003974 GeodesicLength=1.6268438342401799 rxn_smarts="[C:1]([C@@:2]1([H:9])[C:3]([H:10])([H:11])[C@:4]1([O:5][H:13])[H:12])([H:6])([H:7])[H:8]>>[C:1]([O:5][H:13])([H:6])([H:7])[H:8].[C:2]1([H:9])=[C:4]([H:12])[C:3]1([H:10])[H:11]"
C        1.19854662       1.00355347      -0.31169079
C       -0.43536696      -0.65026074      -0.97458534
C       -0.60951555      -1.42311772       0.30264627
C       -1.25851223      -0.11338326       0.01292132
O       -0.31643230       1.26653948       0.95591470
H        1.72919778       0.09565344      -0.02064558
H        1.82720613       1.73704506       0.21820340
H        1.61609219       1.27495885      -1.29019673
H       -0.69057554      -0.97414457      -1.97284122
H        0.26485498      -1.53043583       0.93734831
H       -1.28190698      -2.26629244       0.42288373
H       -2.21988540       0.36927426      -0.04580515
H        0.17629726       1.21060999       1.76584708
