16
Frame=0 idx=002891 GeodesicLength=0.0 rxn_smarts="[C:1]([C@@:2]1([H:10])[C:3]([H:11])([H:12])[C@@:4]2([H:13])[C:5]([H:14])([H:15])[C@@:6]12[H:16])([H:7])([H:8])[H:9]>>[C:1]([C:2]([C:3]([H:11])([H:12])[H:13])([C@@:6]1([H:16])[C:4][C:5]1([H:14])[H:15])[H:10])([H:7])([H:8])[H:9]"
C       -0.97896836      -0.65367703       1.39182751
C       -0.51768881       0.44118038       0.44438977
C        0.96949943       0.79678249       0.51568476
C        0.75384420       0.73890744      -1.52124677
C        0.51890044      -0.73910928      -1.52012861
C       -0.57026188       0.16028232      -1.03509309
H       -0.79959150      -0.37654610       2.43424288
H       -2.04773107      -0.84264887       1.27114791
H       -0.44901294      -1.58855550       1.19666042
H       -1.09051474       1.35067935       0.64264112
H        1.21328064       1.72001962       1.04104777
H        1.65016545      -0.00626214       0.78816182
H        1.40781165       1.27411067      -0.66309816
H        1.02577298      -1.42443111      -0.85095162
H        0.39634748      -1.12815616      -2.52520547
H       -1.48185300       0.27742393      -1.61008020
16
Frame=1 idx=002891 GeodesicLength=0.057528620721913774 rxn_smarts="[C:1]([C@@:2]1([H:10])[C:3]([H:11])([H:12])[C@@:4]2([H:13])[C:5]([H:14])([H:15])[C@@:6]12[H:16])([H:7])([H:8])[H:9]>>[C:1]([C:2]([C:3]([H:11])([H:12])[H:13])([C@@:6]1([H:16])[C:4][C:5]1([H:14])[H:15])[H:10])([H:7])([H:8])[H:9]"
C       -0.97878080      -0.65196724       1.39212575
C       -0.51647131       0.44243912       0.44492226
C        0.97142876       0.79853819       0.51493070
C        0.75313425       0.73237505      -1.51996415
C        0.51524776      -0.74416794      -1.52553014
C       -0.57008262       0.15621016      -1.03466123
H       -0.80206126      -0.37275002       2.43437359
H       -2.04684469      -0.84303005       1.26837743
H       -0.44687998      -1.58642368       1.20011986
H       -1.09067032       1.35167962       0.64044496
H        1.20843732       1.71511922       1.05481663
H        1.65030412      -0.00510151       0.79176439
H        1.41759106       1.29189856      -0.66407906
H        1.02876671      -1.42765623      -0.85934883
H        0.38925708      -1.13274647      -2.53028869
H       -1.48237608       0.27558322      -1.60800348
16
Frame=2 idx=002891 GeodesicLength=0.11505629096745826 rxn_smarts="[C:1]([C@@:2]1([H:10])[C:3]([H:11])([H:12])[C@@:4]2([H:13])[C:5]([H:14])([H:15])[C@@:6]12[H:16])([H:7])([H:8])[H:9]>>[C:1]([C:2]([C:3]([H:11])([H:12])[H:13])([C@@:6]1([H:16])[C:4][C:5]1([H:14])[H:15])[H:10])([H:7])([H:8])[H:9]"
C       -0.97857172      -0.65025712       1.39243020
C       -0.51523922       0.44368555       0.44544454
C        0.97337273       0.80037026       0.51417698
C        0.75257356       0.72570223      -1.51858125
C        0.51153424      -0.74931668      -1.53093445
C       -0.56986441       0.15211021      -1.03422803
H       -0.80452504      -0.36892756       2.43449537
H       -2.04591753      -0.84344067       1.26561091
H       -0.44470392      -1.58427125       1.20362014
H       -1.09082455       1.35265508       0.63821603
H        1.20359248       1.71002985       1.06851088
H        1.65041841      -0.00387093       0.79539658
H        1.42719295       1.31001141      -0.66498744
H        1.03164511      -1.43099003      -0.86780422
H        0.38212242      -1.13734341      -2.53539605
H       -1.48280550       0.27385305      -1.60597018
16
Frame=3 idx=002891 GeodesicLength=0.17258244315646543 rxn_smarts="[C:1]([C@@:2]1([H:10])[C:3]([H:11])([H:12])[C@@:4]2([H:13])[C:5]([H:14])([H:15])[C@@:6]12[H:16])([H:7])([H:8])[H:9]>>[C:1]([C:2]([C:3]([H:11])([H:12])[H:13])([C@@:6]1([H:16])[C:4][C:5]1([H:14])[H:15])[H:10])([H:7])([H:8])[H:9]"
C       -0.97834201      -0.64854694       1.39274038
C       -0.51399172       0.44491977       0.44595717
C        0.97533156       0.80227795       0.51342665
C        0.75215852       0.71888946      -1.51710096
C        0.50776195      -0.75455275      -1.53634117
C       -0.56960632       0.14798217      -1.03379232
H       -0.80698362      -0.36508082       2.43460785
H       -2.04495048      -0.84387922       1.26284835
H       -0.44248733      -1.58209865       1.20715983
H       -1.09097603       1.35360574       0.63595501
H        1.19874699       1.70475587       1.08212067
H        1.65050840      -0.00257159       0.79905908
H        1.43662270       1.32845099      -0.66581701
H        1.03440451      -1.43443577      -0.87631847
H        0.37494371      -1.14194504      -2.54052679
H       -1.48314083       0.27222883      -1.60397827
16
Frame=4 idx=002891 GeodesicLength=0.23010722939786254 rxn_smarts="[C:1]([C@@:2]1([H:10])[C:3]([H:11])([H:12])[C@@:4]2([H:13])[C:5]([H:14])([H:15])[C@@:6]12[H:16])([H:7])([H:8])[H:9]>>[C:1]([C:2]([C:3]([H:11])([H:12])[H:13])([C@@:6]1([H:16])[C:4][C:5]1([H:14])[H:15])[H:10])([H:7])([H:8])[H:9]"
C       -0.97809238      -0.64683676       1.39305589
C       -0.51272807       0.44614191       0.44646046
C        0.97730537       0.80426062       0.51268216
C        0.75188509       0.71193711      -1.51552632
C        0.50393280      -0.75987339      -1.54175023
C       -0.56930774       0.14382558      -1.03335312
H       -0.80943754      -0.36121125       2.43471072
H       -2.04394450      -0.84434414       1.26008980
H       -0.44023248      -1.57990614       1.21073773
H       -1.09112346       1.35453183       0.63366230
H        1.19390117       1.69930052       1.09563773
H        1.65057406      -0.00120448       0.80275190
H        1.44588692       1.34721917      -0.66656077
H        1.03704182      -1.43799655      -0.88489217
H        0.36772104      -1.14654955      -2.54568037
H       -1.48338209       0.27070553      -1.60202571
16
Frame=5 idx=002891 GeodesicLength=0.2876286191513571 rxn_smarts="[C:1]([C@@:2]1([H:10])[C:3]([H:11])([H:12])[C@@:4]2([H:13])[C:5]([H:14])([H:15])[C@@:6]12[H:16])([H:7])([H:8])[H:9]>>[C:1]([C:2]([C:3]([H:11])([H:12])[H:13])([C@@:6]1([H:16])[C:4][C:5]1([H:14])[H:15])[H:10])([H:7])([H:8])[H:9]"
C       -0.97782346      -0.64512657       1.39337648
C       -0.51144759       0.44735207       0.44695470
C        0.97929420       0.80631812       0.51194574
C        0.75174946       0.70484529      -1.51385995
C        0.50004854      -0.76527630      -1.54716136
C       -0.56896804       0.13963966      -1.03290945
H       -0.81188742      -0.35732016       2.43480357
H       -2.04290014      -0.84483415       1.25733554
H       -0.43794150      -1.57769363       1.21435318
H       -1.09126564       1.35543349       0.63133811
H        1.18905531       1.69366493       1.10905321
H        1.65061537       0.00022955       0.80647455
H        1.45499137       1.36631954      -0.66721175
H        1.03955343      -1.44167590      -0.89352539
H        0.36045475      -1.15115486      -2.55085617
H       -1.48352866       0.26927892      -1.60011102
16
Frame=6 idx=002891 GeodesicLength=0.3451512443989327 rxn_smarts="[C:1]([C@@:2]1([H:10])[C:3]([H:11])([H:12])[C@@:4]2([H:13])[C:5]([H:14])([H:15])[C@@:6]12[H:16])([H:7])([H:8])[H:9]>>[C:1]([C:2]([C:3]([H:11])([H:12])[H:13])([C@@:6]1([H:16])[C:4][C:5]1([H:14])[H:15])[H:10])([H:7])([H:8])[H:9]"
C       -0.97753603      -0.64341649       1.39370181
C       -0.51014990       0.44855014       0.44743996
C        0.98129792       0.80844894       0.51121915
C        0.75174710       0.69761387      -1.51210498
C        0.49611086      -0.77075875      -1.55257481
C       -0.56858717       0.13542349      -1.03246051
H       -0.81433404      -0.35340843       2.43488619
H       -2.04181831      -0.84534819       1.25458567
H       -0.43561638      -1.57546156       1.21800534
H       -1.09140154       1.35631059       0.62898252
H        1.18421004       1.68785477       1.12235872
H        1.65063251       0.00172904       0.81022622
H        1.46394568       1.38575551      -0.66776003
H        1.04193606      -1.44547704      -0.90221924
H        0.35314441      -1.15575955      -2.55605382
H       -1.48358121       0.26794367      -1.59823220
16
Frame=7 idx=002891 GeodesicLength=0.40267548837603334 rxn_smarts="[C:1]([C@@:2]1([H:10])[C:3]([H:11])([H:12])[C@@:4]2([H:13])[C:5]([H:14])([H:15])[C@@:6]12[H:16])([H:7])([H:8])[H:9]>>[C:1]([C:2]([C:3]([H:11])([H:12])[H:13])([C@@:6]1([H:16])[C:4][C:5]1([H:14])[H:15])[H:10])([H:7])([H:8])[H:9]"
C       -0.97723090      -0.64170684       1.39403166
C       -0.50883447       0.44973572       0.44791638
C        0.98331665       0.81065105       0.51050402
C        0.75187411       0.69024220      -1.51026369
C        0.49212096      -0.77631893      -1.55799075
C       -0.56816478       0.13117590      -1.03200547
H       -0.81677846      -0.34947725       2.43495820
H       -2.04069982      -0.84588528       1.25184043
H       -0.43325929      -1.57321036       1.22169395
H       -1.09152970       1.35716300       0.62659569
H        1.17936668       1.68187550       1.13554413
H        1.65062609       0.00329200       0.81400636
H        1.47275645       1.40553382      -0.66819564
H        1.04418585      -1.44940441      -0.91097410
H        0.34578982      -1.16036184      -2.56127318
H       -1.48353919       0.26669573      -1.59638798
16
Frame=8 idx=002891 GeodesicLength=0.4601996691473019 rxn_smarts="[C:1]([C@@:2]1([H:10])[C:3]([H:11])([H:12])[C@@:4]2([H:13])[C:5]([H:14])([H:15])[C@@:6]12[H:16])([H:7])([H:8])[H:9]>>[C:1]([C:2]([C:3]([H:11])([H:12])[H:13])([C@@:6]1([H:16])[C:4][C:5]1([H:14])[H:15])[H:10])([H:7])([H:8])[H:9]"
C       -0.97690870      -0.63999765       1.39436593
C       -0.50750105       0.45090857       0.44838391
C        0.98535015       0.81292297       0.50980165
C        0.75212653       0.68272955      -1.50833849
C        0.48808013      -0.78195461      -1.56340944
C       -0.56770101       0.12689571      -1.03154363
H       -0.81922152      -0.34552653       2.43501967
H       -2.03954536      -0.84644515       1.24909962
H       -0.43087145      -1.57094033       1.22541901
H       -1.09164936       1.35799065       0.62417728
H        1.17452613       1.67573181       1.14860143
H        1.65059634       0.00491682       0.81781345
H        1.48143244       1.42565957      -0.66850829
H        1.04629900      -1.45346174      -0.91979098
H        0.33839074      -1.16496028      -2.56651419
H       -1.48340301       0.26553064      -1.59457692
16
Frame=9 idx=002891 GeodesicLength=0.5177172361698752 rxn_smarts="[C:1]([C@@:2]1([H:10])[C:3]([H:11])([H:12])[C@@:4]2([H:13])[C:5]([H:14])([H:15])[C@@:6]12[H:16])([H:7])([H:8])[H:9]>>[C:1]([C:2]([C:3]([H:11])([H:12])[H:13])([C@@:6]1([H:16])[C:4][C:5]1([H:14])[H:15])[H:10])([H:7])([H:8])[H:9]"
C       -0.97657009      -0.63828932       1.39470459
C       -0.50614929       0.45206810       0.44884264
C        0.98739839       0.81526258       0.50911348
C        0.75250118       0.67507459      -1.50633081
C        0.48398946      -0.78766406      -1.56883118
C       -0.56719572       0.12258149      -1.03107423
H       -0.82166425      -0.34155735       2.43507029
H       -2.03835559      -0.84702729       1.24636366
H       -0.42845472      -1.56865192       1.22918063
H       -1.09175932       1.35879325       0.62172727
H        1.16969015       1.66942995       1.16151864
H        1.65054372       0.00660115       0.82164635
H        1.48997958       1.44614000      -0.66868639
H        1.04827137      -1.45765365      -0.92867009
H        0.33094698      -1.16955290      -2.57177672
H       -1.48317185       0.26444539      -1.59279814
16
Frame=10 idx=002891 GeodesicLength=0.5752385703377142 rxn_smarts="[C:1]([C@@:2]1([H:10])[C:3]([H:11])([H:12])[C@@:4]2([H:13])[C:5]([H:14])([H:15])[C@@:6]12[H:16])([H:7])([H:8])[H:9]>>[C:1]([C:2]([C:3]([H:11])([H:12])[H:13])([C@@:6]1([H:16])[C:4][C:5]1([H:14])[H:15])[H:10])([H:7])([H:8])[H:9]"
C       -0.97621539      -0.63658145       1.39504727
C       -0.50477888       0.45321406       0.44929160
C        0.98946128       0.81766831       0.50843883
C        0.75299351       0.66727503      -1.50424437
C        0.47984927      -0.79344657      -1.57425667
C       -0.56664946       0.11823131      -1.03059732
H       -0.82410658      -0.33756916       2.43510928
H       -2.03713090      -0.84763043       1.24363322
H       -0.42601050      -1.56634480       1.23297881
H       -1.09185842       1.35957078       0.61924436
H        1.16485896       1.66297225       1.17429103
H        1.65046915       0.00834368       0.82550174
H        1.49840813       1.46698716      -0.66871433
H        1.05009938      -1.46198468      -0.93761200
H        0.32345711      -1.17414008      -2.57706068
H       -1.48284668       0.26343460      -1.59105077
16
Frame=11 idx=002891 GeodesicLength=0.6327622962291287 rxn_smarts="[C:1]([C@@:2]1([H:10])[C:3]([H:11])([H:12])[C@@:4]2([H:13])[C:5]([H:14])([H:15])[C@@:6]12[H:16])([H:7])([H:8])[H:9]>>[C:1]([C:2]([C:3]([H:11])([H:12])[H:13])([C@@:6]1([H:16])[C:4][C:5]1([H:14])[H:15])[H:10])([H:7])([H:8])[H:9]"
C       -0.97584514      -0.63487410       1.39539395
C       -0.50338961       0.45434572       0.44973026
C        0.99153867       0.82013774       0.50777780
C        0.75359991       0.65932854      -1.50208123
C        0.47565976      -0.79930150      -1.57968633
C       -0.56606261       0.11384318      -1.03011260
H       -0.82654905      -0.33356184       2.43513637
H       -2.03587191      -0.84825411       1.24090878
H       -0.42354016      -1.56401923       1.23681394
H       -1.09194563       1.36032304       0.61672764
H        1.16003403       1.65636430       1.18691002
H        1.65037346       0.01014222       0.82937698
H        1.50672627       1.48821212      -0.66857775
H        1.05177896      -1.46645975      -0.94661727
H        0.31592040      -1.17872102      -2.58236639
H       -1.48242736       0.26249467      -1.58933415
16
Frame=12 idx=002891 GeodesicLength=0.6902913851824117 rxn_smarts="[C:1]([C@@:2]1([H:10])[C:3]([H:11])([H:12])[C@@:4]2([H:13])[C:5]([H:14])([H:15])[C@@:6]12[H:16])([H:7])([H:8])[H:9]>>[C:1]([C:2]([C:3]([H:11])([H:12])[H:13])([C@@:6]1([H:16])[C:4][C:5]1([H:14])[H:15])[H:10])([H:7])([H:8])[H:9]"
C       -0.97545962      -0.63316700       1.39574442
C       -0.50198117       0.45546248       0.45015760
C        0.99363068       0.82266847       0.50712946
C        0.75431703       0.65123158      -1.49984399
C        0.47142074      -0.80522883      -1.58512102
C       -0.56543569       0.10941489      -1.02962017
H       -0.82899187      -0.32953459       2.43515089
H       -2.03457883      -0.84889780       1.23819080
H       -0.42104475      -1.56167519       1.24068658
H       -1.09201970       1.36104970       0.61417562
H        1.15521739       1.64961075       1.19936665
H        1.65025774       0.01199437       0.83326857
H        1.51494137       1.50982990      -0.66825696
H        1.05330544      -1.47108457      -0.95568625
H        0.30833530      -1.18329591      -2.58769405
H       -1.48191405       0.26162174      -1.58764814
16
Frame=13 idx=002891 GeodesicLength=0.7478212586885091 rxn_smarts="[C:1]([C@@:2]1([H:10])[C:3]([H:11])([H:12])[C@@:4]2([H:13])[C:5]([H:14])([H:15])[C@@:6]12[H:16])([H:7])([H:8])[H:9]>>[C:1]([C:2]([C:3]([H:11])([H:12])[H:13])([C@@:6]1([H:16])[C:4][C:5]1([H:14])[H:15])[H:10])([H:7])([H:8])[H:9]"
C       -0.97505898      -0.63146004       1.39609852
C       -0.50055309       0.45656357       0.45057265
C        0.99573750       0.82525769       0.50649271
C        0.75514201       0.64298037      -1.49753481
C        0.46713196      -0.81122877      -1.59056149
C       -0.56476914       0.10494422      -1.02912017
H       -0.83143525      -0.32548658       2.43515223
H       -2.03325192      -0.84956099       1.23547973
H       -0.41852525      -1.55931263       1.24459732
H       -1.09207924       1.36175041       0.61158692
H        1.15041046       1.64271729       1.21165458
H        1.65012346       0.01389785       0.83717339
H        1.52305981       1.53185503      -0.66773528
H        1.05467383      -1.47586500      -0.96481955
H        0.30070038      -1.18786512      -2.59304402
H       -1.48130655       0.26081271      -1.58599272
16
Frame=14 idx=002891 GeodesicLength=0.8053523375399406 rxn_smarts="[C:1]([C@@:2]1([H:10])[C:3]([H:11])([H:12])[C@@:4]2([H:13])[C:5]([H:14])([H:15])[C@@:6]12[H:16])([H:7])([H:8])[H:9]>>[C:1]([C:2]([C:3]([H:11])([H:12])[H:13])([C@@:6]1([H:16])[C:4][C:5]1([H:14])[H:15])[H:10])([H:7])([H:8])[H:9]"
C       -0.97464335      -0.62975288       1.39645614
C       -0.49910508       0.45764815       0.45097408
C        0.99785928       0.82790295       0.50586604
C        0.75607192       0.63457022      -1.49515587
C        0.46279246      -0.81730240      -1.59600855
C       -0.56406361       0.10042858      -1.02861295
H       -0.83387929      -0.32141646       2.43513975
H       -2.03189130      -0.85024332       1.23277609
H       -0.41598230      -1.55693131       1.24854728
H       -1.09212292       1.36242493       0.60895953
H        1.14561537       1.63568737       1.22376529
H        1.64997184       0.01585023       0.84108689
H        1.53108817       1.55430607      -0.66699165
H        1.05587947      -1.48080750      -0.97401715
H        0.29301381      -1.19242930      -2.59841677
H       -1.48060446       0.26006468      -1.58436816
16
Frame=15 idx=002891 GeodesicLength=0.8628833557761161 rxn_smarts="[C:1]([C@@:2]1([H:10])[C:3]([H:11])([H:12])[C@@:4]2([H:13])[C:5]([H:14])([H:15])[C@@:6]12[H:16])([H:7])([H:8])[H:9]>>[C:1]([C:2]([C:3]([H:11])([H:12])[H:13])([C@@:6]1([H:16])[C:4][C:5]1([H:14])[H:15])[H:10])([H:7])([H:8])[H:9]"
C       -0.97421266      -0.62804503       1.39681704
C       -0.49763655       0.45871532       0.45136027
C        0.99999647       0.83060130       0.50524714
C        0.75710428       0.62599558      -1.49270955
C        0.45840103      -0.82345125      -1.60146324
C       -0.56331975       0.09586523      -1.02809913
H       -0.83632394      -0.31732244       2.43511252
H       -2.03049682      -0.85094437       1.23008037
H       -0.41341626      -1.55453087       1.25253759
H       -1.09214918       1.36307292       0.60629112
H        1.14083455       1.62852583       1.23569106
H        1.64980459       0.01784877       0.84500442
H        1.53903177       1.57720335      -0.66600216
H        1.05691665      -1.48591916      -0.98327933
H        0.28527331      -1.19698988      -2.60381296
H       -1.47980751       0.25937470      -1.58277515
16
Frame=16 idx=002891 GeodesicLength=0.9204110914226741 rxn_smarts="[C:1]([C@@:2]1([H:10])[C:3]([H:11])([H:12])[C@@:4]2([H:13])[C:5]([H:14])([H:15])[C@@:6]12[H:16])([H:7])([H:8])[H:9]>>[C:1]([C:2]([C:3]([H:11])([H:12])[H:13])([C@@:6]1([H:16])[C:4][C:5]1([H:14])[H:15])[H:10])([H:7])([H:8])[H:9]"
C       -0.97376666      -0.62633598       1.39718098
C       -0.49614689       0.45976415       0.45172941
C        1.00214963       0.83334979       0.50463341
C        0.75823704       0.61725011      -1.49019799
C        0.45395619      -0.82967741      -1.60692655
C       -0.56253817       0.09125136      -1.02757949
H       -0.83876905      -0.31320247       2.43506959
H       -2.02906823      -0.85166387       1.22739293
H       -0.41082729      -1.55211090       1.25656953
H       -1.09215633       1.36369399       0.60357917
H        1.13607077       1.62123717       1.24742395
H        1.64962359       0.01989065       0.84892092
H        1.54689480       1.60056924      -0.66474182
H        1.05777932      -1.49120772      -0.99260620
H        0.27747634      -1.20154866      -2.60923317
H       -1.47891507       0.25874055      -1.58121466
