21
Frame=0 idx=011598 GeodesicLength=0.0 rxn_smarts="[C:1]([C:2]([C:3]([C:4]([C:5]([C:6]([O:7][H:21])([H:19])[H:20])([H:17])[H:18])([H:15])[H:16])([H:13])[H:14])([H:11])[H:12])([H:8])([H:9])[H:10]>>[C:1]([C:2]([C:3]([C:4]([C:5]([C:6](=[O:7])[H:19])([H:17])[H:20])([H:15])[H:16])([H:13])[H:14])([H:11])[H:12])([H:8])([H:9])[H:10].[H:18][H:21]"
C       -3.18265210      -0.02624566       0.69359987
C       -2.08676280       0.00421344      -0.36279129
C       -0.69598581       0.17120524       0.23751708
C        0.39874073       0.18491259      -0.83941311
C        1.74614982       0.37641591      -0.24088671
C        2.87341687      -0.50850333      -0.46779201
O        3.86534636      -0.41608756       0.36144266
H       -4.16705787      -0.14819999       0.23909782
H       -3.19677440       0.89960247       1.27345967
H       -3.03314502      -0.85197328       1.39291203
H       -2.11561504      -0.92011150      -0.94894874
H       -2.27754446       0.81913790      -1.06874308
H       -0.65028891       1.10008366       0.81500396
H       -0.49229351      -0.63931908       0.94262725
H        0.18234973       0.99655332      -1.54161084
H        0.37456389      -0.75664683      -1.39485171
H        2.01613106       1.37136294       0.10278741
H        2.02814653      -0.07418591       1.60122677
H        2.57475131      -1.49885740      -0.85738194
H        2.98665974       0.16160863      -1.41942252
H        2.85186397      -0.24496563       1.48216736
21
Frame=1 idx=011598 GeodesicLength=0.09705730013605329 rxn_smarts="[C:1]([C:2]([C:3]([C:4]([C:5]([C:6]([O:7][H:21])([H:19])[H:20])([H:17])[H:18])([H:15])[H:16])([H:13])[H:14])([H:11])[H:12])([H:8])([H:9])[H:10]>>[C:1]([C:2]([C:3]([C:4]([C:5]([C:6](=[O:7])[H:19])([H:17])[H:20])([H:15])[H:16])([H:13])[H:14])([H:11])[H:12])([H:8])([H:9])[H:10].[H:18][H:21]"
C       -3.18486357      -0.01898475       0.69172205
C       -2.08761372       0.00147717      -0.36350532
C       -0.69683241       0.16735336       0.23716790
C        0.39960496       0.17525212      -0.83680676
C        1.74668825       0.37515017      -0.23583937
C        2.87829376      -0.50574369      -0.47398508
O        3.86771918      -0.41233167       0.35910973
H       -4.16940798      -0.13900113       0.23694804
H       -3.19588587       0.91012359       1.26647074
H       -3.03919162      -0.84140116       1.39574449
H       -2.11889752      -0.92580458      -0.94486990
H       -2.27521111       0.81303644      -1.07424212
H       -0.65070451       1.09814679       0.81170850
H       -0.49542807      -0.64171118       0.94487997
H        0.18458115       0.98108947      -1.54614017
H        0.37483283      -0.76874810      -1.38831668
H        2.00725110       1.37107152       0.11205331
H        2.03137476      -0.07612308       1.60122575
H        2.58553216      -1.49539639      -0.86912304
H        2.96282181       0.19884179      -1.42008851
H        2.87533645      -0.26629670       1.49588646
21
Frame=2 idx=011598 GeodesicLength=0.1936474801310864 rxn_smarts="[C:1]([C:2]([C:3]([C:4]([C:5]([C:6]([O:7][H:21])([H:19])[H:20])([H:17])[H:18])([H:15])[H:16])([H:13])[H:14])([H:11])[H:12])([H:8])([H:9])[H:10]>>[C:1]([C:2]([C:3]([C:4]([C:5]([C:6](=[O:7])[H:19])([H:17])[H:20])([H:15])[H:16])([H:13])[H:14])([H:11])[H:12])([H:8])([H:9])[H:10].[H:18][H:21]"
C       -3.18693514      -0.01185690       0.68984196
C       -2.08841356      -0.00125533      -0.36421559
C       -0.69761141       0.16354546       0.23677077
C        0.40046258       0.16581234      -0.83428572
C        1.74724180       0.37415053      -0.23104224
C        2.88311395      -0.50271934      -0.48034299
O        3.86971937      -0.40878048       0.35706416
H       -4.17162126      -0.12996884       0.23481960
H       -3.19487217       0.92043628       1.25952163
H       -3.04500551      -0.83095557       1.39849612
H       -2.12211654      -0.93142400      -0.94083574
H       -2.27291579       0.80694012      -1.07965117
H       -0.65106905       1.09619821       0.80843529
H       -0.49840494      -0.64409800       0.94699648
H        0.18672284       0.96584875      -1.55060760
H        0.37513238      -0.78056700      -1.38193869
H        1.99838991       1.37095805       0.12101442
H        2.03455319      -0.07747431       1.60112848
H        2.59594226      -1.49181880      -0.88035678
H        2.93871447       0.23523478      -1.42019404
H        2.89897262      -0.28820594       1.50938164
21
Frame=3 idx=011598 GeodesicLength=0.28991659935476 rxn_smarts="[C:1]([C:2]([C:3]([C:4]([C:5]([C:6]([O:7][H:21])([H:19])[H:20])([H:17])[H:18])([H:15])[H:16])([H:13])[H:14])([H:11])[H:12])([H:8])([H:9])[H:10]>>[C:1]([C:2]([C:3]([C:4]([C:5]([C:6](=[O:7])[H:19])([H:17])[H:20])([H:15])[H:16])([H:13])[H:14])([H:11])[H:12])([H:8])([H:9])[H:10].[H:18][H:21]"
C       -3.18888832      -0.00484325       0.68794798
C       -2.08917049      -0.00399105      -0.36492332
C       -0.69833626       0.15978013       0.23633550
C        0.40131208       0.15657743      -0.83183108
C        1.74780383       0.37340438      -0.22646443
C        2.88787755      -0.49943334      -0.48684994
O        3.87137912      -0.40542649       0.35527054
H       -4.17371487      -0.12109276       0.23269360
H       -3.19376030       0.93057405       1.25257876
H       -3.05061769      -0.82060257       1.40117742
H       -2.12527625      -0.93698954      -0.93682926
H       -2.27065649       0.80082907      -1.08499108
H       -0.65140097       1.09424430       0.80518317
H       -0.50124739      -0.64647341       0.94899867
H        0.18877899       0.95081071      -1.55500595
H        0.37546324      -0.79212534      -1.37569057
H        1.98953020       1.37100995       0.12971250
H        2.03765123      -0.07831655       1.60094864
H        2.60601501      -1.48812329      -0.89112404
H        2.91434126       0.27085288      -1.41978688
H        2.92291654      -0.31066533       1.52264974
21
Frame=4 idx=011598 GeodesicLength=0.3860088882645701 rxn_smarts="[C:1]([C:2]([C:3]([C:4]([C:5]([C:6]([O:7][H:21])([H:19])[H:20])([H:17])[H:18])([H:15])[H:16])([H:13])[H:14])([H:11])[H:12])([H:8])([H:9])[H:10]>>[C:1]([C:2]([C:3]([C:4]([C:5]([C:6](=[O:7])[H:19])([H:17])[H:20])([H:15])[H:16])([H:13])[H:14])([H:11])[H:12])([H:8])([H:9])[H:10].[H:18][H:21]"
C       -3.19074091       0.00206985       0.68602921
C       -2.08989199      -0.00673293      -0.36563059
C       -0.69901840       0.15605461       0.23586936
C        0.40215165       0.14753429      -0.82942850
C        1.74836921       0.37289884      -0.22208284
C        2.89257572      -0.49590033      -0.49347673
O        3.87272789      -0.40226613       0.35369365
H       -4.17570342      -0.11236150       0.23055201
H       -3.19257004       0.94055820       1.24561860
H       -3.05605518      -0.81032036       1.40378872
H       -2.12838267      -0.94251083      -0.93284218
H       -2.26843122       0.79469356      -1.09027438
H       -0.65171372       1.09228651       0.80195371
H       -0.50397612      -0.64883727       0.95090075
H        0.19075299       0.93596019      -1.55932853
H        0.37582485      -0.80344022      -1.36955252
H        1.98066061       1.37121273       0.13817903
H        2.04062996      -0.07870212       1.60069377
H        2.61576730      -1.48431667      -0.90145164
H        2.88969723       0.30575548      -1.41891148
H        2.94732624      -0.33363591       1.53570057
21
Frame=5 idx=011598 GeodesicLength=0.48213020195597683 rxn_smarts="[C:1]([C:2]([C:3]([C:4]([C:5]([C:6]([O:7][H:21])([H:19])[H:20])([H:17])[H:18])([H:15])[H:16])([H:13])[H:14])([H:11])[H:12])([H:8])([H:9])[H:10]>>[C:1]([C:2]([C:3]([C:4]([C:5]([C:6](=[O:7])[H:19])([H:17])[H:20])([H:15])[H:16])([H:13])[H:14])([H:11])[H:12])([H:8])([H:9])[H:10].[H:18][H:21]"
C       -3.19251094       0.00889321       0.68407565
C       -2.09058622      -0.00947871      -0.36634193
C       -0.69966923       0.15236373       0.23537760
C        0.40297918       0.13867229      -0.82706551
C        1.74893213       0.37262226      -0.21787478
C        2.89720149      -0.49214048      -0.50019380
O        3.87379898      -0.39927278       0.35229776
H       -4.17760253      -0.10376067       0.22837849
H       -3.19132022       0.95040324       1.23862886
H       -3.06134537      -0.80009824       1.40632509
H       -2.13144370      -0.94798778      -0.92887771
H       -2.26623857       0.78853708      -1.09550992
H       -0.65201911       1.09031969       0.79875314
H       -0.50661384      -0.65119740       0.95270847
H        0.19264828       0.92128656      -1.56356834
H        0.37621531      -0.81452418      -1.36351108
H        1.97177066       1.37155665       0.14643852
H        2.04342162      -0.07865652       1.60038422
H        2.62521556      -1.48042617      -0.91134511
H        2.86477143       0.33998122      -1.41760972
H        2.97239509      -0.35709301       1.54853011
21
Frame=6 idx=011598 GeodesicLength=0.5783720167643427 rxn_smarts="[C:1]([C:2]([C:3]([C:4]([C:5]([C:6]([O:7][H:21])([H:19])[H:20])([H:17])[H:18])([H:15])[H:16])([H:13])[H:14])([H:11])[H:12])([H:8])([H:9])[H:10]>>[C:1]([C:2]([C:3]([C:4]([C:5]([C:6](=[O:7])[H:19])([H:17])[H:20])([H:15])[H:16])([H:13])[H:14])([H:11])[H:12])([H:8])([H:9])[H:10].[H:18][H:21]"
C       -3.19421308       0.01563480       0.68207714
C       -2.09126136      -0.01222467      -0.36706066
C       -0.70029919       0.14870372       0.23486463
C        0.40379091       0.12998334      -0.82473336
C        1.74948684       0.37256955      -0.21382593
C        2.90174523      -0.48816165      -0.50697180
O        3.87462286      -0.39641730       0.35104661
H       -4.17942514      -0.09527624       0.22615693
H       -3.19002343       0.96011647       1.23160011
H       -3.06651175      -0.78992997       1.40877554
H       -2.13446906      -0.95341596      -0.92494059
H       -2.26407839       0.78236531      -1.10070097
H       -0.65232642       1.08833933       0.79558854
H       -0.50917995      -0.65356217       0.95442580
H        0.19446362       0.90678103      -1.56772175
H        0.37663337      -0.82538880      -1.35755302
H        1.96285087       1.37203473       0.15450824
H        2.04595636      -0.07819045       1.60001821
H        2.63436866      -1.47645544      -0.92079193
H        2.83955033       0.37353527      -1.41591032
H        2.99831871      -0.38104090       1.56114857
21
Frame=7 idx=011598 GeodesicLength=0.6748499911598068 rxn_smarts="[C:1]([C:2]([C:3]([C:4]([C:5]([C:6]([O:7][H:21])([H:19])[H:20])([H:17])[H:18])([H:15])[H:16])([H:13])[H:14])([H:11])[H:12])([H:8])([H:9])[H:10]>>[C:1]([C:2]([C:3]([C:4]([C:5]([C:6](=[O:7])[H:19])([H:17])[H:20])([H:15])[H:16])([H:13])[H:14])([H:11])[H:12])([H:8])([H:9])[H:10].[H:18][H:21]"
C       -3.19586126       0.02230288       0.68002606
C       -2.09192574      -0.01496800      -0.36779109
C       -0.70091820       0.14507183       0.23433152
C        0.40458252       0.12145964      -0.82242720
C        1.75002680       0.37273798      -0.20992698
C        2.90619848      -0.48398151      -0.51377925
O        3.87521826      -0.39366307       0.34992495
H       -4.18118421      -0.08689611       0.22387646
H       -3.18869251       0.96970727       1.22452416
H       -3.07157471      -0.77980817       1.41113412
H       -2.13746776      -0.95879386      -0.92103522
H       -2.26195278       0.77618222      -1.10585351
H       -0.65264495       1.08634271       0.79246136
H       -0.51169197      -0.65593645       0.95605358
H        0.19619639       0.89243311      -1.57179033
H        0.37707632      -0.83604523      -1.35166893
H        1.95388910       1.37264718       0.16239694
H        2.04815916      -0.07728693       1.59961376
H        2.64323905      -1.47242816      -0.92978104
H        2.81402160       0.40645205      -1.41383309
H        3.02530641      -0.40552938       1.57354376
21
Frame=8 idx=011598 GeodesicLength=0.7716941370727578 rxn_smarts="[C:1]([C:2]([C:3]([C:4]([C:5]([C:6]([O:7][H:21])([H:19])[H:20])([H:17])[H:18])([H:15])[H:16])([H:13])[H:14])([H:11])[H:12])([H:8])([H:9])[H:10]>>[C:1]([C:2]([C:3]([C:4]([C:5]([C:6](=[O:7])[H:19])([H:17])[H:20])([H:15])[H:16])([H:13])[H:14])([H:11])[H:12])([H:8])([H:9])[H:10].[H:18][H:21]"
C       -3.19746913       0.02890129       0.67791436
C       -2.09258842      -0.01770242      -0.36853810
C       -0.70153695       0.14146665       0.23377922
C        0.40534867       0.11309659      -0.82014260
C        1.75054467       0.37313280      -0.20617008
C        2.91054984      -0.47960634      -0.52057550
O        3.87561347      -0.39094249       0.34891230
H       -4.18289235      -0.07860865       0.22152478
H       -3.18733871       0.97917578       1.21740021
H       -3.07655459      -0.76973601       1.41338720
H       -2.14045004      -0.96411208      -0.91717211
H       -2.25986485       0.76999982      -1.11096858
H       -0.65298431       1.08432740       0.78937598
H       -0.51416878      -0.65832682       0.95759082
H        0.19784169       0.87823365      -1.57577706
H        0.37754307      -0.84650325      -1.34584732
H        1.94487525       1.37340356       0.17009925
H        2.04993505      -0.07586845       1.59918119
H        2.65183592      -1.46835962      -0.93827659
H        2.78816970       0.43872279      -1.41140003
H        3.05359080      -0.43069421       1.58570267
21
Frame=9 idx=011598 GeodesicLength=0.8694833204065898 rxn_smarts="[C:1]([C:2]([C:3]([C:4]([C:5]([C:6]([O:7][H:21])([H:19])[H:20])([H:17])[H:18])([H:15])[H:16])([H:13])[H:14])([H:11])[H:12])([H:8])([H:9])[H:10]>>[C:1]([C:2]([C:3]([C:4]([C:5]([C:6](=[O:7])[H:19])([H:17])[H:20])([H:15])[H:16])([H:13])[H:14])([H:11])[H:12])([H:8])([H:9])[H:10].[H:18][H:21]"
C       -3.19905234       0.03544726       0.67573616
C       -2.09325910      -0.02042722      -0.36930534
C       -0.70216687       0.13789404       0.23321109
C        0.40608417       0.10487597      -0.81787054
C        1.75102782       0.37378645      -0.20255003
C        2.91480789      -0.47500046      -0.52730848
O        3.87589291      -0.38797853       0.34798636
H       -4.18456428      -0.07039647       0.21909210
H       -3.18597799       0.98854672       1.21021467
H       -3.08147231      -0.75969097       1.41553967
H       -2.14342272      -0.96937897      -0.91334529
H       -2.25782090       0.76381259      -1.11606171
H       -0.65335850       1.08230922       0.78632180
H       -0.51662925      -0.66072082       0.95905472
H        0.19938701       0.86413068      -1.57970741
H        0.37804753      -0.85680536      -1.34003737
H        1.93577367       1.37436097       0.17756974
H        2.05105122      -0.07371054       1.59873905
H        2.66022691      -1.46423178      -0.94617109
H        2.76195814       0.47032840      -1.40858323
H        3.08346700      -0.45715117       1.59747511
21
Frame=10 idx=011598 GeodesicLength=0.9676200243678306 rxn_smarts="[C:1]([C:2]([C:3]([C:4]([C:5]([C:6]([O:7][H:21])([H:19])[H:20])([H:17])[H:18])([H:15])[H:16])([H:13])[H:14])([H:11])[H:12])([H:8])([H:9])[H:10]>>[C:1]([C:2]([C:3]([C:4]([C:5]([C:6](=[O:7])[H:19])([H:17])[H:20])([H:15])[H:16])([H:13])[H:14])([H:11])[H:12])([H:8])([H:9])[H:10].[H:18][H:21]"
C       -3.20062431       0.04193070       0.67348054
C       -2.09394701      -0.02313941      -0.37009842
C       -0.70282033       0.13435711       0.23262472
C        0.40678175       0.09680982      -0.81561027
C        1.75146767       0.37468690      -0.19905614
C        2.91893599      -0.47022500      -0.53393435
O        3.87597753      -0.38493295       0.34719876
H       -4.18621140      -0.06227080       0.21656484
H       -3.18462779       0.99780484       1.20296274
H       -3.08634274      -0.74968772       1.41757294
H       -2.14639217      -0.97458606      -0.90956691
H       -2.25582755       0.75762754      -1.12113237
H       -0.65378260       1.08028821       0.78330072
H       -0.51908682      -0.66311628       0.96043887
H        0.20083321       0.85015254      -1.58356722
H        0.37857285      -0.86692729      -1.33425970
H        1.92658981       1.37549873       0.18482885
H        2.05158089      -0.07086135       1.59831758
H        2.66836216      -1.46009025      -0.95351211
H        2.73541802       0.50132708      -1.40544041
H        3.11514285      -0.48464635       1.60888733
21
Frame=11 idx=011598 GeodesicLength=1.066124735461134 rxn_smarts="[C:1]([C:2]([C:3]([C:4]([C:5]([C:6]([O:7][H:21])([H:19])[H:20])([H:17])[H:18])([H:15])[H:16])([H:13])[H:14])([H:11])[H:12])([H:8])([H:9])[H:10]>>[C:1]([C:2]([C:3]([C:4]([C:5]([C:6](=[O:7])[H:19])([H:17])[H:20])([H:15])[H:16])([H:13])[H:14])([H:11])[H:12])([H:8])([H:9])[H:10].[H:18][H:21]"
C       -3.20220159       0.04835333       0.67113831
C       -2.09466267      -0.02583727      -0.37092388
C       -0.70351084       0.13086445       0.23201996
C        0.40743423       0.08889715      -0.81335659
C        1.75185066       0.37585199      -0.19568008
C        2.92292067      -0.46529609      -0.54040141
O        3.87586469      -0.38172592       0.34657752
H       -4.18784811      -0.05423367       0.21392943
H       -3.18331004       1.00695442       1.19563437
H       -3.09118367      -0.73972447       1.41948087
H       -2.14936292      -0.97973542      -0.90584074
H       -2.25389416       0.75144480      -1.12619154
H       -0.65427538       1.07827854       0.78030523
H       -0.52155801      -0.66549990       0.96175085
H        0.20217298       0.83628592      -1.58736512
H        0.37911763      -0.87687759      -1.32849631
H        1.91730597       1.37685051       0.19185011
H        2.05142782      -0.06718367       1.59795525
H        2.67625129      -1.45595545      -0.96024252
H        2.70854368       0.53174332      -1.40198770
H        3.14891776      -0.51345499       1.61984399
21
Frame=12 idx=011598 GeodesicLength=1.164889455928381 rxn_smarts="[C:1]([C:2]([C:3]([C:4]([C:5]([C:6]([O:7][H:21])([H:19])[H:20])([H:17])[H:18])([H:15])[H:16])([H:13])[H:14])([H:11])[H:12])([H:8])([H:9])[H:10]>>[C:1]([C:2]([C:3]([C:4]([C:5]([C:6](=[O:7])[H:19])([H:17])[H:20])([H:15])[H:16])([H:13])[H:14])([H:11])[H:12])([H:8])([H:9])[H:10].[H:18][H:21]"
C       -3.20379789       0.05471201       0.66870171
C       -2.09541600      -0.02851917      -0.37178730
C       -0.70425084       0.12742781       0.23139438
C        0.40803353       0.08114116      -0.81110868
C        1.75216371       0.37730790      -0.19242245
C        2.92674452      -0.46022135      -0.54664211
O        3.87554110      -0.37828405       0.34616527
H       -4.18948668      -0.04629199       0.21117564
H       -3.18204350       1.01599233       1.18822343
H       -3.09600824      -0.72980566       1.42125502
H       -2.15233852      -0.98482743      -0.90217123
H       -2.25203206       0.74526439      -1.13124676
H       -0.65485451       1.07629808       0.77732371
H       -0.52405527      -0.66785334       0.96299691
H        0.20339601       0.82251937      -1.59111439
H        0.37968121      -0.88666181      -1.32273059
H        1.90790350       1.37845777       0.19859255
H        2.05050896      -0.06251031       1.59767363
H        2.68389487      -1.45183805      -0.96629872
H        2.68133219       0.56158489      -1.39823844
H        3.18508389      -0.54389255       1.63025840
21
Frame=13 idx=011598 GeodesicLength=1.2636835218917777 rxn_smarts="[C:1]([C:2]([C:3]([C:4]([C:5]([C:6]([O:7][H:21])([H:19])[H:20])([H:17])[H:18])([H:15])[H:16])([H:13])[H:14])([H:11])[H:12])([H:8])([H:9])[H:10]>>[C:1]([C:2]([C:3]([C:4]([C:5]([C:6](=[O:7])[H:19])([H:17])[H:20])([H:15])[H:16])([H:13])[H:14])([H:11])[H:12])([H:8])([H:9])[H:10].[H:18][H:21]"
C       -3.20542941       0.06100720       0.66616102
C       -2.09621757      -0.03118564      -0.37269502
C       -0.70505403       0.12406041       0.23074596
C        0.40857219       0.07354294      -0.80886232
C        1.75239120       0.37908216      -0.18927984
C        2.93039666      -0.45501664      -0.55259720
O        3.87497013      -0.37454765       0.34604968
H       -4.19114141      -0.03845309       0.20829089
H       -3.18085169       1.02492278       1.18071596
H       -3.10083163      -0.71992739       1.42289066
H       -2.15532144      -0.98986775      -0.89855826
H       -2.25025293       0.73908051      -1.13631115
H       -0.65554112       1.07436819       0.77434124
H       -0.52659240      -0.67015324       0.96418711
H        0.20449406       0.80883489      -1.59482828
H        0.38026335      -0.89628829      -1.31694047
H        1.89835577       1.38036733       0.20502439
H        2.04875455      -0.05671282       1.59752453
H        2.69130224      -1.44776442      -0.97162294
H        2.65378250       0.59088402      -1.39419155
H        3.22395098      -0.57623349       1.63995557
21
Frame=14 idx=011598 GeodesicLength=1.3625071192188773 rxn_smarts="[C:1]([C:2]([C:3]([C:4]([C:5]([C:6]([O:7][H:21])([H:19])[H:20])([H:17])[H:18])([H:15])[H:16])([H:13])[H:14])([H:11])[H:12])([H:8])([H:9])[H:10]>>[C:1]([C:2]([C:3]([C:4]([C:5]([C:6](=[O:7])[H:19])([H:17])[H:20])([H:15])[H:16])([H:13])[H:14])([H:11])[H:12])([H:8])([H:9])[H:10].[H:18][H:21]"
C       -3.20711997       0.06723854       0.66349973
C       -2.09708174      -0.03384076      -0.37365415
C       -0.70594056       0.12078259       0.23007495
C        0.40903962       0.06610542      -0.80660717
C        1.75251193       0.38121958      -0.18624296
C        2.93385997      -0.44967357      -0.55817553
O        3.87413748      -0.37038385       0.34631019
H       -4.19283223      -0.03073176       0.20525303
H       -3.17977028       1.03375189       1.17308421
H       -3.10567706      -0.71008049       1.42438096
H       -2.15831275      -0.99486911      -0.89499503
H       -2.24857245       0.73287641      -1.14140455
H       -0.65636776       1.07252260       0.77133631
H       -0.52918993      -0.67236203       0.96534101
H        0.20545485       0.79520618      -1.59852209
H        0.38086861      -0.90577020      -1.31108436
H        1.88862714       1.38264984       0.21109387
H        2.04603867      -0.04953502       1.59755237
H        2.69848629      -1.44373393      -0.97610548
H        2.62588128       0.61964461      -1.38985472
H        3.26595888      -0.61101693       1.64871941
21
Frame=15 idx=011598 GeodesicLength=1.4611333250316982 rxn_smarts="[C:1]([C:2]([C:3]([C:4]([C:5]([C:6]([O:7][H:21])([H:19])[H:20])([H:17])[H:18])([H:15])[H:16])([H:13])[H:14])([H:11])[H:12])([H:8])([H:9])[H:10]>>[C:1]([C:2]([C:3]([C:4]([C:5]([C:6](=[O:7])[H:19])([H:17])[H:20])([H:15])[H:16])([H:13])[H:14])([H:11])[H:12])([H:8])([H:9])[H:10].[H:18][H:21]"
C       -3.20889767       0.07341055       0.66069671
C       -2.09802416      -0.03649256      -0.37467258
C       -0.70693342       0.11761513       0.22938319
C        0.40942485       0.05883064      -0.80432796
C        1.75250247       0.38376141      -0.18329624
C        2.93711936      -0.44418638      -0.56328579
O        3.87300578      -0.36570288       0.34705192
H       -4.19458221      -0.02314295       0.20203379
H       -3.17884131       1.04249594       1.16528632
H       -3.11057386      -0.70024316       1.42572259
H       -2.16131351      -0.99985268      -0.89146750
H       -2.24700531       0.72662476      -1.14655400
H       -0.65737196       1.07079710       0.76828535
H       -0.53187146      -0.67443798       0.96648328
H        0.20626875       0.78160497      -1.60220601
H        0.38150099      -0.91512130      -1.30511568
H        1.87867582       1.38536746       0.21677099
H        2.04226416      -0.04079137       1.59780691
H        2.70545872      -1.43974230      -0.97965550
H        2.59762168       0.64788751      -1.38522514
H        3.31157229      -0.64868191       1.65628536
21
Frame=16 idx=011598 GeodesicLength=1.5593262816655753 rxn_smarts="[C:1]([C:2]([C:3]([C:4]([C:5]([C:6]([O:7][H:21])([H:19])[H:20])([H:17])[H:18])([H:15])[H:16])([H:13])[H:14])([H:11])[H:12])([H:8])([H:9])[H:10]>>[C:1]([C:2]([C:3]([C:4]([C:5]([C:6](=[O:7])[H:19])([H:17])[H:20])([H:15])[H:16])([H:13])[H:14])([H:11])[H:12])([H:8])([H:9])[H:10].[H:18][H:21]"
C       -3.21079896       0.07953455       0.65772227
C       -2.09906342      -0.03915584      -0.37575873
C       -0.70806171       0.11458379       0.22867651
C        0.40971576       0.05171722      -0.80199882
C        1.75233411       0.38675617      -0.18041286
C        2.94016294      -0.43853579      -0.56782685
O        3.87153550      -0.36039040       0.34841095
H       -4.19642037      -0.01570526       0.19859320
H       -3.17812015       1.05118604       1.15725587
H       -3.11556142      -0.69037356       1.42691645
H       -2.16432313      -1.00485394      -0.88794764
H       -2.24556677       0.72027923      -1.15179885
H       -0.65860246       1.06923888       0.76515720
H       -0.53466832      -0.67632482       0.96765270
H        0.20692684       0.76798944      -1.60588795
H        0.38216803      -0.92436354      -1.29896654
H        1.86844758       1.38859200       0.22203537
H        2.03732224      -0.03028465       1.59835370
H        2.71224350      -1.43577684      -0.98217450
H        2.56899238       0.67564040      -1.38028674
H        3.36133785      -0.68975310       1.66228524
