14
Frame=0 idx=009994 GeodesicLength=0.0 rxn_smarts="[O:1]([C:2]([C@@:3]1([C:6](=[O:7])[H:14])[C:4]([H:11])([H:12])[N:5]1[H:13])([H:9])[H:10])[H:8]>>[O:1]([C:2]([C@@:3]([N:5]([C:4][H:11])[H:13])([C:6](=[O:7])[H:14])[H:12])([H:9])[H:10])[H:8]"
O        2.12653902      -0.32953126       0.07114239
C        1.09858208       0.21014806      -0.70221174
C       -0.28152570      -0.04092334      -0.09208093
C       -0.58139912      -1.37479503       1.18435079
N       -0.28997274       0.01197102       1.36277525
C       -1.38682646       0.78388873      -0.71811977
O       -2.27669244       1.28365370      -0.09540986
H        1.96419521      -0.04943924       0.98036746
H        1.21418563       1.29864039      -0.81081919
H        1.16605511      -0.23351644      -1.69751808
H        0.40429035      -1.85012550       1.03274965
H       -0.71272154      -1.11500965      -0.34109746
H       -1.13710384       0.50122609       1.64128352
H       -1.30760562       0.90381246      -1.81541207
14
Frame=1 idx=009994 GeodesicLength=0.054115278835901545 rxn_smarts="[O:1]([C:2]([C@@:3]1([C:6](=[O:7])[H:14])[C:4]([H:11])([H:12])[N:5]1[H:13])([H:9])[H:10])[H:8]>>[O:1]([C:2]([C@@:3]([N:5]([C:4][H:11])[H:13])([C:6](=[O:7])[H:14])[H:12])([H:9])[H:10])[H:8]"
O        2.12780063      -0.33206196       0.06548713
C        1.09814826       0.21603941      -0.70018099
C       -0.28253115      -0.04255867      -0.09444921
C       -0.57726168      -1.36998430       1.18913094
N       -0.29065048       0.01404002       1.36024225
C       -1.38463677       0.78360971      -0.72275968
O       -2.27573358       1.28421065      -0.10189516
H        1.97013166      -0.05869991       0.97746144
H        1.21601174       1.30545455      -0.79663367
H        1.16561095      -0.21609646      -1.70059532
H        0.40116941      -1.85804532       1.03802478
H       -0.72470103      -1.13013962      -0.33625034
H       -1.13268675       0.50847421       1.64376202
H       -1.31067121       0.89575769      -1.82134417
14
Frame=2 idx=009994 GeodesicLength=0.10822231463191416 rxn_smarts="[O:1]([C:2]([C@@:3]1([C:6](=[O:7])[H:14])[C:4]([H:11])([H:12])[N:5]1[H:13])([H:9])[H:10])[H:8]>>[O:1]([C:2]([C@@:3]([N:5]([C:4][H:11])[H:13])([C:6](=[O:7])[H:14])[H:12])([H:9])[H:10])[H:8]"
O        2.12906868      -0.33447084       0.05977706
C        1.09775267       0.22197503      -0.69813328
C       -0.28347230      -0.04412937      -0.09683712
C       -0.57299140      -1.36520074       1.19374000
N       -0.29135456       0.01607957       1.35768290
C       -1.38241757       0.78330073      -0.72745552
O       -2.27471028       1.28478959      -0.10843271
H        1.97606923      -0.06790133       0.97443632
H        1.21782820       1.31217502      -0.78243011
H        1.16519774      -0.19861331      -1.70350612
H        0.39799277      -1.86599255       1.04331013
H       -0.73706112      -1.14535464      -0.33110514
H       -1.12824413       0.51563496       1.64620011
H       -1.31365794       0.88770787      -1.82724651
14
Frame=3 idx=009994 GeodesicLength=0.1623144850477034 rxn_smarts="[O:1]([C:2]([C@@:3]1([C:6](=[O:7])[H:14])[C:4]([H:11])([H:12])[N:5]1[H:13])([H:9])[H:10])[H:8]>>[O:1]([C:2]([C@@:3]([N:5]([C:4][H:11])[H:13])([C:6](=[O:7])[H:14])[H:12])([H:9])[H:10])[H:8]"
O        2.13034687      -0.33673736       0.05402755
C        1.09739705       0.22794665      -0.69607283
C       -0.28434720      -0.04563233      -0.09924508
C       -0.56858214      -1.36045689       1.19816458
N       -0.29208931       0.01807897       1.35509804
C       -1.38016796       0.78296690      -0.73220230
O       -2.27362069       1.28539424      -0.11501518
H        1.98200249      -0.07700408       0.97129990
H        1.21963365       1.31879169      -0.76824782
H        1.16481803      -0.18111252      -1.70624105
H        0.39476716      -1.87396947       1.04859343
H       -0.74982108      -1.16065002      -0.32564999
H       -1.12378634       0.52268587       1.64860294
H       -1.31655055       0.87969837      -1.83311220
14
Frame=4 idx=009994 GeodesicLength=0.2163801934575973 rxn_smarts="[O:1]([C:2]([C@@:3]1([C:6](=[O:7])[H:14])[C:4]([H:11])([H:12])[N:5]1[H:13])([H:9])[H:10])[H:8]>>[O:1]([C:2]([C@@:3]([N:5]([C:4][H:11])[H:13])([C:6](=[O:7])[H:14])[H:12])([H:9])[H:10])[H:8]"
O        2.13164051      -0.33884168       0.04825415
C        1.09708442       0.23394592      -0.69400499
C       -0.28515359      -0.04706355      -0.10167406
C       -0.56403023      -1.35576639       1.20238973
N       -0.29285949       0.02002761       1.35248955
C       -1.37788830       0.78261353      -0.73699464
O       -2.27246479       1.28602745      -0.12163443
H        1.98792729      -0.08596845       0.96806136
H        1.22142836       1.32529633      -0.75412694
H        1.16447563      -0.16364148      -1.70879351
H        0.39149822      -1.88197874       1.05386216
H       -0.76299805      -1.17601978      -0.31987039
H       -1.11932484       0.52960466       1.65097769
H       -1.31933514       0.87176457      -1.83893567
14
Frame=5 idx=009994 GeodesicLength=0.270432008522586 rxn_smarts="[O:1]([C:2]([C@@:3]1([C:6](=[O:7])[H:14])[C:4]([H:11])([H:12])[N:5]1[H:13])([H:9])[H:10])[H:8]>>[O:1]([C:2]([C@@:3]([N:5]([C:4][H:11])[H:13])([C:6](=[O:7])[H:14])[H:12])([H:9])[H:10])[H:8]"
O        2.13295143      -0.34076290       0.04247708
C        1.09681468       0.23997046      -0.69192825
C       -0.28589155      -0.04842912      -0.10412254
C       -0.55932078      -1.35113203       1.20641768
N       -0.29366346       0.02191402       1.34985237
C       -1.37557441       0.78223450      -0.74183041
O       -2.27123026       1.28669704      -0.12828735
H        1.99383989      -0.09475746       0.96473452
H        1.22320564       1.33168842      -0.74009657
H        1.16417181      -0.14623384      -1.71115537
H        0.38819030      -1.89003054       1.05908484
H       -0.77663892      -1.19146163      -0.31375527
H       -1.11485787       0.53637551       1.65332257
H       -1.32199651       0.86392757      -1.84471329
14
Frame=6 idx=009994 GeodesicLength=0.32444711514764524 rxn_smarts="[O:1]([C:2]([C@@:3]1([C:6](=[O:7])[H:14])[C:4]([H:11])([H:12])[N:5]1[H:13])([H:9])[H:10])[H:8]>>[O:1]([C:2]([C@@:3]([N:5]([C:4][H:11])[H:13])([C:6](=[O:7])[H:14])[H:12])([H:9])[H:10])[H:8]"
O        2.13428479      -0.34251965       0.03667849
C        1.09659493       0.24603135      -0.68984481
C       -0.28655162      -0.04971962      -0.10659604
C       -0.55446781      -1.34655779       1.21023414
N       -0.29450159       0.02374345       1.34718964
C       -1.37322661       0.78183257      -0.74671475
O       -2.26992590       1.28739237      -0.13498259
H        1.99974920      -0.10340814       0.96130948
H        1.22497561       1.33798421      -0.72612528
H        1.16391543      -0.12884603      -1.71334404
H        0.38483095      -1.89811924       1.06428058
H       -0.79073912      -1.20696732      -0.30726740
H       -1.11038525       0.54300838       1.65564226
H       -1.32455299       0.85614546      -1.85045969
14
Frame=7 idx=009994 GeodesicLength=0.3784501355811983 rxn_smarts="[O:1]([C:2]([C@@:3]1([C:6](=[O:7])[H:14])[C:4]([H:11])([H:12])[N:5]1[H:13])([H:9])[H:10])[H:8]>>[O:1]([C:2]([C@@:3]([N:5]([C:4][H:11])[H:13])([C:6](=[O:7])[H:14])[H:12])([H:9])[H:10])[H:8]"
O        2.13564143      -0.34412443       0.03084455
C        1.09642766       0.25214460      -0.68774931
C       -0.28713130      -0.05093491      -0.10909679
C       -0.54946793      -1.34203743       1.21384638
N       -0.29537012       0.02552195       1.34449994
C       -1.37084284       0.78139914      -0.75165645
O       -2.26854422       1.28812111      -0.14173294
H        2.00566491      -0.11195415       0.95777858
H        1.22674407       1.34420140      -0.71217106
H        1.16370856      -0.11142491      -1.71537120
H        0.38141031      -1.90624913       1.06944934
H       -0.80532081      -1.22254265      -0.30038448
H       -1.10590057       0.54951534       1.65793339
H       -1.32701917       0.84836409      -1.85618995
14
Frame=8 idx=009994 GeodesicLength=0.4324419319977428 rxn_smarts="[O:1]([C:2]([C@@:3]1([C:6](=[O:7])[H:14])[C:4]([H:11])([H:12])[N:5]1[H:13])([H:9])[H:10])[H:8]>>[O:1]([C:2]([C@@:3]([N:5]([C:4][H:11])[H:13])([C:6](=[O:7])[H:14])[H:12])([H:9])[H:10])[H:8]"
O        2.13702575      -0.34555814       0.02499281
C        1.09631378       0.25830345      -0.68564414
C       -0.28762994      -0.05208072      -0.11162400
C       -0.54431330      -1.33757552       1.21724509
N       -0.29626945       0.02723667       1.34177780
C       -1.36842476       0.78092628      -0.75665381
O       -2.26707959       1.28888370      -0.14853395
H        2.01158611      -0.12035431       0.95415227
H        1.22850328       1.35033600      -0.69826591
H        1.16355350      -0.09401031      -1.71723160
H        0.37793379      -1.91442470       1.07457093
H       -0.82042031      -1.23818645      -0.29308181
H       -1.10140656       0.55587685       1.66019382
H       -1.32937231       0.84062719      -1.86189750
14
Frame=9 idx=009994 GeodesicLength=0.4864118365216739 rxn_smarts="[O:1]([C:2]([C@@:3]1([C:6](=[O:7])[H:14])[C:4]([H:11])([H:12])[N:5]1[H:13])([H:9])[H:10])[H:8]>>[O:1]([C:2]([C@@:3]([N:5]([C:4][H:11])[H:13])([C:6](=[O:7])[H:14])[H:12])([H:9])[H:10])[H:8]"
O        2.13843977      -0.34683610       0.01910253
C        1.09625724       0.26452243      -0.68352890
C       -0.28804214      -0.05315530      -0.11418446
C       -0.53900790      -1.33317442       1.22043405
N       -0.29719633       0.02889376       1.33902476
C       -1.36597112       0.78040583      -0.76171729
O       -2.26553704       1.28966705      -0.15540177
H        2.01752234      -0.12864522       0.95041759
H        1.23025851       1.35640522      -0.68436946
H        1.16345662      -0.07654687      -1.71894074
H        0.37438707      -1.92264976       1.07965701
H       -0.83605354      -1.25389269      -0.28531904
H       -1.09689596       0.56210710       1.66242572
H       -1.33161753       0.83289896      -1.86760001
14
Frame=10 idx=009994 GeodesicLength=0.5403807331019017 rxn_smarts="[O:1]([C:2]([C@@:3]1([C:6](=[O:7])[H:14])[C:4]([H:11])([H:12])[N:5]1[H:13])([H:9])[H:10])[H:8]>>[O:1]([C:2]([C@@:3]([N:5]([C:4][H:11])[H:13])([C:6](=[O:7])[H:14])[H:12])([H:9])[H:10])[H:8]"
O        2.13988558      -0.34797007       0.01316055
C        1.09626240       0.27081549      -0.68139959
C       -0.28836111      -0.05416018      -0.11678021
C       -0.53355205      -1.32882516       1.22341080
N       -0.29814628       0.03049620       1.33623529
C       -1.36347714       0.77982981      -0.76685400
O       -2.26391589       1.29046087      -0.16234853
H        2.02348289      -0.13685559       0.94656506
H        1.23201445       1.36242372      -0.67044218
H        1.16342221      -0.05898330      -1.72050898
H        0.37075791      -1.93092465       1.08470679
H       -0.85225262      -1.26966147      -0.27706024
H       -1.09235903       0.56821787       1.66462177
H       -1.33376130       0.82513646      -1.87330652
14
Frame=11 idx=009994 GeodesicLength=0.5943281005456041 rxn_smarts="[O:1]([C:2]([C@@:3]1([C:6](=[O:7])[H:14])[C:4]([H:11])([H:12])[N:5]1[H:13])([H:9])[H:10])[H:8]>>[O:1]([C:2]([C@@:3]([N:5]([C:4][H:11])[H:13])([C:6](=[O:7])[H:14])[H:12])([H:9])[H:10])[H:8]"
O        2.14137016      -0.34894186       0.00717612
C        1.09633272       0.27717943      -0.67925851
C       -0.28858367      -0.05509239      -0.11941560
C       -0.52793873      -1.32453961       1.22616226
N       -0.29912232       0.03203462       1.33340783
C       -1.36094394       0.77919712      -0.77206317
O       -2.26221776       1.29126272      -0.16937295
H        2.02946543      -0.14496337       0.94260022
H        1.23376932       1.36838688      -0.65651211
H        1.16345585      -0.04135345      -1.72192764
H        0.36705263      -1.93925087       1.08970502
H       -0.86904317      -1.28547837      -0.26826868
H       -1.08780585       0.57418793       1.66678373
H       -1.33579068       0.81737120      -1.87901653
14
Frame=12 idx=009994 GeodesicLength=0.6482747124751128 rxn_smarts="[O:1]([C:2]([C@@:3]1([C:6](=[O:7])[H:14])[C:4]([H:11])([H:12])[N:5]1[H:13])([H:9])[H:10])[H:8]>>[O:1]([C:2]([C@@:3]([N:5]([C:4][H:11])[H:13])([C:6](=[O:7])[H:14])[H:12])([H:9])[H:10])[H:8]"
O        2.14289541      -0.34976575       0.00113290
C        1.09647280       0.28363183      -0.67710212
C       -0.28870365      -0.05595377      -0.12209426
C       -0.52217021      -1.32031423       1.22868725
N       -0.30011968       0.03351069       1.33053900
C       -1.35836902       0.77849733      -0.77735629
O       -2.26043956       1.29206664      -0.17649039
H        2.03548244      -0.15300070       0.93851242
H        1.23552795       1.37431437      -0.64253584
H        1.16356193      -0.02359612      -1.72321004
H        0.36325640      -1.94763270       1.09465805
H       -0.88645576      -1.30134383      -0.25890304
H       -1.08322500       0.58002958       1.66890708
H       -1.33771406       0.80955667      -1.88474471
14
Frame=13 idx=009994 GeodesicLength=0.7022218499352426 rxn_smarts="[O:1]([C:2]([C@@:3]1([C:6](=[O:7])[H:14])[C:4]([H:11])([H:12])[N:5]1[H:13])([H:9])[H:10])[H:8]>>[O:1]([C:2]([C@@:3]([N:5]([C:4][H:11])[H:13])([C:6](=[O:7])[H:14])[H:12])([H:9])[H:10])[H:8]"
O        2.14446340      -0.35044402      -0.00498711
C        1.09668557       0.29018972      -0.67492516
C       -0.28871506      -0.05675066      -0.12482239
C       -0.51624527      -1.31615038       1.23098360
N       -0.30113635       0.03492227       1.32762291
C       -1.35575033       0.77771031      -0.78274550
O       -2.25855586       1.29289522      -0.18371647
H        2.04154017      -0.16099567       0.93428674
H        1.23728720       1.38021989      -0.62846736
H        1.16374945      -0.00564679      -1.72436155
H        0.35935714      -1.95607483       1.09956059
H       -0.90452526      -1.31725187      -0.24890699
H       -1.07861130       0.58574553       1.67098380
H       -1.33954352       0.80163127      -1.89050512
14
Frame=14 idx=009994 GeodesicLength=0.7561711736669742 rxn_smarts="[O:1]([C:2]([C@@:3]1([C:6](=[O:7])[H:14])[C:4]([H:11])([H:12])[N:5]1[H:13])([H:9])[H:10])[H:8]>>[O:1]([C:2]([C@@:3]([N:5]([C:4][H:11])[H:13])([C:6](=[O:7])[H:14])[H:12])([H:9])[H:10])[H:8]"
O        2.14608081      -0.35096934      -0.01118498
C        1.09697539       0.29685938      -0.67272749
C       -0.28861184      -0.05748316      -0.12760476
C       -0.51016185      -1.31205488       1.23303935
N       -0.30217122       0.03626209       1.32465651
C       -1.35308678       0.77683002      -0.78823646
O       -2.25656402       1.29374666      -0.19105800
H        2.04764313      -0.16894666       0.92992187
H        1.23904578       1.38610872      -0.61430182
H        1.16402425       0.01250479      -1.72538249
H        0.35534963      -1.96458267       1.10440342
H       -0.92328475      -1.33319180      -0.23823398
H       -1.07396338       0.59132883       1.67301271
H       -1.34127517       0.79358801      -1.89630388
14
Frame=15 idx=009994 GeodesicLength=0.8101225264661954 rxn_smarts="[O:1]([C:2]([C@@:3]1([C:6](=[O:7])[H:14])[C:4]([H:11])([H:12])[N:5]1[H:13])([H:9])[H:10])[H:8]>>[O:1]([C:2]([C@@:3]([N:5]([C:4][H:11])[H:13])([C:6](=[O:7])[H:14])[H:12])([H:9])[H:10])[H:8]"
O        2.14775319      -0.35133230      -0.01746286
C        1.09734695       0.30364810      -0.67050851
C       -0.28838725      -0.05815127      -0.13044632
C       -0.50391846      -1.30803469       1.23484143
N       -0.30322320       0.03752212       1.32163551
C       -1.35037530       0.77584888      -0.79383453
O       -2.25445897       1.29461704      -0.19852214
H        2.05379423      -0.17685115       0.92541417
H        1.24080335       1.39198568      -0.60003367
H        1.16439260       0.03087117      -1.72627115
H        0.35122548      -1.97316136       1.10917341
H       -0.94276963      -1.34914961      -0.22683041
H       -1.06927932       0.59677078       1.67499123
H       -1.34290367       0.78541660      -1.90214616
14
Frame=16 idx=009994 GeodesicLength=0.8640762269237604 rxn_smarts="[O:1]([C:2]([C@@:3]1([C:6](=[O:7])[H:14])[C:4]([H:11])([H:12])[N:5]1[H:13])([H:9])[H:10])[H:8]>>[O:1]([C:2]([C@@:3]([N:5]([C:4][H:11])[H:13])([C:6](=[O:7])[H:14])[H:12])([H:9])[H:10])[H:8]"
O        2.14948715      -0.35152297      -0.02382301
C        1.09780528       0.31056371      -0.66826759
C       -0.28803402      -0.05875501      -0.13335264
C       -0.49751428      -1.30409752       1.23637532
N       -0.30429091       0.03869353       1.31855537
C       -1.34761310       0.77475888      -0.79954579
O       -2.25223643       1.29550137      -0.20611668
H        2.05999703      -0.18470741       0.92076018
H        1.24255913       1.39785617      -0.58565657
H        1.16486111       0.04946610      -1.72702607
H        0.34697558      -1.98181667       1.11385683
H       -0.96301645      -1.36510935      -0.21463813
H       -1.06455657       0.60206258       1.67691675
H       -1.34442354       0.77710658      -1.90803798
