8
Frame=0 idx=002730 GeodesicLength=0.0 rxn_smarts="[O:1]=[C:2]([C:3]#[C:4][C:5]#[C:6][H:8])[H:7]>>[O:1]=[C:2]([C:6](=[C:5]1[C:3]#[C:4]1)[H:8])[H:7]"
O       -1.32204894      -1.29860342       0.69739982
C       -0.84654339      -0.23629749       0.50255879
C       -0.69026058       0.47425562      -1.23303468
C        0.32020793       1.10946021      -1.70675840
C        0.94518539       0.39756862      -0.68922246
C        1.03982687      -0.25179151       0.37908357
H       -1.01699249       0.71592738       1.01593632
H        1.57062524      -0.91051941       1.03403703
8
Frame=1 idx=002730 GeodesicLength=0.09824822257000997 rxn_smarts="[O:1]=[C:2]([C:3]#[C:4][C:5]#[C:6][H:8])[H:7]>>[O:1]=[C:2]([C:6](=[C:5]1[C:3]#[C:4]1)[H:8])[H:7]"
O       -1.34880281      -1.29452634       0.71008137
C       -0.86331088      -0.23643785       0.50771721
C       -0.68844294       0.47264472      -1.24139905
C        0.32762842       1.10810273      -1.69834855
C        0.95926845       0.39324417      -0.68941336
C        1.05718594      -0.24218636       0.38812702
H       -1.05230952       0.71689037       1.01442979
H        1.60878334      -0.91773143       1.00880558
8
Frame=2 idx=002730 GeodesicLength=0.19644177379596417 rxn_smarts="[O:1]=[C:2]([C:3]#[C:4][C:5]#[C:6][H:8])[H:7]>>[O:1]=[C:2]([C:6](=[C:5]1[C:3]#[C:4]1)[H:8])[H:7]"
O       -1.37724010      -1.29021436       0.72187167
C       -0.88056200      -0.23685662       0.51291111
C       -0.68690365       0.47197813      -1.24923697
C        0.33503492       1.10680684      -1.68937290
C        0.97354722       0.38771665      -0.69018456
C        1.07525472      -0.23481479       0.39571595
H       -1.08709556       0.71720150       1.01335673
H        1.64796445      -0.92181735       0.98493897
8
Frame=3 idx=002730 GeodesicLength=0.2946016853334854 rxn_smarts="[O:1]=[C:2]([C:3]#[C:4][C:5]#[C:6][H:8])[H:7]>>[O:1]=[C:2]([C:6](=[C:5]1[C:3]#[C:4]1)[H:8])[H:7]"
O       -1.40731800      -1.28560692       0.73285929
C       -0.89835280      -0.23747580       0.51820530
C       -0.68560425       0.47207614      -1.25660042
C        0.34241539       1.10548579      -1.67984580
C        0.98801566       0.38117380      -0.69140938
C        1.09408798      -0.22937298       0.40207842
H       -1.12168888       0.71704228       1.01258424
H        1.68844488      -0.92332232       0.96212834
8
Frame=4 idx=002730 GeodesicLength=0.39273909412045316 rxn_smarts="[O:1]=[C:2]([C:3]#[C:4][C:5]#[C:6][H:8])[H:7]>>[O:1]=[C:2]([C:6](=[C:5]1[C:3]#[C:4]1)[H:8])[H:7]"
O       -1.43902266      -1.28064832       0.74311332
C       -0.91674353      -0.23823494       0.52366021
C       -0.68450197       0.47278063      -1.26351870
C        0.34976851       1.10406688      -1.66974979
C        1.00267420       0.37375697      -0.69296773
C        1.11373897      -0.22565938       0.40739417
H       -1.15636349       0.71655455       1.01199531
H        1.73044997      -0.92261640       0.94007320
8
Frame=5 idx=002730 GeodesicLength=0.4908624902006234 rxn_smarts="[O:1]=[C:2]([C:3]#[C:4][C:5]#[C:6][H:8])[H:7]>>[O:1]=[C:2]([C:6](=[C:5]1[C:3]#[C:4]1)[H:8])[H:7]"
O       -1.47238153      -1.27528435       0.75267109
C       -0.93580600      -0.23908754       0.52932144
C       -0.68356405       0.47396658      -1.27001063
C        0.35708530       1.10251774      -1.65902455
C        1.01751995       0.36553880      -0.69477475
C        1.13425147      -0.22361502       0.41176409
H       -1.19132008       0.71585268       1.01149260
H        1.77421495      -0.91988889       0.91856071
8
Frame=6 idx=002730 GeodesicLength=0.5889734397154452 rxn_smarts="[O:1]=[C:2]([C:3]#[C:4][C:5]#[C:6][H:8])[H:7]>>[O:1]=[C:2]([C:6](=[C:5]1[C:3]#[C:4]1)[H:8])[H:7]"
O       -1.50743433      -1.26946358       0.76155291
C       -0.95561808      -0.23999564       0.53523183
C       -0.68275939       0.47553150      -1.27607585
C        0.36436415       1.10080388      -1.64760074
C        1.03255329       0.35656663      -0.69675534
C        1.15567163      -0.22323930       0.41525605
H       -1.22672452       0.71502876       1.01099523
H        1.81994726      -0.91523225       0.89739592
8
Frame=7 idx=002730 GeodesicLength=0.6870781960857089 rxn_smarts="[O:1]=[C:2]([C:3]#[C:4][C:5]#[C:6][H:8])[H:7]>>[O:1]=[C:2]([C:6](=[C:5]1[C:3]#[C:4]1)[H:8])[H:7]"
O       -1.54424146      -1.26313377       0.76976204
C       -0.97626940      -0.24092520       0.54142690
C       -0.68206196       0.47738595      -1.28170671
C        0.37160081       1.09890321      -1.63538231
C        1.04777448       0.34685489      -0.69884621
C        1.17804592      -0.22460928       0.41789981
H       -1.26271224       0.71416749       1.01043148
H        1.86786385      -0.90864330       0.87641501
8
Frame=8 idx=002730 GeodesicLength=0.7853806007894834 rxn_smarts="[O:1]=[C:2]([C:3]#[C:4][C:5]#[C:6][H:8])[H:7]>>[O:1]=[C:2]([C:6](=[C:5]1[C:3]#[C:4]1)[H:8])[H:7]"
O       -1.58290157      -1.25630758       0.77723496
C       -0.99786606      -0.24184979       0.54791948
C       -0.68155517       0.47955191      -1.28697313
C        0.37871201       1.09691033      -1.62229176
C        1.06315716       0.33627381      -0.70109745
C        1.20145902      -0.22795554       0.41970601
H       -1.29935895       0.71342076       1.00977800
H        1.91835356      -0.90004390       0.85572389
8
Frame=9 idx=002730 GeodesicLength=0.8832602743784203 rxn_smarts="[O:1]=[C:2]([C:3]#[C:4][C:5]#[C:6][H:8])[H:7]>>[O:1]=[C:2]([C:6](=[C:5]1[C:3]#[C:4]1)[H:8])[H:7]"
O       -1.62330246      -1.24874665       0.78420670
C       -1.02043322      -0.24272922       0.55482299
C       -0.68084173       0.48154098      -1.29162249
C        0.38593169       1.09445968      -1.60809588
C        1.07882686       0.32530132      -0.70304725
C        1.22591972      -0.23300446       0.42073378
H       -1.33692425       0.71266033       1.00877393
H        1.97082339      -0.88948198       0.83422823
8
Frame=10 idx=002730 GeodesicLength=0.9812983346974156 rxn_smarts="[O:1]=[C:2]([C:3]#[C:4][C:5]#[C:6][H:8])[H:7]>>[O:1]=[C:2]([C:6](=[C:5]1[C:3]#[C:4]1)[H:8])[H:7]"
O       -1.66566907      -1.24058769       0.79043163
C       -1.04415261      -0.24355005       0.56207734
C       -0.68024518       0.48367347      -1.29584797
C        0.39303406       1.09183114      -1.59280766
C        1.09468745       0.31350983      -0.70500145
C        1.25154630      -0.24041525       0.42085119
H       -1.37529800       0.71214080       1.00759538
H        2.02609705      -0.87660224       0.81270153
8
Frame=11 idx=002730 GeodesicLength=1.0793288758133055 rxn_smarts="[O:1]=[C:2]([C:3]#[C:4][C:5]#[C:6][H:8])[H:7]>>[O:1]=[C:2]([C:6](=[C:5]1[C:3]#[C:4]1)[H:8])[H:7]"
O       -1.71007436      -1.23172131       0.79589820
C       -1.06912372      -0.24429444       0.56971339
C       -0.67966415       0.48586567      -1.29951452
C        0.40009800       1.08892971      -1.57619259
C        1.11076990       0.30083122      -0.70690539
C        1.27839168      -0.25044944       0.41991981
H       -1.41454512       0.71185387       1.00618578
H        2.08414776      -0.86101528       0.79089531
8
Frame=12 idx=002730 GeodesicLength=1.1774222929969338 rxn_smarts="[O:1]=[C:2]([C:3]#[C:4][C:5]#[C:6][H:8])[H:7]>>[O:1]=[C:2]([C:6](=[C:5]1[C:3]#[C:4]1)[H:8])[H:7]"
O       -1.75652195      -1.22212773       0.80060220
C       -1.09542580      -0.24493629       0.57776974
C       -0.67908055       0.48803841      -1.30262234
C        0.40709346       1.08573735      -1.55812627
C        1.12711107       0.28729592      -0.70868164
C        1.30661357      -0.26339521       0.41786270
H       -1.45475131       0.71191062       1.00449788
H        2.14496150      -0.84252307       0.76869772
8
Frame=13 idx=002730 GeodesicLength=1.2753166416092925 rxn_smarts="[O:1]=[C:2]([C:3]#[C:4][C:5]#[C:6][H:8])[H:7]>>[O:1]=[C:2]([C:6](=[C:5]1[C:3]#[C:4]1)[H:8])[H:7]"
O       -1.80533052      -1.21165530       0.80429438
C       -1.12322515      -0.24552867       0.58617563
C       -0.67847458       0.49054344      -1.30486088
C        0.41422460       1.08215746      -1.53826303
C        1.14365632       0.27220741      -0.71070674
C        1.33614603      -0.28019950       0.41403452
H       -1.49557500       0.71214492       1.00281936
H        2.20857830      -0.81966976       0.74650676
8
Frame=14 idx=002730 GeodesicLength=1.373254814830093 rxn_smarts="[O:1]=[C:2]([C:3]#[C:4][C:5]#[C:6][H:8])[H:7]>>[O:1]=[C:2]([C:6](=[C:5]1[C:3]#[C:4]1)[H:8])[H:7]"
O       -1.85624804      -1.20035775       0.80710143
C       -1.15250857      -0.24602613       0.59499851
C       -0.67780089       0.49310408      -1.30634995
C        0.42136129       1.07818529      -1.51655907
C        1.16053564       0.25596506      -0.71275108
C        1.36738502      -0.30094833       0.40842661
H       -1.53721140       0.71277630       1.00102421
H        2.27448694      -0.79269851       0.72410934
8
Frame=15 idx=002730 GeodesicLength=1.4710282683493148 rxn_smarts="[O:1]=[C:2]([C:3]#[C:4][C:5]#[C:6][H:8])[H:7]>>[O:1]=[C:2]([C:6](=[C:5]1[C:3]#[C:4]1)[H:8])[H:7]"
O       -1.90964248      -1.18807567       0.80871972
C       -1.18335224      -0.24655426       0.60417075
C       -0.67705969       0.49629160      -1.30675852
C        0.42876160       1.07376163      -1.49264215
C        1.17767761       0.23761601      -0.71547597
C        1.40031917      -0.32722079       0.39987281
H       -1.57901829       0.71361554       0.99963422
H        2.34231431      -0.75943404       0.70247913
8
Frame=16 idx=002730 GeodesicLength=1.568738016015671 rxn_smarts="[O:1]=[C:2]([C:3]#[C:4][C:5]#[C:6][H:8])[H:7]>>[O:1]=[C:2]([C:6](=[C:5]1[C:3]#[C:4]1)[H:8])[H:7]"
O       -1.96449686      -1.17504149       0.80965139
C       -1.21547665      -0.24698525       0.61383529
C       -0.67600236       0.49925942      -1.30627181
C        0.43617579       1.06882419      -1.46660084
C        1.19542791       0.21841091      -0.71838030
C        1.43582460      -0.35730726       0.38886154
H       -1.62152059       0.71486561       0.99811202
H        2.41006817      -0.72202613       0.68079272
