12
Frame=0 idx=001075 GeodesicLength=0.0 rxn_smarts="[N:1]([c:2]1[c:3]([H:9])[c:4]([H:10])[c:5]([H:11])[n:6]1[H:12])([H:7])[H:8]>>[N:1]([C+:2]1[C:3]([H:9])=[C-:4][C:5]([H:10])([H:11])[N:6]1[H:12])([H:7])[H:8]"
N        1.95746591      -0.00980323       0.23535622
C        0.60202420       0.12017620       0.00615595
C       -0.18599504       1.23247164      -0.15114141
C       -1.56015171       0.85645016      -0.34664391
C       -1.50791539      -0.55477792      -0.14908550
N       -0.19216808      -0.98967124      -0.00047110
H        2.40803577      -0.77039376      -0.24772487
H        2.46437270       0.85251852       0.12678752
H        0.19257744       2.24468462      -0.17513118
H       -1.99263792       0.19198105       0.75328739
H       -2.28999694      -1.27332024      -0.35475908
H        0.10438901      -1.90031583       0.30336992
12
Frame=1 idx=001075 GeodesicLength=0.03893730337013586 rxn_smarts="[N:1]([c:2]1[c:3]([H:9])[c:4]([H:10])[c:5]([H:11])[n:6]1[H:12])([H:7])[H:8]>>[N:1]([C+:2]1[C:3]([H:9])=[C-:4][C:5]([H:10])([H:11])[N:6]1[H:12])([H:7])[H:8]"
N        1.95926144      -0.01369130       0.22946103
C        0.60338345       0.11688136       0.00529790
C       -0.18427326       1.23049304      -0.15811646
C       -1.55686270       0.85422434      -0.34383475
C       -1.50982568      -0.55610131      -0.13964405
N       -0.19258083      -0.99027393       0.00985911
H        2.41343425      -0.76154111      -0.26964055
H        2.46548512       0.85185375       0.14769901
H        0.19481442       2.24256041      -0.18183577
H       -2.01184523       0.20110725       0.75919467
H       -2.28685768      -1.27358088      -0.36686885
H        0.10586669      -1.90193163       0.30842870
12
Frame=2 idx=001075 GeodesicLength=0.07790322690590362 rxn_smarts="[N:1]([c:2]1[c:3]([H:9])[c:4]([H:10])[c:5]([H:11])[n:6]1[H:12])([H:7])[H:8]>>[N:1]([C+:2]1[C:3]([H:9])=[C-:4][C:5]([H:10])([H:11])[N:6]1[H:12])([H:7])[H:8]"
N        1.96114740      -0.01752113       0.22322408
C        0.60474150       0.11359740       0.00473759
C       -0.18257560       1.22846664      -0.16489113
C       -1.55353175       0.85195090      -0.34090623
C       -1.51168678      -0.55745151      -0.13013688
N       -0.19293488      -0.99078204       0.02073612
H        2.41858488      -0.75228324      -0.29185851
H        2.46659280       0.85046836       0.16822707
H        0.19701973       2.24039522      -0.18823135
H       -2.03171725       0.21039602       0.76450714
H       -2.28305390      -1.27376321      -0.37926079
H        0.10741386      -1.90347341       0.31385288
12
Frame=3 idx=001075 GeodesicLength=0.11685687482704556 rxn_smarts="[N:1]([c:2]1[c:3]([H:9])[c:4]([H:10])[c:5]([H:11])[n:6]1[H:12])([H:7])[H:8]>>[N:1]([C+:2]1[C:3]([H:9])=[C-:4][C:5]([H:10])([H:11])[N:6]1[H:12])([H:7])[H:8]"
N        1.96303114      -0.02121369       0.21682162
C        0.60612097       0.11030960       0.00390809
C       -0.18091468       1.22638361      -0.17179212
C       -1.55023713       0.84965487      -0.33773672
C       -1.51353205      -0.55880545      -0.12052804
N       -0.19322266      -0.99118378       0.03180818
H        2.42362888      -0.74280242      -0.31361665
H        2.46765542       0.84840311       0.18825923
H        0.19910881       2.23821996      -0.19417293
H       -2.05200613       0.21983141       0.76941298
H       -2.27869963      -1.27384733      -0.39156603
H        0.10906706      -1.90494989       0.31920240
12
Frame=4 idx=001075 GeodesicLength=0.15595061223153558 rxn_smarts="[N:1]([c:2]1[c:3]([H:9])[c:4]([H:10])[c:5]([H:11])[n:6]1[H:12])([H:7])[H:8]>>[N:1]([C+:2]1[C:3]([H:9])=[C-:4][C:5]([H:10])([H:11])[N:6]1[H:12])([H:7])[H:8]"
N        1.96495554      -0.02480643       0.21016910
C        0.60751321       0.10700869       0.00304786
C       -0.17926368       1.22428253      -0.17868002
C       -1.54692208       0.84734536      -0.33441576
C       -1.51535552      -0.56020798      -0.11085124
N       -0.19347040      -0.99151551       0.04332798
H        2.42848805      -0.73302164      -0.33534992
H        2.46873716       0.84569467       0.20787272
H        0.20114576       2.23606858      -0.19967270
H       -2.07288377       0.22943108       0.77376013
H       -2.27373040      -1.27387457      -0.40389792
H        0.11078614      -1.90640477       0.32468977
12
Frame=5 idx=001075 GeodesicLength=0.19486887266085798 rxn_smarts="[N:1]([c:2]1[c:3]([H:9])[c:4]([H:10])[c:5]([H:11])[n:6]1[H:12])([H:7])[H:8]>>[N:1]([C+:2]1[C:3]([H:9])=[C-:4][C:5]([H:10])([H:11])[N:6]1[H:12])([H:7])[H:8]"
N        1.96692198      -0.02839622       0.20322375
C        0.60890586       0.10372514       0.00239978
C       -0.17769402       1.22209985      -0.18510041
C       -1.54361122       0.84501853      -0.33068151
C       -1.51711041      -0.56155530      -0.10111486
N       -0.19362624      -0.99162429       0.05539350
H        2.43310188      -0.72275587      -0.35739396
H        2.46978665       0.84214875       0.22735240
H        0.20320122       2.23374556      -0.20544473
H       -2.09446541       0.23901938       0.77746128
H       -2.26803173      -1.27372589      -0.41642373
H        0.11262144      -1.90769962       0.33032848
12
Frame=6 idx=001075 GeodesicLength=0.23392426588963514 rxn_smarts="[N:1]([c:2]1[c:3]([H:9])[c:4]([H:10])[c:5]([H:11])[n:6]1[H:12])([H:7])[H:8]>>[N:1]([C+:2]1[C:3]([H:9])=[C-:4][C:5]([H:10])([H:11])[N:6]1[H:12])([H:7])[H:8]"
N        1.96893865      -0.03190067       0.19600743
C        0.61031955       0.10046485       0.00180479
C       -0.17613754       1.21995222      -0.19125170
C       -1.54027399       0.84271804      -0.32668287
C       -1.51883377      -0.56294562      -0.09138033
N       -0.19374015      -0.99160968       0.06803189
H        2.43746572      -0.71221602      -0.37950336
H        2.47093156       0.83795115       0.24630978
H        0.20527584       2.23148687      -0.21093780
H       -2.11677138       0.24863577       0.78047397
H       -2.26165943      -1.27356651      -0.42906650
H        0.11448494      -1.90897040       0.33619470
12
Frame=7 idx=001075 GeodesicLength=0.2730893093432313 rxn_smarts="[N:1]([c:2]1[c:3]([H:9])[c:4]([H:10])[c:5]([H:11])[n:6]1[H:12])([H:7])[H:8]>>[N:1]([C+:2]1[C:3]([H:9])=[C-:4][C:5]([H:10])([H:11])[N:6]1[H:12])([H:7])[H:8]"
N        1.97101088      -0.03530777       0.18842286
C        0.61174093       0.09716930       0.00117545
C       -0.17460277       1.21776817      -0.19736308
C       -1.53689153       0.84038616      -0.32265367
C       -1.52049996      -0.56438809      -0.08169830
N       -0.19381131      -0.99145461       0.08141493
H        2.44156712      -0.70149314      -0.40156848
H        2.47220101       0.83304474       0.26433222
H        0.20718563       2.22924088      -0.21533071
H       -2.13985173       0.25843506       0.78249951
H       -2.25448816      -1.27334796      -0.44168832
H        0.11643990      -1.91005273       0.34245759
12
Frame=8 idx=001075 GeodesicLength=0.312132990853282 rxn_smarts="[N:1]([c:2]1[c:3]([H:9])[c:4]([H:10])[c:5]([H:11])[n:6]1[H:12])([H:7])[H:8]>>[N:1]([C+:2]1[C:3]([H:9])=[C-:4][C:5]([H:10])([H:11])[N:6]1[H:12])([H:7])[H:8]"
N        1.97308930      -0.03871202       0.18057463
C        0.61318256       0.09391489       0.00064581
C       -0.17314365       1.21558813      -0.20289164
C       -1.53351655       0.83809432      -0.31810517
C       -1.52207828      -0.56577337      -0.07201214
N       -0.19377020      -0.99099922       0.09543015
H        2.44537176      -0.69044698      -0.42379408
H        2.47352403       0.82735167       0.28199818
H        0.20914812       2.22692801      -0.21996330
H       -2.16373343       0.26807164       0.78372042
H       -2.24654801      -1.27302131      -0.45443369
H        0.11847436      -1.91099578       0.34883082
12
Frame=9 idx=001075 GeodesicLength=0.351301461355014 rxn_smarts="[N:1]([c:2]1[c:3]([H:9])[c:4]([H:10])[c:5]([H:11])[n:6]1[H:12])([H:7])[H:8]>>[N:1]([C+:2]1[C:3]([H:9])=[C-:4][C:5]([H:10])([H:11])[N:6]1[H:12])([H:7])[H:8]"
N        1.97523680      -0.04207365       0.17231602
C        0.61464887       0.09069068       0.00028048
C       -0.17169485       1.21346561      -0.20796433
C       -1.53008515       0.83582592      -0.31333901
C       -1.52358846      -0.56720636      -0.06242309
N       -0.19367945      -0.99030799       0.11037527
H        2.44878556      -0.67919259      -0.44630667
H        2.47509339       0.82095170       0.29881845
H        0.21111589       2.22469786      -0.22394462
H       -2.18859411       0.27766458       0.78379979
H       -2.23775461      -1.27273674      -0.46733825
H        0.12051612      -1.91177903       0.35572596
12
Frame=10 idx=001075 GeodesicLength=0.3904468240615116 rxn_smarts="[N:1]([c:2]1[c:3]([H:9])[c:4]([H:10])[c:5]([H:11])[n:6]1[H:12])([H:7])[H:8]>>[N:1]([C+:2]1[C:3]([H:9])=[C-:4][C:5]([H:10])([H:11])[N:6]1[H:12])([H:7])[H:8]"
N        1.97743343      -0.04543037       0.16359240
C        0.61611790       0.08749535       0.00014355
C       -0.17027986       1.21139479      -0.21252658
C       -1.52659313       0.83357377      -0.30837344
C       -1.52498546      -0.56866924      -0.05298372
N       -0.19352759      -0.98933003       0.12632688
H        2.45171960      -0.66781167      -0.46914005
H        2.47692335       0.81378829       0.31456209
H        0.21300156       2.22252272      -0.22700717
H       -2.21446476       0.28719996       0.78248653
H       -2.22795205      -1.27245475      -0.48038774
H        0.12260701      -1.91227881       0.36330725
12
Frame=11 idx=001075 GeodesicLength=0.42965116299561573 rxn_smarts="[N:1]([c:2]1[c:3]([H:9])[c:4]([H:10])[c:5]([H:11])[n:6]1[H:12])([H:7])[H:8]>>[N:1]([C+:2]1[C:3]([H:9])=[C-:4][C:5]([H:10])([H:11])[N:6]1[H:12])([H:7])[H:8]"
N        1.97958632      -0.04871624       0.15469979
C        0.61759947       0.08426042      -0.00031765
C       -0.16890914       1.20932799      -0.21695728
C       -1.52314096       0.83139711      -0.30287223
C       -1.52632864      -0.57013889      -0.04356814
N       -0.19329587      -0.98812313       0.14267133
H        2.45447935      -0.65629520      -0.49162482
H        2.47885066       0.80596662       0.32969447
H        0.21485287       2.22034799      -0.22973083
H       -2.24098007       0.29660350       0.78030459
H       -2.21745793      -1.27207645      -0.49316867
H        0.12474392      -1.91255371       0.37086945
12
Frame=12 idx=001075 GeodesicLength=0.46893220604068503 rxn_smarts="[N:1]([c:2]1[c:3]([H:9])[c:4]([H:10])[c:5]([H:11])[n:6]1[H:12])([H:7])[H:8]>>[N:1]([C+:2]1[C:3]([H:9])=[C-:4][C:5]([H:10])([H:11])[N:6]1[H:12])([H:7])[H:8]"
N        1.98175831      -0.05202079       0.14535006
C        0.61909698       0.08105692      -0.00064388
C       -0.16756549       1.20734577      -0.22083833
C       -1.51964721       0.82928864      -0.29695234
C       -1.52754133      -0.57164463      -0.03433402
N       -0.19294448      -0.98661134       0.15973303
H        2.45676409      -0.64467976      -0.51443841
H        2.48106778       0.79742196       0.34382609
H        0.21669666       2.21825933      -0.23167061
H       -2.26848685       0.30574549       0.77673188
H       -2.20603697      -1.27169163      -0.50612652
H        0.12683851      -1.91246995       0.37936305
12
Frame=13 idx=001075 GeodesicLength=0.5082223263213019 rxn_smarts="[N:1]([c:2]1[c:3]([H:9])[c:4]([H:10])[c:5]([H:11])[n:6]1[H:12])([H:7])[H:8]>>[N:1]([C+:2]1[C:3]([H:9])=[C-:4][C:5]([H:10])([H:11])[N:6]1[H:12])([H:7])[H:8]"
N        1.98390529      -0.05532231       0.13565221
C        0.62060687       0.07784983      -0.00113204
C       -0.16625943       1.20542309      -0.22439149
C       -1.51617046       0.82728340      -0.29044716
C       -1.52865080      -0.57317643      -0.02528821
N       -0.19247003      -0.98484156       0.17703586
H        2.45872608      -0.63302375      -0.53724338
H        2.48350166       0.78820203       0.35704732
H        0.21849554       2.21623486      -0.23285544
H       -2.29675943       0.31455861       0.77193356
H       -2.19383286      -1.27121561      -0.51906154
H        0.12890757      -1.91197217       0.38875031
12
Frame=14 idx=001075 GeodesicLength=0.5475236785555326 rxn_smarts="[N:1]([c:2]1[c:3]([H:9])[c:4]([H:10])[c:5]([H:11])[n:6]1[H:12])([H:7])[H:8]>>[N:1]([C+:2]1[C:3]([H:9])=[C-:4][C:5]([H:10])([H:11])[N:6]1[H:12])([H:7])[H:8]"
N        1.98598575      -0.05858174       0.12579545
C        0.62212332       0.07459844      -0.00204794
C       -0.16499567       1.20352778      -0.22786842
C       -1.51275179       0.82542210      -0.28313539
C       -1.52968650      -0.57473231      -0.01637782
N       -0.19185081      -0.98291230       0.19403363
H        2.46057699      -0.62131241      -0.55967528
H        2.48601743       0.77841262       0.36963448
H        0.22027194       2.21423374      -0.23361651
H       -2.32553141       0.32299917       0.76622776
H       -2.18111926      -1.27054087      -0.53173625
H        0.13096000      -1.91111422       0.39876630
12
Frame=15 idx=001075 GeodesicLength=0.5868149180472338 rxn_smarts="[N:1]([c:2]1[c:3]([H:9])[c:4]([H:10])[c:5]([H:11])[n:6]1[H:12])([H:7])[H:8]>>[N:1]([C+:2]1[C:3]([H:9])=[C-:4][C:5]([H:10])([H:11])[N:6]1[H:12])([H:7])[H:8]"
N        1.98797109      -0.06176505       0.11595995
C        0.62363003       0.07126509      -0.00351330
C       -0.16378645       1.20162074      -0.23146614
C       -1.50940682       0.82374187      -0.27484332
C       -1.53066587      -0.57630737      -0.00752634
N       -0.19107478      -0.98092666       0.21035252
H        2.46248412      -0.60949719      -0.58146006
H        2.48848166       0.76814329       0.38185000
H        0.22203536       2.21219674      -0.23433504
H       -2.35458481       0.33108195       0.75987183
H       -2.16811953      -1.26955506      -0.54393559
H        0.13303599      -1.90999835       0.40904548
12
Frame=16 idx=001075 GeodesicLength=0.6261316277919766 rxn_smarts="[N:1]([c:2]1[c:3]([H:9])[c:4]([H:10])[c:5]([H:11])[n:6]1[H:12])([H:7])[H:8]>>[N:1]([C+:2]1[C:3]([H:9])=[C-:4][C:5]([H:10])([H:11])[N:6]1[H:12])([H:7])[H:8]"
N        1.98990095      -0.06492493       0.10597531
C        0.62513493       0.06788656      -0.00525111
C       -0.16263236       1.19973635      -0.23488455
C       -1.50610160       0.82223553      -0.26555220
C       -1.53156383      -0.57791875       0.00119696
N       -0.19013012      -0.97884752       0.22621975
H        2.46427748      -0.59753591      -0.60300805
H        2.49101882       0.75731038       0.39351863
H        0.22383060       2.21014530      -0.23490149
H       -2.38416617       0.33872578       0.75254869
H       -2.15470708      -1.26825461      -0.55595480
H        0.13513839      -1.90855820       0.42009286
