15
Frame=0 idx=008459 GeodesicLength=0.0 rxn_smarts="[C:1]1([H:8])([H:9])[C@@:2]2([H:10])[C@@:3]3([H:11])[O:4][C:5]([H:12])([H:13])[C@:6]1([H:14])[C@@:7]23[H:15]>>[C:1]1([H:8])([H:9])[C:2]([H:10])=[C:7]([H:15])[C@:3]2([H:11])[O:4][C:5]([H:12])([H:13])[C@@:6]12[H:14]"
C        0.88217002       1.07634094       0.30640092
C        1.61523026       0.07498383      -0.55024842
C       -0.06613251      -1.41801884       0.21320189
O       -1.45855858      -1.43585080       0.33429673
C       -1.64264804      -0.05430792       0.60030334
C       -0.42902992       0.46669889      -0.17763518
C        0.59643592      -0.82399531      -0.92846398
H        1.01218297       1.05607065       1.39145030
H        1.01909213       2.11237532      -0.02831675
H        2.47770235       0.30796648      -1.15892797
H        0.47815032      -1.49826256       1.15058669
H       -1.55839739       0.15893656       1.67398060
H       -2.61530459       0.28483455       0.23318384
H       -0.72971850       0.91050095      -1.12596939
H        0.41882557      -1.21827269      -1.93384257
15
Frame=1 idx=008459 GeodesicLength=0.06662120747055768 rxn_smarts="[C:1]1([H:8])([H:9])[C@@:2]2([H:10])[C@@:3]3([H:11])[O:4][C:5]([H:12])([H:13])[C@:6]1([H:14])[C@@:7]23[H:15]>>[C:1]1([H:8])([H:9])[C:2]([H:10])=[C:7]([H:15])[C@:3]2([H:11])[O:4][C:5]([H:12])([H:13])[C@@:6]12[H:14]"
C        0.87451787       1.08015979       0.30112349
C        1.60885874       0.06255242      -0.53654589
C       -0.05492168      -1.39858525       0.20524592
O       -1.44525279      -1.43463848       0.35418054
C       -1.64337647      -0.05183557       0.60700502
C       -0.43828280       0.47173311      -0.18016465
C        0.58425543      -0.81191130      -0.95321279
H        1.00430152       1.06860541       1.38640821
H        1.02191026       2.11066438      -0.04439038
H        2.49901688       0.27426775      -1.11237338
H        0.49888679      -1.51766476       1.13237616
H       -1.56201290       0.16851448       1.67916122
H       -2.62048447       0.27192223       0.23775623
H       -0.75005727       0.92281674      -1.12114946
H        0.42264089      -1.21660096      -1.95542024
15
Frame=2 idx=008459 GeodesicLength=0.13317459485965344 rxn_smarts="[C:1]1([H:8])([H:9])[C@@:2]2([H:10])[C@@:3]3([H:11])[O:4][C:5]([H:12])([H:13])[C@:6]1([H:14])[C@@:7]23[H:15]>>[C:1]1([H:8])([H:9])[C:2]([H:10])=[C:7]([H:15])[C@:3]2([H:11])[O:4][C:5]([H:12])([H:13])[C@@:6]12[H:14]"
C        0.86724739       1.08402945       0.29589354
C        1.60213137       0.05063243      -0.52346714
C       -0.04393521      -1.37900933       0.19759860
O       -1.43155462      -1.43290777       0.37356112
C       -1.64402230      -0.04920980       0.61353541
C       -0.44732789       0.47691558      -0.18251092
C        0.57284534      -0.79964801      -0.97671360
H        0.99703449       1.08089216       1.38132999
H        1.02490409       2.10888660      -0.06011623
H        2.51727767       0.24087056      -1.06684970
H        0.51872120      -1.53802619       1.11295036
H       -1.56586159       0.17819153       1.68416428
H       -2.62534784       0.25901746       0.24210447
H       -0.77009433       0.93486826      -1.11615670
H        0.42798226      -1.21550293      -1.97532348
15
Frame=3 idx=008459 GeodesicLength=0.19967164163933918 rxn_smarts="[C:1]1([H:8])([H:9])[C@@:2]2([H:10])[C@@:3]3([H:11])[O:4][C:5]([H:12])([H:13])[C@:6]1([H:14])[C@@:7]23[H:15]>>[C:1]1([H:8])([H:9])[C:2]([H:10])=[C:7]([H:15])[C@:3]2([H:11])[O:4][C:5]([H:12])([H:13])[C@@:6]12[H:14]"
C        0.86031244       1.08787959       0.29073109
C        1.59509706       0.03919292      -0.51095727
C       -0.03316026      -1.35935400       0.19038712
O       -1.41748087      -1.43065163       0.39248491
C       -1.64453608      -0.04640545       0.61985856
C       -0.45612205       0.48218363      -0.18469262
C        0.56222257      -0.78736344      -0.99890250
H        0.99033419       1.09282640       1.37619941
H        1.02798307       2.10700174      -0.07544813
H        2.53250930       0.20816341      -1.02258023
H        0.53756904      -1.55936931       1.09228201
H       -1.56990637       0.18799223       1.68890357
H       -2.62978701       0.24623169       0.24617304
H       -0.78972850       0.94660732      -1.11101385
H        0.43469346      -1.21493510      -1.99342512
15
Frame=4 idx=008459 GeodesicLength=0.2660955695977323 rxn_smarts="[C:1]1([H:8])([H:9])[C@@:2]2([H:10])[C@@:3]3([H:11])[O:4][C:5]([H:12])([H:13])[C@:6]1([H:14])[C@@:7]23[H:15]>>[C:1]1([H:8])([H:9])[C:2]([H:10])=[C:7]([H:15])[C@:3]2([H:11])[O:4][C:5]([H:12])([H:13])[C@@:6]12[H:14]"
C        0.85371765       1.09173986       0.28566403
C        1.58787149       0.02826816      -0.49900971
C       -0.02260194      -1.33967074       0.18366108
O       -1.40313228      -1.42791085       0.41104817
C       -1.64497962      -0.04343244       0.62600902
C       -0.46467049       0.48749697      -0.18671445
C        0.55237814      -0.77515097      -1.01986018
H        0.98418799       1.10446125       1.37108332
H        1.03112441       2.10506933      -0.09035149
H        2.54509553       0.17616094      -0.97964965
H        0.55543078      -1.58160394       1.07028287
H       -1.57421685       0.19795321       1.69343858
H       -2.63389026       0.23350930       0.24998230
H       -0.80895397       0.95798505      -1.10576069
H        0.44263943      -1.21487515      -2.00982320
15
Frame=5 idx=008459 GeodesicLength=0.33242679721985424 rxn_smarts="[C:1]1([H:8])([H:9])[C@@:2]2([H:10])[C@@:3]3([H:11])[O:4][C:5]([H:12])([H:13])[C@:6]1([H:14])[C@@:7]23[H:15]>>[C:1]1([H:8])([H:9])[C:2]([H:10])=[C:7]([H:15])[C@:3]2([H:11])[O:4][C:5]([H:12])([H:13])[C@@:6]12[H:14]"
C        0.84745504       1.09558404       0.28071389
C        1.58054236       0.01782716      -0.48756600
C       -0.01224615      -1.32001024       0.17751259
O       -1.38856556      -1.42470799       0.42932220
C       -1.64536110      -0.04029787       0.63198993
C       -0.47295063       0.49279579      -0.18859123
C        0.54331603      -0.76313909      -1.03959779
H        0.97857383       1.11578948       1.36601550
H        1.03431574       2.10307792      -0.10481856
H        2.55523856       0.14512276      -0.93819655
H        0.57221310      -1.60469208       1.04694021
H       -1.57880843       0.20809495       1.69776755
H       -2.63764707       0.22086708       0.25350546
H       -0.82771184       0.96893971      -1.10044497
H        0.45163612      -1.21525163      -2.02455225
15
Frame=6 idx=008459 GeodesicLength=0.3986867111633585 rxn_smarts="[C:1]1([H:8])([H:9])[C@@:2]2([H:10])[C@@:3]3([H:11])[O:4][C:5]([H:12])([H:13])[C@:6]1([H:14])[C@@:7]23[H:15]>>[C:1]1([H:8])([H:9])[C:2]([H:10])=[C:7]([H:15])[C@:3]2([H:11])[O:4][C:5]([H:12])([H:13])[C@@:6]12[H:14]"
C        0.84149329       1.09943291       0.27586296
C        1.57315484       0.00786574      -0.47657277
C       -0.00206290      -1.30041775       0.17197098
O       -1.37379669      -1.42107428       0.44738695
C       -1.64567447      -0.03701504       0.63782188
C       -0.48097394       0.49805285      -0.19033522
C        0.53499340      -0.75138237      -1.05816749
H        0.97345487       1.12686928       1.36098220
H        1.03750555       2.10106110      -0.11890859
H        2.56325502       0.11500613      -0.89808917
H        0.58788943      -1.62858767       1.02214888
H       -1.58365055       0.21841922       1.70189760
H       -2.64106556       0.20827332       0.25677058
H       -0.84603732       0.97946343      -1.09508456
H        0.46151503      -1.21596687      -2.03768423
15
Frame=7 idx=008459 GeodesicLength=0.46496714441463977 rxn_smarts="[C:1]1([H:8])([H:9])[C@@:2]2([H:10])[C@@:3]3([H:11])[O:4][C:5]([H:12])([H:13])[C@:6]1([H:14])[C@@:7]23[H:15]>>[C:1]1([H:8])([H:9])[C:2]([H:10])=[C:7]([H:15])[C@:3]2([H:11])[O:4][C:5]([H:12])([H:13])[C@@:6]12[H:14]"
C        0.83576872       1.10326677       0.27107862
C        1.56573303      -0.00163608      -0.46598921
C        0.00797453      -1.28088816       0.16704834
O       -1.35882166      -1.41698285       0.46530643
C       -1.64589156      -0.03359350       0.64354809
C       -0.48873585       0.50321287      -0.19195076
C        0.52740634      -0.73992316      -1.07561780
H        0.96872176       1.13774140       1.35594109
H        1.04062001       2.09895822      -0.13270652
H        2.56940826       0.08577217      -0.85915567
H        0.60238445      -1.65316957       0.99576087
H       -1.58871691       0.22892486       1.70585059
H       -2.64409482       0.19571864       0.25986680
H       -0.86391569       0.98947898      -1.08967537
H        0.47215938      -1.21688058      -2.04930550
15
Frame=8 idx=008459 GeodesicLength=0.5311933117495018 rxn_smarts="[C:1]1([H:8])([H:9])[C@@:2]2([H:10])[C@@:3]3([H:11])[O:4][C:5]([H:12])([H:13])[C@:6]1([H:14])[C@@:7]23[H:15]>>[C:1]1([H:8])([H:9])[C:2]([H:10])=[C:7]([H:15])[C@:3]2([H:11])[O:4][C:5]([H:12])([H:13])[C@@:6]12[H:14]"
C        0.83030308       1.10711291       0.26636808
C        1.55836051      -0.01070190      -0.45574220
C        0.01789976      -1.26150275       0.16279254
O       -1.34368282      -1.41250638       0.48313827
C       -1.64603229      -0.03005983       0.64917177
C       -0.49623780       0.50825241      -0.19344861
C        0.52052663      -0.72884078      -1.09197937
H        0.96440163       1.14846490       1.35091750
H        1.04367897       2.09683479      -0.14623591
H        2.57392718       0.05749167      -0.82139096
H        0.61561731      -1.67837544       0.96777186
H       -1.59400375       0.23960336       1.70963185
H       -2.64678001       0.18317162       0.26277383
H       -0.88136856       0.99899105      -1.08425614
H        0.48339015      -1.21793563      -2.05951250
15
Frame=9 idx=008459 GeodesicLength=0.5973922808804315 rxn_smarts="[C:1]1([H:8])([H:9])[C@@:2]2([H:10])[C@@:3]3([H:11])[O:4][C:5]([H:12])([H:13])[C@:6]1([H:14])[C@@:7]23[H:15]>>[C:1]1([H:8])([H:9])[C:2]([H:10])=[C:7]([H:15])[C@:3]2([H:11])[O:4][C:5]([H:12])([H:13])[C@@:6]12[H:14]"
C        0.82507099       1.11096232       0.26171905
C        1.55107449      -0.01936015      -0.44577954
C        0.02774840      -1.24228711       0.15921917
O       -1.32838125      -1.40765446       0.50092917
C       -1.64608230      -0.02643234       0.65471519
C       -0.50347407       0.51313221      -0.19483028
C        0.51434143      -0.71817778      -1.10729064
H        0.96044512       1.15907464       1.34589889
H        1.04665375       2.09467012      -0.15954336
H        2.57700910       0.03016328      -0.78470685
H        0.62748458      -1.70405954       0.93812411
H       -1.59949183       0.25044273       1.71325288
H       -2.64909951       0.17060969       0.26553023
H       -0.89839104       1.00796055      -1.07883223
H        0.49509213      -1.21904417      -2.06840578
15
Frame=10 idx=008459 GeodesicLength=0.663555490997838 rxn_smarts="[C:1]1([H:8])([H:9])[C@@:2]2([H:10])[C@@:3]3([H:11])[O:4][C:5]([H:12])([H:13])[C@:6]1([H:14])[C@@:7]23[H:15]>>[C:1]1([H:8])([H:9])[C:2]([H:10])=[C:7]([H:15])[C@:3]2([H:11])[O:4][C:5]([H:12])([H:13])[C@@:6]12[H:14]"
C        0.82006676       1.11482403       0.25712339
C        1.54392510      -0.02763826      -0.43604940
C        0.03755659      -1.22328873       0.15633207
O       -1.31293144      -1.40246315       0.51871232
C       -1.64604330      -0.02273391       0.66019768
C       -0.51044942       0.51782376      -0.19609776
C        0.50883031      -0.70797655      -1.12159563
H        0.95683922       1.16962115       1.34088119
H        1.04953651       2.09247809      -0.17266952
H        2.57885951       0.00377569      -0.74900847
H        0.63789250      -1.73007696       0.90678654
H       -1.60516249       0.26142506       1.71672834
H       -2.65106850       0.15801025       0.26816921
H       -0.91500816       1.01637066      -1.07341147
H        0.50715681      -1.22015112      -2.07609849
15
Frame=11 idx=008459 GeodesicLength=0.7297243752590814 rxn_smarts="[C:1]1([H:8])([H:9])[C@@:2]2([H:10])[C@@:3]3([H:11])[O:4][C:5]([H:12])([H:13])[C@:6]1([H:14])[C@@:7]23[H:15]>>[C:1]1([H:8])([H:9])[C:2]([H:10])=[C:7]([H:15])[C@:3]2([H:11])[O:4][C:5]([H:12])([H:13])[C@@:6]12[H:14]"
C        0.81526507       1.11865486       0.25256329
C        1.53692478      -0.03556074      -0.42651573
C        0.04734870      -1.20450771       0.15412825
O       -1.29732837      -1.39691681       0.53652330
C       -1.64588620      -0.01899525       0.66564255
C       -0.51714021       0.52227849      -0.19724432
C        0.50398593      -0.69823595      -1.13493017
H        0.95351481       1.18008893       1.33583796
H        1.05231385       2.09018608      -0.18565287
H        2.57959384      -0.02167798      -0.71427191
H        0.64666645      -1.75616398       0.87377897
H       -1.61100340       0.27250496       1.72006606
H       -2.65262550       0.14532855       0.27073503
H       -0.93117190       1.02417455      -1.06797773
H        0.51954217      -1.22115800      -2.08268269
15
Frame=12 idx=008459 GeodesicLength=0.7958876624103498 rxn_smarts="[C:1]1([H:8])([H:9])[C@@:2]2([H:10])[C@@:3]3([H:11])[O:4][C:5]([H:12])([H:13])[C@:6]1([H:14])[C@@:7]23[H:15]>>[C:1]1([H:8])([H:9])[C:2]([H:10])=[C:7]([H:15])[C@:3]2([H:11])[O:4][C:5]([H:12])([H:13])[C@@:6]12[H:14]"
C        0.81066586       1.12248581       0.24802177
C        1.53012123      -0.04316317      -0.41713483
C        0.05716194      -1.18602367       0.15256730
O       -1.28158645      -1.39108422       0.55435723
C       -1.64561524      -0.01524018       0.67107244
C       -0.52357572       0.52648120      -0.19828137
C        0.49977392      -0.68899174      -1.14736431
H        0.95049489       1.19055718       1.33076147
H        1.05497148       2.08784267      -0.19855598
H        2.57942789      -0.04627400      -0.68027615
H        0.65375387      -1.78217052       0.83911635
H       -1.61695549       0.28365277       1.72329588
H       -2.65381993       0.13257033       0.27328136
H       -0.94697686       1.03138512      -1.06254425
H        0.53215860      -1.22202758      -2.08831692
15
Frame=13 idx=008459 GeodesicLength=0.862021370392425 rxn_smarts="[C:1]1([H:8])([H:9])[C@@:2]2([H:10])[C@@:3]3([H:11])[O:4][C:5]([H:12])([H:13])[C@:6]1([H:14])[C@@:7]23[H:15]>>[C:1]1([H:8])([H:9])[C:2]([H:10])=[C:7]([H:15])[C@:3]2([H:11])[O:4][C:5]([H:12])([H:13])[C@@:6]12[H:14]"
C        0.80626738       1.12628347       0.24349634
C        1.52352833      -0.05046381      -0.40789912
C        0.06700668      -1.16786695       0.15161462
O       -1.26572084      -1.38498865       0.57221468
C       -1.64521832      -0.01150925       0.67649236
C       -0.52973791       0.53039753      -0.19920322
C        0.49617038      -0.68023775      -1.15894986
H        0.94775573       1.20098755       1.32564271
H        1.05752591       2.08541763      -0.21136834
H        2.57845163      -0.07002494      -0.64704080
H        0.65901951      -1.80775998       0.80293683
H       -1.62301132       0.29480502       1.72641483
H       -2.65462276       0.11969397       0.27583307
H       -0.96238592       1.03799206      -1.05709119
H        0.54497152      -1.22272590      -2.09309291
15
Frame=14 idx=008459 GeodesicLength=0.9281525881216969 rxn_smarts="[C:1]1([H:8])([H:9])[C@@:2]2([H:10])[C@@:3]3([H:11])[O:4][C:5]([H:12])([H:13])[C@:6]1([H:14])[C@@:7]23[H:15]>>[C:1]1([H:8])([H:9])[C:2]([H:10])=[C:7]([H:15])[C@:3]2([H:11])[O:4][C:5]([H:12])([H:13])[C@@:6]12[H:14]"
C        0.80206244       1.13002917       0.23897499
C        1.51716840      -0.05750438      -0.39878558
C        0.07690062      -1.15008381       0.15120476
O       -1.24974227      -1.37866194       0.59007508
C       -1.64468460      -0.00782895       0.68191957
C       -0.53563286       0.53399822      -0.20001517
C        0.49315599      -0.67197598      -1.16975908
H        0.94528397       1.21138766       1.32047046
H        1.05997300       2.08288868      -0.22412035
H        2.57678567      -0.09297217      -0.61447468
H        0.66236645      -1.83267236       0.76539440
H       -1.62912734       0.30591139       1.72944431
H       -2.65503435       0.10669013       0.27843554
H       -0.97743067       1.04399172      -1.05160824
H        0.55795555      -1.22319738      -2.09715603
15
Frame=15 idx=008459 GeodesicLength=0.9942770701216592 rxn_smarts="[C:1]1([H:8])([H:9])[C@@:2]2([H:10])[C@@:3]3([H:11])[O:4][C:5]([H:12])([H:13])[C@:6]1([H:14])[C@@:7]23[H:15]>>[C:1]1([H:8])([H:9])[C:2]([H:10])=[C:7]([H:15])[C@:3]2([H:11])[O:4][C:5]([H:12])([H:13])[C@@:6]12[H:14]"
C        0.79804816       1.13368610       0.23446198
C        1.51105416      -0.06431651      -0.38981050
C        0.08684668      -1.13271775       0.15126136
O       -1.23367132      -1.37213748       0.60790720
C       -1.64401635      -0.00422999       0.68735464
C       -0.54126479       0.53725990      -0.20072265
C        0.49069904      -0.66419583      -1.17987824
H        0.94307845       1.22169888       1.31525504
H        1.06231779       2.08023304      -0.23678655
H        2.57452255      -0.11515830      -0.58256776
H        0.66376452      -1.85656080       0.72674537
H       -1.63528826       0.31690949       1.73239504
H       -2.65506305       0.09355805       0.28111089
H       -0.99211945       1.04939745      -1.04608901
H        0.57109187      -1.22342624      -2.10063681
15
Frame=16 idx=008459 GeodesicLength=1.06036820960614 rxn_smarts="[C:1]1([H:8])([H:9])[C@@:2]2([H:10])[C@@:3]3([H:11])[O:4][C:5]([H:12])([H:13])[C@:6]1([H:14])[C@@:7]23[H:15]>>[C:1]1([H:8])([H:9])[C:2]([H:10])=[C:7]([H:15])[C@:3]2([H:11])[O:4][C:5]([H:12])([H:13])[C@@:6]12[H:14]"
C        0.79422803       1.13721070       0.22996590
C        1.50518679      -0.07093443      -0.38098701
C        0.09683052      -1.11581076       0.15169883
O       -1.21753850      -1.36545423       0.62566153
C       -1.64321011      -0.00074640       0.69278162
C       -0.54662876       0.54016238      -0.20133152
C        0.48876275      -0.65688031      -1.18938046
H        0.94113882       1.23184103       1.31000064
H        1.06458121       2.07742997      -0.24931944
H        2.57171926      -0.13658382      -0.55138364
H        0.66319386      -1.87908982       0.68733544
H       -1.64147357       0.32772369       1.73525212
H       -2.65470197       0.08029548       0.28385968
H       -1.00643803       1.05423154      -1.04051797
H        0.58434970      -1.22339503      -2.10363572
