16
Frame=0 idx=009584 GeodesicLength=0.0 rxn_smarts="[C:1]([C:2]1([C:3]([H:11])([H:12])[H:13])[N:4]([H:14])[C:5]([H:15])([H:16])[C:6]1=[O:7])([H:8])([H:9])[H:10]>>[C:1]([C:2]1([C:3]([H:11])([H:12])[H:13])[N+:4]([H:14])([H:15])[C:5]([H:16])=[C:6]1[O-:7])([H:8])([H:9])[H:10]"
C        1.35135211      -0.80369161      -0.08807842
C        0.16728817       0.14399297      -0.04385387
C        0.52146344       1.56956523      -0.39975058
N       -0.97293437      -0.41807578      -0.83081987
C       -1.74396787      -0.63932306       0.56675377
C       -0.62995695      -0.07555032       1.26398211
O       -0.33202592       0.16074765       2.40911861
H        2.07813988      -0.49754572       0.66483611
H        1.83638373      -0.78744308      -1.06701946
H        1.04735904      -1.82690443       0.14546902
H        1.00316705       1.62681684      -1.37862204
H        1.20740810       1.96590583       0.35040750
H       -0.36861945       2.20011665      -0.41048461
H       -0.82340924      -1.24285128      -1.39642794
H       -1.95915151       0.12139215      -0.50177653
H       -2.38249620      -1.49715211       0.71626623
16
Frame=1 idx=009584 GeodesicLength=0.04803584700687822 rxn_smarts="[C:1]([C:2]1([C:3]([H:11])([H:12])[H:13])[N:4]([H:14])[C:5]([H:15])([H:16])[C:6]1=[O:7])([H:8])([H:9])[H:10]>>[C:1]([C:2]1([C:3]([H:11])([H:12])[H:13])[N+:4]([H:14])([H:15])[C:5]([H:16])=[C:6]1[O-:7])([H:8])([H:9])[H:10]"
C        1.35355753      -0.80465160      -0.08841570
C        0.16908442       0.14231936      -0.04254798
C        0.52228946       1.56815936      -0.39868354
N       -0.97526443      -0.41782304      -0.82685763
C       -1.74318417      -0.63830777       0.56208329
C       -0.63053704      -0.07458542       1.26419940
O       -0.33684756       0.16560075       2.40949475
H        2.08160185      -0.49820302       0.66319951
H        1.83726335      -0.78827663      -1.06806262
H        1.05066844      -1.82809153       0.14552100
H        1.00145964       1.62574878      -1.37880663
H        1.21001579       1.96427066       0.34997376
H       -0.36759076       2.19904691      -0.40642224
H       -0.82334792      -1.24227367      -1.39247784
H       -1.97435945       0.12798845      -0.50742150
H       -2.37480913      -1.50092158       0.71522397
16
Frame=2 idx=009584 GeodesicLength=0.0960731903148348 rxn_smarts="[C:1]([C:2]1([C:3]([H:11])([H:12])[H:13])[N:4]([H:14])[C:5]([H:15])([H:16])[C:6]1=[O:7])([H:8])([H:9])[H:10]>>[C:1]([C:2]1([C:3]([H:11])([H:12])[H:13])[N+:4]([H:14])([H:15])[C:5]([H:16])=[C:6]1[O-:7])([H:8])([H:9])[H:10]"
C        1.35580871      -0.80561445      -0.08876980
C        0.17091430       0.14061911      -0.04122329
C        0.52310153       1.56674280      -0.39759101
N       -0.97753275      -0.41755775      -0.82292707
C       -1.74242969      -0.63718788       0.55743997
C       -0.63107284      -0.07367330       1.26442804
O       -0.34164215       0.17043439       2.40985191
H        2.08511361      -0.49885913       0.66153626
H        1.83818355      -0.78908265      -1.06912260
H        1.05404406      -1.82929153       0.14553194
H        0.99975913       1.62469739      -1.37894573
H        1.21258419       1.96264164       0.34957290
H       -0.36659647       2.19792375      -0.40234964
H       -0.82325631      -1.24172060      -1.38850448
H       -1.98972591       0.13435097      -0.51312190
H       -2.36725296      -1.50442277       0.71419451
16
Frame=3 idx=009584 GeodesicLength=0.1441121016920995 rxn_smarts="[C:1]([C:2]1([C:3]([H:11])([H:12])[H:13])[N:4]([H:14])[C:5]([H:15])([H:16])[C:6]1=[O:7])([H:8])([H:9])[H:10]>>[C:1]([C:2]1([C:3]([H:11])([H:12])[H:13])[N+:4]([H:14])([H:15])[C:5]([H:16])=[C:6]1[O-:7])([H:8])([H:9])[H:10]"
C        1.35810566      -0.80657994      -0.08914050
C        0.17277827       0.13889286      -0.03987954
C        0.52390125       1.56531578      -0.39647310
N       -0.97973873      -0.41727962      -0.81902813
C       -1.74170300      -0.63596427       0.55282283
C       -0.63156416      -0.07281307       1.26466833
O       -0.34640927       0.17524881       2.41019001
H        2.08867533      -0.49951385       0.65984637
H        1.83914406      -0.78986164      -1.07019926
H        1.05748572      -1.83050397       0.14550256
H        0.99806724       1.62366208      -1.37903962
H        1.21511481       1.96101905       0.34920508
H       -0.36563488       2.19674787      -0.39826768
H       -0.82313486      -1.24119221      -1.38450760
H       -2.00525878       0.14048216      -0.51887615
H       -2.35982867      -1.50766004       0.71317640
16
Frame=4 idx=009584 GeodesicLength=0.19215313499203635 rxn_smarts="[C:1]([C:2]1([C:3]([H:11])([H:12])[H:13])[N:4]([H:14])[C:5]([H:15])([H:16])[C:6]1=[O:7])([H:8])([H:9])[H:10]>>[C:1]([C:2]1([C:3]([H:11])([H:12])[H:13])[N+:4]([H:14])([H:15])[C:5]([H:16])=[C:6]1[O-:7])([H:8])([H:9])[H:10]"
C        1.36044870      -0.80754812      -0.08952820
C        0.17467700       0.13714090      -0.03851680
C        0.52469031       1.56387842      -0.39532959
N       -0.98188138      -0.41698915      -0.81516120
C       -1.74100295      -0.63463697       0.54823053
C       -0.63201035      -0.07200485       1.26492038
O       -0.35115058       0.18004753       2.41050846
H        2.09228686      -0.50016783       0.65813011
H        1.84014536      -0.79061320      -1.07129294
H        1.06099215      -1.83172840       0.14543285
H        0.99638342       1.62264439      -1.37908932
H        1.21761134       1.95940218       0.34886942
H       -0.36470419       2.19551992      -0.39417326
H       -0.82298400      -1.24069189      -1.38048424
H       -2.02096515       0.14638484      -0.52468294
H       -2.35253655      -1.51063777       0.71216675
16
Frame=5 idx=009584 GeodesicLength=0.24019660197329445 rxn_smarts="[C:1]([C:2]1([C:3]([H:11])([H:12])[H:13])[N:4]([H:14])[C:5]([H:15])([H:16])[C:6]1=[O:7])([H:8])([H:9])[H:10]>>[C:1]([C:2]1([C:3]([H:11])([H:12])[H:13])[N+:4]([H:14])([H:15])[C:5]([H:16])=[C:6]1[O-:7])([H:8])([H:9])[H:10]"
C        1.36283822      -0.80851899      -0.08993334
C        0.17661120       0.13536342      -0.03713520
C        0.52547037       1.56243078      -0.39416020
N       -0.98395963      -0.41668697      -0.81132672
C       -1.74032822      -0.63320597       0.54366160
C       -0.63241064      -0.07124894       1.26518421
O       -0.35586784       0.18483420       2.41080641
H        2.09594801      -0.50082167       0.65638775
H        1.84118795      -0.79133681      -1.07240389
H        1.06456220      -1.83296425       0.14532250
H        0.99470715       1.62164584      -1.37909559
H        1.22007732       1.95779035       0.34856511
H       -0.36380253       2.19424041      -0.39006331
H       -0.82280400      -1.24022306      -1.37643145
H       -2.03685213       0.15206128      -0.53054060
H       -2.34537742      -1.51335961       0.71116276
16
Frame=6 idx=009584 GeodesicLength=0.28824523755891573 rxn_smarts="[C:1]([C:2]1([C:3]([H:11])([H:12])[H:13])[N:4]([H:14])[C:5]([H:15])([H:16])[C:6]1=[O:7])([H:8])([H:9])[H:10]>>[C:1]([C:2]1([C:3]([H:11])([H:12])[H:13])[N+:4]([H:14])([H:15])[C:5]([H:16])=[C:6]1[O-:7])([H:8])([H:9])[H:10]"
C        1.36527283      -0.80949279      -0.09035447
C        0.17858048       0.13356139      -0.03573367
C        0.52624444       1.56097284      -0.39296414
N       -0.98597413      -0.41637005      -0.80752499
C       -1.73967891      -0.63167203       0.53911416
C       -0.63276729      -0.07054288       1.26545993
O       -0.36056908       0.18961944       2.41108285
H        2.09966144      -0.50147479       0.65461628
H        1.84226710      -0.79203623      -1.07353245
H        1.06819524      -1.83421142       0.14517517
H        0.99303718       1.62066458      -1.37906002
H        1.22252168       1.95617932       0.34828978
H       -0.36292482       2.19291251      -0.38593045
H       -0.82259549      -1.23978157      -1.37235132
H       -2.05293165       0.15751183      -0.53644698
H       -2.33833901      -1.51584015       0.71016031
16
Frame=7 idx=009584 GeodesicLength=0.336305050475542 rxn_smarts="[C:1]([C:2]1([C:3]([H:11])([H:12])[H:13])[N:4]([H:14])[C:5]([H:15])([H:16])[C:6]1=[O:7])([H:8])([H:9])[H:10]>>[C:1]([C:2]1([C:3]([H:11])([H:12])[H:13])[N+:4]([H:14])([H:15])[C:5]([H:16])=[C:6]1[O-:7])([H:8])([H:9])[H:10]"
C        1.36775025      -0.81047009      -0.09079029
C        0.18058439       0.13173642      -0.03431158
C        0.52701593       1.55950502      -0.39174219
N       -0.98792658      -0.41603296      -0.80375659
C       -1.73905339      -0.63003816       0.53458660
C       -0.63308278      -0.06988312       1.26574737
O       -0.36525932       0.19441049       2.41133678
H        2.10342396      -0.50213018       0.65281894
H        1.84338211      -0.79271340      -1.07467656
H        1.07188870      -1.83547029       0.14499240
H        0.99137438       1.61969780      -1.37898493
H        1.22495165       1.95456763       0.34804023
H       -0.36206553       2.19153959      -0.38177338
H       -0.82236101      -1.23936014      -1.36824763
H       -2.06921827       0.16273811      -0.54239587
H       -2.33140450      -1.51809672       0.70915670
16
Frame=8 idx=009584 GeodesicLength=0.3843731800389608 rxn_smarts="[C:1]([C:2]1([C:3]([H:11])([H:12])[H:13])[N:4]([H:14])[C:5]([H:15])([H:16])[C:6]1=[O:7])([H:8])([H:9])[H:10]>>[C:1]([C:2]1([C:3]([H:11])([H:12])[H:13])[N+:4]([H:14])([H:15])[C:5]([H:16])=[C:6]1[O-:7])([H:8])([H:9])[H:10]"
C        1.37026901      -0.81145262      -0.09124088
C        0.18262329       0.12988863      -0.03286804
C        0.52778800       1.55802715      -0.39049219
N       -0.98981707      -0.41567274      -0.80002153
C       -1.73845087      -0.62830550       0.53007720
C       -0.63335750      -0.06926985       1.26604678
O       -0.36994932       0.19922890       2.41156468
H        2.10723823      -0.50278978       0.65099132
H        1.84453087      -0.79337152      -1.07583651
H        1.07564212      -1.83674301       0.14477282
H        0.98971746       1.61874405      -1.37887010
H        1.22737333       1.95295154       0.34781759
H       -0.36121973       2.19012368      -0.37758304
H       -0.82210071      -1.23895336      -1.36412391
H       -2.08572343       0.16773534      -0.54838452
H       -2.32456367      -1.52014091       0.70815031
16
Frame=9 idx=009584 GeodesicLength=0.43245287553465434 rxn_smarts="[C:1]([C:2]1([C:3]([H:11])([H:12])[H:13])[N:4]([H:14])[C:5]([H:15])([H:16])[C:6]1=[O:7])([H:8])([H:9])[H:10]>>[C:1]([C:2]1([C:3]([H:11])([H:12])[H:13])[N+:4]([H:14])([H:15])[C:5]([H:16])=[C:6]1[O-:7])([H:8])([H:9])[H:10]"
C        1.37283006      -0.81243999      -0.09170626
C        0.18469800       0.12801820      -0.03140301
C        0.52856208       1.55653930      -0.38921410
N       -0.99164439      -0.41529020      -0.79632026
C       -1.73787005      -0.62647380       0.52558443
C       -0.63359107      -0.06870318       1.26635824
O       -0.37463882       0.20407375       2.41176581
H        2.11110523      -0.50345286       0.64913321
H        1.84571428      -0.79401050      -1.07701247
H        1.07945688      -1.83802921       0.14451682
H        0.98806855       1.61780309      -1.37871539
H        1.22978744       1.95133145       0.34762262
H       -0.36038621       2.18866477      -0.37336042
H       -0.82181401      -1.23856285      -1.35997979
H       -2.10245704       0.17250382      -0.55440900
H       -2.31782092      -1.52197178       0.70713958
16
Frame=10 idx=009584 GeodesicLength=0.48055005047198696 rxn_smarts="[C:1]([C:2]1([C:3]([H:11])([H:12])[H:13])[N:4]([H:14])[C:5]([H:15])([H:16])[C:6]1=[O:7])([H:8])([H:9])[H:10]>>[C:1]([C:2]1([C:3]([H:11])([H:12])[H:13])[N+:4]([H:14])([H:15])[C:5]([H:16])=[C:6]1[O-:7])([H:8])([H:9])[H:10]"
C        1.37543426      -0.81343178      -0.09218648
C        0.18680941       0.12612527      -0.02991654
C        0.52933959       1.55504146      -0.38790782
N       -0.99340710      -0.41488616      -0.79265312
C       -1.73730921      -0.62454362       0.52110690
C       -0.63378279      -0.06818319       1.26668146
O       -0.37932764       0.20894448       2.41193908
H        2.11502575      -0.50411860       0.64724429
H        1.84693303      -0.79463023      -1.07820434
H        1.08333430      -1.83932841       0.14422465
H        0.98642980       1.61687458      -1.37852041
H        1.23219461       1.94970764       0.34745612
H       -0.35956354       2.18716282      -0.36910657
H       -0.82150024      -1.23819030      -1.35581474
H       -2.11942936       0.17704503      -0.56046559
H       -2.31118086      -1.52358900       0.70612313
16
Frame=11 idx=009584 GeodesicLength=0.5286479918131436 rxn_smarts="[C:1]([C:2]1([C:3]([H:11])([H:12])[H:13])[N:4]([H:14])[C:5]([H:15])([H:16])[C:6]1=[O:7])([H:8])([H:9])[H:10]>>[C:1]([C:2]1([C:3]([H:11])([H:12])[H:13])[N+:4]([H:14])([H:15])[C:5]([H:16])=[C:6]1[O-:7])([H:8])([H:9])[H:10]"
C        1.37808075      -0.81442866      -0.09268230
C        0.18895790       0.12421058      -0.02840875
C        0.53012351       1.55353399      -0.38657260
N       -0.99510526      -0.41445709      -0.78902137
C       -1.73676897      -0.62251051       0.51664122
C       -0.63393349      -0.06770929       1.26701606
O       -0.38401899       0.21384714       2.41208147
H        2.11900180      -0.50478728       0.64532061
H        1.84818552      -0.79523289      -1.07941335
H        1.08727300      -1.84064002       0.14390015
H        0.98480456       1.61595815      -1.37828410
H        1.23459706       1.94807970       0.34731980
H       -0.35874806       2.18561868      -0.36481646
H       -0.82116104      -1.23783408      -1.35162781
H       -2.13665059       0.18134761      -0.56655064
H       -2.30463769      -1.52499603       0.70509807
16
Frame=12 idx=009584 GeodesicLength=0.5767631792776283 rxn_smarts="[C:1]([C:2]1([C:3]([H:11])([H:12])[H:13])[N:4]([H:14])[C:5]([H:15])([H:16])[C:6]1=[O:7])([H:8])([H:9])[H:10]>>[C:1]([C:2]1([C:3]([H:11])([H:12])[H:13])[N+:4]([H:14])([H:15])[C:5]([H:16])=[C:6]1[O-:7])([H:8])([H:9])[H:10]"
C        1.38077155      -0.81542929      -0.09319284
C        0.19114447       0.12227424      -0.02687958
C        0.53091428       1.55201699      -0.38520907
N       -0.99673625      -0.41400684      -0.78542480
C       -1.73624652      -0.62037667       0.51218694
C       -0.63404225      -0.06728139       1.26736200
O       -0.38870902       0.21877393       2.41219353
H        2.12303238      -0.50545784       0.64336603
H        1.84947453      -0.79581638      -1.08063811
H        1.09127587      -1.84196381       0.14354026
H        0.98319451       1.61505403      -1.37800683
H        1.23699461       1.94644844       0.34721354
H       -0.35793979       2.18403237      -0.36049715
H       -0.82079391      -1.23749764      -1.34741930
H       -2.15413166       0.18541801      -0.57265879
H       -2.29820281      -1.52618816       0.70406416
16
Frame=13 idx=009584 GeodesicLength=0.6248886432525165 rxn_smarts="[C:1]([C:2]1([C:3]([H:11])([H:12])[H:13])[N:4]([H:14])[C:5]([H:15])([H:16])[C:6]1=[O:7])([H:8])([H:9])[H:10]>>[C:1]([C:2]1([C:3]([H:11])([H:12])[H:13])[N+:4]([H:14])([H:15])[C:5]([H:16])=[C:6]1[O-:7])([H:8])([H:9])[H:10]"
C        1.38350832      -0.81643211      -0.09371814
C        0.19337006       0.12031699      -0.02532976
C        0.53171239       1.55049109      -0.38381847
N       -0.99829779      -0.41353805      -0.78186378
C       -1.73574068      -0.61813930       0.50774230
C       -0.63410806      -0.06689893       1.26771898
O       -0.39338790       0.22370938       2.41227574
H        2.12711689      -0.50612801       0.64138241
H        1.85080242      -0.79637887      -1.08187818
H        1.09534457      -1.84329809       0.14314531
H        0.98160637       1.61416242      -1.37768703
H        1.23938173       1.94481769       0.34714019
H       -0.35713955       2.18240291      -0.35615883
H       -0.82039757      -1.23718508      -1.34318787
H       -2.17187950       0.18925360      -0.57878450
H       -2.29189169      -1.52715565       0.70302160
16
Frame=14 idx=009584 GeodesicLength=0.6730209460999498 rxn_smarts="[C:1]([C:2]1([C:3]([H:11])([H:12])[H:13])[N:4]([H:14])[C:5]([H:15])([H:16])[C:6]1=[O:7])([H:8])([H:9])[H:10]>>[C:1]([C:2]1([C:3]([H:11])([H:12])[H:13])[N+:4]([H:14])([H:15])[C:5]([H:16])=[C:6]1[O-:7])([H:8])([H:9])[H:10]"
C        1.38629223      -0.81743574      -0.09425791
C        0.19563540       0.11833979      -0.02376027
C        0.53251857       1.54895704      -0.38240225
N       -0.99978786      -0.41305297      -0.77833902
C       -1.73524995      -0.61579616       0.50330547
C       -0.63413036      -0.06656067       1.26808623
O       -0.39804610       0.22863827       2.41232871
H        2.13125399      -0.50679594       0.63937231
H        1.85217151      -0.79691892      -1.08313261
H        1.09947984      -1.84464130       0.14271586
H        0.98004743       1.61328332      -1.37732344
H        1.24175334       1.94319122       0.34710243
H       -0.35634781       2.18072993      -0.35181212
H       -0.81997106      -1.23689988      -1.33893265
H       -2.18990279       0.19285291      -0.58492115
H       -2.28571639      -1.52789089       0.70197039
16
Frame=15 idx=009584 GeodesicLength=0.7211576125756649 rxn_smarts="[C:1]([C:2]1([C:3]([H:11])([H:12])[H:13])[N:4]([H:14])[C:5]([H:15])([H:16])[C:6]1=[O:7])([H:8])([H:9])[H:10]>>[C:1]([C:2]1([C:3]([H:11])([H:12])[H:13])[N+:4]([H:14])([H:15])[C:5]([H:16])=[C:6]1[O-:7])([H:8])([H:9])[H:10]"
C        1.38912348      -0.81843879      -0.09481171
C        0.19794059       0.11634404      -0.02217351
C        0.53333362       1.54741581      -0.38096276
N       -1.00120554      -0.41255284      -0.77485176
C       -1.73477292      -0.61334537       0.49887433
C       -0.63410950      -0.06626365       1.26846163
O       -0.40267314       0.23354471       2.41235230
H        2.13543973      -0.50746066       0.63734037
H        1.85358512      -0.79743432      -1.08439921
H        1.10368151      -1.84599179       0.14225215
H        0.97852782       1.61241786      -1.37691427
H        1.24410536       1.94157077       0.34710241
H       -0.35556499       2.17901325      -0.34746840
H       -0.81951335      -1.23664371      -1.33465381
H       -2.20821297       0.19621342      -0.59106129
H       -2.27968483      -1.52838873       0.70091353
16
Frame=16 idx=009584 GeodesicLength=0.7693011881971843 rxn_smarts="[C:1]([C:2]1([C:3]([H:11])([H:12])[H:13])[N:4]([H:14])[C:5]([H:15])([H:16])[C:6]1=[O:7])([H:8])([H:9])[H:10]>>[C:1]([C:2]1([C:3]([H:11])([H:12])[H:13])[N+:4]([H:14])([H:15])[C:5]([H:16])=[C:6]1[O-:7])([H:8])([H:9])[H:10]"
C        1.39200251      -0.81944197      -0.09537937
C        0.20028681       0.11432969      -0.02056798
C        0.53416120       1.54586709      -0.37949811
N       -1.00254912      -0.41203610      -0.77140315
C       -1.73430890      -0.61078608       0.49444560
C       -0.63404618      -0.06600879       1.26884538
O       -0.40727928       0.23844334       2.41234423
H        2.13967785      -0.50812277       0.63528338
H        1.85504166      -0.79792753      -1.08567896
H        1.10794994      -1.84735018       0.14175485
H        0.97704395       1.61156470      -1.37646127
H        1.24644533       1.93995456       0.34713934
H       -0.35478566       2.17725507      -0.34311872
H       -0.81902428      -1.23641621      -1.33035152
H       -2.22682396       0.19933114      -0.59719749
H       -2.27379187      -1.52865597       0.69984379
