14
Frame=0 idx=002449 GeodesicLength=0.0 rxn_smarts="[C:1]([C:2]([N:3]([C:4]([C:5]#[N:6])([H:13])[H:14])[H:12])([H:10])[H:11])([H:7])([H:8])[H:9]>>[C:1]([C:2]([N:3]=[C:4]([H:13])[H:14])([H:10])[H:11])([H:7])([H:8])[H:9].[C:5]=[N:6][H:12]"
C        2.02573578       0.10003080       0.24635009
C        0.61689796       0.66017562       0.27726703
N       -0.32429962      -0.22701673      -0.39153365
C       -1.32891399       0.13613226      -1.08564630
C       -2.82633660      -0.69157404       0.82128160
N       -2.25015946      -1.66673296       1.09917763
H        2.39431461       0.00426324      -0.77559976
H        2.06620666      -0.87945079       0.72551284
H        2.69442201       0.76439849       0.79295157
H        0.25563586       0.76465317       1.30452706
H        0.55919960       1.63560151      -0.20683000
H       -0.41516260      -1.16934719      -0.00053865
H       -2.02957159      -0.60638097      -1.43254544
H       -1.43796856       1.17524755      -1.37437401
14
Frame=1 idx=002449 GeodesicLength=0.07493096771647054 rxn_smarts="[C:1]([C:2]([N:3]([C:4]([C:5]#[N:6])([H:13])[H:14])[H:12])([H:10])[H:11])([H:7])([H:8])[H:9]>>[C:1]([C:2]([N:3]=[C:4]([H:13])[H:14])([H:10])[H:11])([H:7])([H:8])[H:9].[C:5]=[N:6][H:12]"
C        2.02020508       0.09576815       0.24856114
C        0.61535327       0.66659664       0.27364635
N       -0.32661656      -0.22138555      -0.39303415
C       -1.34633354       0.15390040      -1.06661534
C       -2.82094730      -0.72372926       0.82975954
N       -2.21968072      -1.68512009       1.10050873
H        2.38787175      -0.01078817      -0.77269784
H        2.05258709      -0.88049922       0.73503902
H        2.69437958       0.75868553       0.79022383
H        0.25577745       0.78208419       1.30052844
H        0.56669538       1.64007616      -0.21594859
H       -0.43163839      -1.17015742       0.01652737
H       -2.02942727      -0.58920748      -1.44753372
H       -1.41822584       1.18377612      -1.39896478
14
Frame=2 idx=002449 GeodesicLength=0.14905361482937113 rxn_smarts="[C:1]([C:2]([N:3]([C:4]([C:5]#[N:6])([H:13])[H:14])[H:12])([H:10])[H:11])([H:7])([H:8])[H:9]>>[C:1]([C:2]([N:3]=[C:4]([H:13])[H:14])([H:10])[H:11])([H:7])([H:8])[H:9].[C:5]=[N:6][H:12]"
C        2.01504807       0.09174284       0.25064998
C        0.61399943       0.67252014       0.26975810
N       -0.32838531      -0.21657201      -0.39489523
C       -1.36224901       0.17029825      -1.04888387
C       -2.81569845      -0.75326944       0.83610416
N       -2.19107441      -1.70057404       1.10161406
H        2.38185445      -0.02530724      -0.76981423
H        2.03974674      -0.88123366       0.74429784
H        2.69433972       0.75337895       0.78751752
H        0.25602330       0.79879148       1.29613419
H        0.57389253       1.64392488      -0.22530809
H       -0.44713463      -1.17176013       0.03345488
H       -2.02718823      -0.57228551      -1.46351293
H       -1.40317421       1.19034550      -1.41711637
14
Frame=3 idx=002449 GeodesicLength=0.22261671621095422 rxn_smarts="[C:1]([C:2]([N:3]([C:4]([C:5]#[N:6])([H:13])[H:14])[H:12])([H:10])[H:11])([H:7])([H:8])[H:9]>>[C:1]([C:2]([N:3]=[C:4]([H:13])[H:14])([H:10])[H:11])([H:7])([H:8])[H:9].[C:5]=[N:6][H:12]"
C        2.01027626       0.08790988       0.25273984
C        0.61283083       0.67790080       0.26541411
N       -0.32948611      -0.21271755      -0.39735241
C       -1.37657387       0.18489577      -1.03290526
C       -2.81039451      -0.78015007       0.84054765
N       -2.16416460      -1.71322157       1.10269848
H        2.37646037      -0.03946416      -0.76675086
H        2.02761525      -0.88165073       0.75353578
H        2.69422650       0.74851425       0.78499364
H        0.25617665       0.81486425       1.29107726
H        0.58087504       1.64705340      -0.23522242
H       -0.46160820      -1.17425676       0.05017138
H       -2.02308946      -0.55589898      -1.48062538
H       -1.39314415       1.19622145      -1.42832182
14
Frame=4 idx=002449 GeodesicLength=0.2958823364497998 rxn_smarts="[C:1]([C:2]([N:3]([C:4]([C:5]#[N:6])([H:13])[H:14])[H:12])([H:10])[H:11])([H:7])([H:8])[H:9]>>[C:1]([C:2]([N:3]=[C:4]([H:13])[H:14])([H:10])[H:11])([H:7])([H:8])[H:9].[C:5]=[N:6][H:12]"
C        2.00579438       0.08426647       0.25485242
C        0.61174213       0.68274661       0.26069113
N       -0.33000888      -0.20976225      -0.40041578
C       -1.38957828       0.19775171      -1.01853694
C       -2.80487901      -0.80467235       0.84371431
N       -2.13867265      -1.72353232       1.10399880
H        2.37160562      -0.05319440      -0.76350476
H        2.01609291      -0.88180442       0.76270675
H        2.69395235       0.74405919       0.78272505
H        0.25612201       0.83021928       1.28545669
H        0.58755674       1.64953684      -0.24551683
H       -0.47512187      -1.17768060       0.06656395
H       -2.01759154      -0.53990235      -1.49864764
H       -1.38701392       1.20196858      -1.43408714
14
Frame=5 idx=002449 GeodesicLength=0.3689756181009312 rxn_smarts="[C:1]([C:2]([N:3]([C:4]([C:5]#[N:6])([H:13])[H:14])[H:12])([H:10])[H:11])([H:7])([H:8])[H:9]>>[C:1]([C:2]([N:3]=[C:4]([H:13])[H:14])([H:10])[H:11])([H:7])([H:8])[H:9].[C:5]=[N:6][H:12]"
C        2.00151578       0.08081606       0.25698540
C        0.61064745       0.68708507       0.25568695
N       -0.33005818      -0.20760096      -0.40405130
C       -1.40152980       0.20903607      -1.00554696
C       -2.79906060      -0.82713237       0.84611134
N       -2.11436804      -1.73191796       1.10565734
H        2.36718355      -0.06642762      -0.76010040
H        2.00508521      -0.88173745       0.77173418
H        2.69346350       0.73997272       0.78073639
H        0.25579424       0.84478805       1.27939696
H        0.59386966       1.65146560      -0.25598706
H       -0.48775588      -1.18202910       0.08253942
H       -2.01106184      -0.52409174      -1.51734562
H       -1.38372506       1.20777363      -1.43581666
14
Frame=6 idx=002449 GeodesicLength=0.44196252911076067 rxn_smarts="[C:1]([C:2]([N:3]([C:4]([C:5]#[N:6])([H:13])[H:14])[H:12])([H:10])[H:11])([H:7])([H:8])[H:9]>>[C:1]([C:2]([N:3]=[C:4]([H:13])[H:14])([H:10])[H:11])([H:7])([H:8])[H:9].[C:5]=[N:6][H:12]"
C        1.99737556       0.07756052       0.25913057
C        0.60948593       0.69094684       0.25048439
N       -0.32971600      -0.20613528      -0.40822823
C       -1.41263336       0.21891590      -0.99374561
C       -2.79288018      -0.84773884       0.84810944
N       -2.09107829      -1.73867989       1.10776037
H        2.36310959      -0.07910083      -0.75656899
H        1.99451842      -0.88149238       0.78054264
H        2.69272655       0.73621549       0.77904460
H        0.25515425       0.85852152       1.27300828
H        0.59976679       1.65292485      -0.26646327
H       -0.49958556      -1.18729623       0.09803363
H       -2.00375158      -0.50830342      -1.53654735
H       -1.38249212       1.21366175      -1.43456046
14
Frame=7 idx=002449 GeodesicLength=0.5148841572621065 rxn_smarts="[C:1]([C:2]([N:3]([C:4]([C:5]#[N:6])([H:13])[H:14])[H:12])([H:10])[H:11])([H:7])([H:8])[H:9]>>[C:1]([C:2]([N:3]=[C:4]([H:13])[H:14])([H:10])[H:11])([H:7])([H:8])[H:9].[C:5]=[N:6][H:12]"
C        1.99332676       0.07449800       0.26128147
C        0.60821553       0.69436237       0.24514441
N       -0.32904062      -0.20528108      -0.41292833
C       -1.42303965       0.22753417      -0.98299326
C       -2.78629659      -0.86663457       0.84998429
N       -2.06866964      -1.74404393       1.11035627
H        2.35932605      -0.09117213      -0.75293767
H        1.98433250      -0.88110906       0.78907701
H        2.69171962       0.73275429       0.77766384
H        0.25417248       0.87139318       1.26637624
H        0.60522146       1.65399011      -0.27682182
H       -0.51067402      -1.19348019       0.11300153
H       -1.99583542      -0.49241160      -1.55613331
H       -1.38275846       1.21960045      -1.43107066
14
Frame=8 idx=002449 GeodesicLength=0.5877658057560353 rxn_smarts="[C:1]([C:2]([N:3]([C:4]([C:5]#[N:6])([H:13])[H:14])[H:12])([H:10])[H:11])([H:7])([H:8])[H:9]>>[C:1]([C:2]([N:3]=[C:4]([H:13])[H:14])([H:10])[H:11])([H:7])([H:8])[H:9].[C:5]=[N:6][H:12]"
C        1.98933591       0.07162640       0.26342985
C        0.60680587       0.69735646       0.23971433
N       -0.32807133      -0.20497158      -0.41814205
C       -1.43285511       0.23500154      -0.97319587
C       -2.77928243      -0.88390213       0.85194293
N       -2.04704413      -1.74816905       1.11347676
H        2.35579632      -0.10259923      -0.74923393
H        1.97448298      -0.88062714       0.79728303
H        2.69042645       0.72956051       0.77660958
H        0.25282427       0.88337918       1.25957056
H        0.61021469       1.65472615      -0.28696352
H       -0.52107790      -1.20058345       0.12741840
H       -1.98742563      -0.47633289      -1.57602498
H       -1.38412996       1.22553524      -1.42588509
14
Frame=9 idx=002449 GeodesicLength=0.660624700853279 rxn_smarts="[C:1]([C:2]([N:3]([C:4]([C:5]#[N:6])([H:13])[H:14])[H:12])([H:10])[H:11])([H:7])([H:8])[H:9]>>[C:1]([C:2]([N:3]=[C:4]([H:13])[H:14])([H:10])[H:11])([H:7])([H:8])[H:9].[C:5]=[N:6][H:12]"
C        1.98537810       0.06894207       0.26557016
C        0.60523454       0.69994918       0.23422781
N       -0.32683283      -0.20515365      -0.42387036
C       -1.44215600       0.24140271      -0.96429361
C       -2.77181191      -0.89958254       0.85415135
N       -2.02612154      -1.75117382       1.11713775
H        2.35249954      -0.11334771      -0.74547957
H        1.96493347      -0.88008395       0.80511728
H        2.68883239       0.72660987       0.77590045
H        0.25108604       0.89446168       1.25264373
H        0.61473502       1.65518711      -0.29681413
H       -0.53084519      -1.20861237       0.14126886
H       -1.97860150      -0.46000966      -1.59617159
H       -1.38633013       1.23141109      -1.41938812
14
Frame=10 idx=002449 GeodesicLength=0.733474843580751 rxn_smarts="[C:1]([C:2]([N:3]([C:4]([C:5]#[N:6])([H:13])[H:14])[H:12])([H:10])[H:11])([H:7])([H:8])[H:9]>>[C:1]([C:2]([N:3]=[C:4]([H:13])[H:14])([H:10])[H:11])([H:7])([H:8])[H:9].[C:5]=[N:6][H:12]"
C        1.98143312       0.06643669       0.26770235
C        0.60348692       0.70216086       0.22870227
N       -0.32534096      -0.20578020      -0.43012301
C       -1.45100221       0.24680428      -0.95624731
C       -2.76385806      -0.91370204       0.85674189
N       -2.00582605      -1.75315567       1.12134222
H        2.34942622      -0.12340843      -0.74168518
H        1.95564493      -0.87951138       0.81255968
H        2.68692572       0.72388015       0.77555368
H        0.24893470       0.90464201       1.24562632
H        0.61878524       1.65541738      -0.30633346
H       -0.54001539      -1.21757381       0.15454049
H       -1.96941194      -0.44340025      -1.61654662
H       -1.38918224       1.23719043      -1.41183332
14
Frame=11 idx=002449 GeodesicLength=0.8063283733751445 rxn_smarts="[C:1]([C:2]([N:3]([C:4]([C:5]#[N:6])([H:13])[H:14])[H:12])([H:10])[H:11])([H:7])([H:8])[H:9]>>[C:1]([C:2]([N:3]=[C:4]([H:13])[H:14])([H:10])[H:11])([H:7])([H:8])[H:9].[C:5]=[N:6][H:12]"
C        1.97748364       0.06410182       0.26982836
C        0.60155063       0.70400735       0.22314863
N       -0.32360412      -0.20681301      -0.43691625
C       -1.45943885       0.25125697      -0.94903513
C       -2.75538713      -0.92625904       0.85983548
N       -1.98608917      -1.75419438       1.12608240
H        2.34657377      -0.13277271      -0.73785738
H        1.94658230      -0.87894002       0.81959406
H        2.68469236       0.72135169       0.77559069
H        0.24634593       0.91392016       1.23854011
H        0.62236869       1.65545424      -0.31549143
H       -0.54862287      -1.22747785       0.16722435
H       -1.95989476      -0.42647234      -1.63713512
H       -1.39256042       1.24283711      -1.40340877
14
Frame=12 idx=002449 GeodesicLength=0.8791973210436961 rxn_smarts="[C:1]([C:2]([N:3]([C:4]([C:5]#[N:6])([H:13])[H:14])[H:12])([H:10])[H:11])([H:7])([H:8])[H:9]>>[C:1]([C:2]([N:3]=[C:4]([H:13])[H:14])([H:10])[H:11])([H:7])([H:8])[H:9].[C:5]=[N:6][H:12]"
C        1.97351378       0.06192831       0.27195120
C        0.59941509       0.70550221       0.21757291
N       -0.32162664      -0.20821889      -0.44426920
C       -1.46750202       0.25479964      -0.94264643
C       -2.74635978      -0.93723284       0.86354371
N       -1.96684787      -1.75435865       1.13134179
H        2.34394329      -0.14143468      -0.73399999
H        1.93771217      -0.87839928       0.82620759
H        2.68211716       0.71900583       0.77603425
H        0.24329521       0.92229755       1.23140000
H        0.62548967       1.65532969      -0.32426687
H       -0.55669920      -1.23833561       0.17931561
H       -1.95007272      -0.40920129      -1.65793251
H       -1.39637812       1.24831801      -1.39425205
14
Frame=13 idx=002449 GeodesicLength=0.9520944579929163 rxn_smarts="[C:1]([C:2]([N:3]([C:4]([C:5]#[N:6])([H:13])[H:14])[H:12])([H:10])[H:11])([H:7])([H:8])[H:9]>>[C:1]([C:2]([N:3]=[C:4]([H:13])[H:14])([H:10])[H:11])([H:7])([H:8])[H:9].[C:5]=[N:6][H:12]"
C        1.96950860       0.05990754       0.27407408
C        0.59706959       0.70665518       0.21197896
N       -0.31940895      -0.20997063      -0.45220384
C       -1.47521959       0.25745990      -0.93708111
C       -2.73672801      -0.94657819       0.86797715
N       -1.94804497      -1.75370795       1.13709588
H        2.34153910      -0.14938322      -0.73011613
H        1.92900449      -0.87791939       0.83238451
H        2.67918182       0.71682486       0.77691111
H        0.23975644       0.92977034       1.22421780
H        0.62814936       1.65507151      -0.33264016
H       -0.56427483      -1.25015986       0.19081331
H       -1.93995983      -0.39156821      -1.67894118
H       -1.40057322       1.25359813      -1.38447038
14
Frame=14 idx=002449 GeodesicLength=1.0250347524856316 rxn_smarts="[C:1]([C:2]([N:3]([C:4]([C:5]#[N:6])([H:13])[H:14])[H:12])([H:10])[H:11])([H:7])([H:8])[H:9]>>[C:1]([C:2]([N:3]=[C:4]([H:13])[H:14])([H:10])[H:11])([H:7])([H:8])[H:9].[C:5]=[N:6][H:12]"
C        1.96545245       0.05802992       0.27620275
C        0.59450355       0.70747420       0.20636617
N       -0.31694884      -0.21204395      -0.46074632
C       -1.48261508       0.25925742      -0.93234617
C       -2.72642971      -0.95423111       0.87324928
N       -1.92962314      -1.75230094       1.14330900
H        2.33936764      -0.15661075      -0.72620403
H        1.92042758      -0.87752953       0.83811393
H        2.67586476       0.71479121       0.77825132
H        0.23570113       0.93633586       1.21699850
H        0.63034921       1.65470308      -0.34059913
H       -0.57137790      -1.26296447       0.20171580
H       -1.92956415      -0.37355499      -1.70016912
H       -1.40510750       1.25864404      -1.37414198
14
Frame=15 idx=002449 GeodesicLength=1.0980362078039205 rxn_smarts="[C:1]([C:2]([N:3]([C:4]([C:5]#[N:6])([H:13])[H:14])[H:12])([H:10])[H:11])([H:7])([H:8])[H:9]>>[C:1]([C:2]([N:3]=[C:4]([H:13])[H:14])([H:10])[H:11])([H:7])([H:8])[H:9].[C:5]=[N:6][H:12]"
C        1.96132909       0.05628642       0.27834339
C        0.59170480       0.70796368       0.20073312
N       -0.31424144      -0.21441881      -0.46992562
C       -1.48970691       0.26020293      -0.92845672
C       -2.71538687      -0.96009970       0.87948199
N       -1.91152972      -1.75019468       1.14993474
H        2.33743698      -0.16310316      -0.72226099
H        1.91195169      -0.87726028       0.84338096
H        2.67213989       0.71288758       0.78008968
H        0.23109774       0.94198463       1.20974548
H        0.63208594       1.65424475      -0.34813016
H       -0.57803701      -1.27676468       0.21202329
H       -1.91888797      -0.35514664      -1.72162880
H       -1.40995622       1.26341795      -1.36333037
14
Frame=16 idx=002449 GeodesicLength=1.1711216075298607 rxn_smarts="[C:1]([C:2]([N:3]([C:4]([C:5]#[N:6])([H:13])[H:14])[H:12])([H:10])[H:11])([H:7])([H:8])[H:9]>>[C:1]([C:2]([N:3]=[C:4]([H:13])[H:14])([H:10])[H:11])([H:7])([H:8])[H:9].[C:5]=[N:6][H:12]"
C        1.95712066       0.05466798       0.28050401
C        0.58865931       0.70812514       0.19507641
N       -0.31127940      -0.21707817      -0.47977501
C       -1.49651021       0.26029937      -0.92543481
C       -2.70349878      -0.96406246       0.88681077
N       -1.89371485      -1.74745061       1.15691222
H        2.33575655      -0.16884344      -0.71828090
H        1.90354637      -0.87714298       0.84817027
H        2.66797568       0.71109658       0.78246625
H        0.22591045       0.94670270       1.20245851
H        0.63335275       1.65371355      -0.35522075
H       -0.58428085      -1.29157720       0.22173498
H       -1.90792953      -0.33632898      -1.74333678
H       -1.41510814       1.26787852      -1.35208517
