13
Frame=0 idx=006695 GeodesicLength=0.0 rxn_smarts="[C:1]([c:2]1[c:3]([H:11])[n:4][c:5]([N:6]([H:12])[H:13])[o:7]1)([H:8])([H:9])[H:10]>>[C:1]([C@@:2]12[C:3]([H:11])=[N:4][C@:5]1([N:6]([H:12])[H:13])[O:7]2)([H:8])([H:9])[H:10]"
C       -1.76674856       0.63585611      -0.03087970
C       -0.55169842      -0.16574770       0.22690273
C       -0.13635558      -1.51345226       0.00919409
N        1.14937249      -1.57799039       0.27840625
C        1.15253620      -0.13704759       0.36862634
N        2.10976419       0.56933679      -0.23417065
O        0.37068094       0.36095261       1.31369738
H       -1.53313888       1.63669685      -0.40302516
H       -2.36874644       0.13325828      -0.79004655
H       -2.38022043       0.74840985       0.86940166
H       -0.71945789      -2.34258205      -0.38741389
H        2.01080272       1.56662976      -0.30203963
H        2.66320968       0.08567972      -0.91865290
13
Frame=1 idx=006695 GeodesicLength=0.03716331102683462 rxn_smarts="[C:1]([c:2]1[c:3]([H:11])[n:4][c:5]([N:6]([H:12])[H:13])[o:7]1)([H:8])([H:9])[H:10]>>[C:1]([C@@:2]12[C:3]([H:11])=[N:4][C@:5]1([N:6]([H:12])[H:13])[O:7]2)([H:8])([H:9])[H:10]"
C       -1.77476425       0.63208841      -0.03167595
C       -0.55527622      -0.16491914       0.22109590
C       -0.14599652      -1.51634805       0.01269715
N        1.14547565      -1.57316604       0.26062382
C        1.15235143      -0.13479882       0.34806658
N        2.11331219       0.57440654      -0.24969725
O        0.36939849       0.36454595       1.29515273
H       -1.54442997       1.63193803      -0.40803373
H       -2.38113594       0.12584207      -0.78480549
H       -2.38284766       0.74607049       0.87185177
H       -0.73408525      -2.35271130      -0.35941367
H        2.05251954       1.57657725      -0.25804129
H        2.68547853       0.09047462      -0.91782057
13
Frame=2 idx=006695 GeodesicLength=0.07440854982298721 rxn_smarts="[C:1]([c:2]1[c:3]([H:11])[n:4][c:5]([N:6]([H:12])[H:13])[o:7]1)([H:8])([H:9])[H:10]>>[C:1]([C@@:2]12[C:3]([H:11])=[N:4][C@:5]1([N:6]([H:12])[H:13])[O:7]2)([H:8])([H:9])[H:10]"
C       -1.78402718       0.62788066      -0.03194999
C       -0.55941365      -0.16363413       0.21505254
C       -0.15570892      -1.51876740       0.01727627
N        1.14132741      -1.56725817       0.24277891
C        1.15159332      -0.13132874       0.32565531
N        2.11490557       0.58077466      -0.26936713
O        0.36824038       0.37004996       1.27501467
H       -1.55795209       1.62661135      -0.41338101
H       -2.39510815       0.11712575      -0.77809490
H       -2.38588997       0.74353718       0.87530696
H       -0.74716677      -2.36149362      -0.33329221
H        2.09866487       1.58263232      -0.21108620
H        2.71053519       0.09387018      -0.91391324
13
Frame=3 idx=006695 GeodesicLength=0.11101860616726161 rxn_smarts="[C:1]([c:2]1[c:3]([H:11])[n:4][c:5]([N:6]([H:12])[H:13])[o:7]1)([H:8])([H:9])[H:10]>>[C:1]([C@@:2]12[C:3]([H:11])=[N:4][C@:5]1([N:6]([H:12])[H:13])[O:7]2)([H:8])([H:9])[H:10]"
C       -1.79406555       0.62348368      -0.03157181
C       -0.56408045      -0.16219192       0.20921610
C       -0.16529140      -1.52081145       0.02266213
N        1.13711408      -1.56038964       0.22427711
C        1.15032207      -0.12683529       0.30146080
N        2.11421055       0.58903780      -0.29314953
O        0.36737398       0.37674564       1.25372083
H       -1.57274237       1.62080677      -0.41900419
H       -2.41023699       0.10760070      -0.76985902
H       -2.38893274       0.74150385       0.87977227
H       -0.75878156      -2.36910857      -0.30925057
H        2.14601295       1.58362340      -0.16366554
H        2.73909741       0.09653505      -0.90460857
13
Frame=4 idx=006695 GeodesicLength=0.14701544568400218 rxn_smarts="[C:1]([c:2]1[c:3]([H:11])[n:4][c:5]([N:6]([H:12])[H:13])[o:7]1)([H:8])([H:9])[H:10]>>[C:1]([C@@:2]12[C:3]([H:11])=[N:4][C@:5]1([N:6]([H:12])[H:13])[O:7]2)([H:8])([H:9])[H:10]"
C       -1.80489570       0.61870107      -0.03100654
C       -0.56899685      -0.16017405       0.20350809
C       -0.17421321      -1.52204224       0.02926610
N        1.13306683      -1.55219471       0.20698200
C        1.14865737      -0.12090539       0.27652939
N        2.11249588       0.59887500      -0.31904255
O        0.36632145       0.38553156       1.23150381
H       -1.58921532       1.61468197      -0.42457560
H       -2.42571374       0.09711379      -0.76123195
H       -2.39270992       0.73872942       0.88441587
H       -0.76818406      -2.37530445      -0.28737069
H        2.19821338       1.57744974      -0.11409277
H        2.76517390       0.09953829      -0.89488517
13
Frame=5 idx=006695 GeodesicLength=0.18180362924979487 rxn_smarts="[C:1]([c:2]1[c:3]([H:11])[n:4][c:5]([N:6]([H:12])[H:13])[o:7]1)([H:8])([H:9])[H:10]>>[C:1]([C@@:2]12[C:3]([H:11])=[N:4][C@:5]1([N:6]([H:12])[H:13])[O:7]2)([H:8])([H:9])[H:10]"
C       -1.81458740       0.61447292      -0.03065849
C       -0.57357681      -0.15851203       0.19820369
C       -0.18223758      -1.52312051       0.03476000
N        1.12939012      -1.54408182       0.18857810
C        1.14716107      -0.11517322       0.25229770
N        2.11237338       0.60979188      -0.34101827
O        0.36516677       0.39280765       1.21051078
H       -1.60370826       1.60893559      -0.43017144
H       -2.43994969       0.08767297      -0.75310269
H       -2.39568663       0.73701744       0.88847717
H       -0.77693941      -2.38168186      -0.26423712
H        2.24441963       1.56677003      -0.06868613
H        2.78817481       0.10510096      -0.88495330
13
Frame=6 idx=006695 GeodesicLength=0.21638971660377176 rxn_smarts="[C:1]([c:2]1[c:3]([H:11])[n:4][c:5]([N:6]([H:12])[H:13])[o:7]1)([H:8])([H:9])[H:10]>>[C:1]([C@@:2]12[C:3]([H:11])=[N:4][C@:5]1([N:6]([H:12])[H:13])[O:7]2)([H:8])([H:9])[H:10]"
C       -1.82398288       0.61013795      -0.03101888
C       -0.57785573      -0.15648286       0.19334265
C       -0.18917782      -1.52359234       0.04137007
N        1.12616927      -1.53523459       0.17256785
C        1.14573106      -0.10866453       0.22976803
N        2.11398163       0.62147917      -0.35882544
O        0.36324236       0.40107823       1.19043130
H       -1.61799705       1.60318556      -0.43611219
H       -2.45284285       0.07794145      -0.74631826
H       -2.39935222       0.73480977       0.89119985
H       -0.78352060      -2.38718550      -0.24193961
H        2.29319776       1.54989428      -0.02114683
H        2.80240707       0.11263343      -0.88331854
13
Frame=7 idx=006695 GeodesicLength=0.25010162818055165 rxn_smarts="[C:1]([c:2]1[c:3]([H:11])[n:4][c:5]([N:6]([H:12])[H:13])[o:7]1)([H:8])([H:9])[H:10]>>[C:1]([C@@:2]12[C:3]([H:11])=[N:4][C@:5]1([N:6]([H:12])[H:13])[O:7]2)([H:8])([H:9])[H:10]"
C       -1.83226768       0.60635317      -0.03136166
C       -0.58172904      -0.15474873       0.18913727
C       -0.19553045      -1.52409560       0.04762653
N        1.12303339      -1.52687710       0.15679310
C        1.14457496      -0.10268329       0.20860276
N        2.11758430       0.63299621      -0.37210756
O        0.36123507       0.40809790       1.17187031
H       -1.63034254       1.59799571      -0.44149130
H       -2.46432455       0.06939490      -0.74013985
H       -2.40248686       0.73321927       0.89353484
H       -0.78929657      -2.39231152      -0.22079746
H        2.33452745       1.53185794       0.02021244
H        2.81502252       0.12080114      -0.88187941
13
Frame=8 idx=006695 GeodesicLength=0.2836342951570962 rxn_smarts="[C:1]([c:2]1[c:3]([H:11])[n:4][c:5]([N:6]([H:12])[H:13])[o:7]1)([H:8])([H:9])[H:10]>>[C:1]([C@@:2]12[C:3]([H:11])=[N:4][C@:5]1([N:6]([H:12])[H:13])[O:7]2)([H:8])([H:9])[H:10]"
C       -1.84031998       0.60245854      -0.03218415
C       -0.58545419      -0.15280947       0.18571036
C       -0.20112540      -1.52422597       0.05551426
N        1.12019734      -1.51797074       0.14321184
C        1.14341115      -0.09612701       0.18896744
N        2.12204580       0.64510176      -0.38226427
O        0.35866740       0.41602600       1.15422453
H       -1.64238133       1.59264508      -0.44732038
H       -2.47471331       0.06047612      -0.73490897
H       -2.40623219       0.73151793       0.89483023
H       -0.79326016      -2.39649780      -0.20150056
H        2.37742918       1.50910690       0.06279200
H        2.82173569       0.13029865      -0.88707234
13
Frame=9 idx=006695 GeodesicLength=0.3168080883690796 rxn_smarts="[C:1]([c:2]1[c:3]([H:11])[n:4][c:5]([N:6]([H:12])[H:13])[o:7]1)([H:8])([H:9])[H:10]>>[C:1]([C@@:2]12[C:3]([H:11])=[N:4][C@:5]1([N:6]([H:12])[H:13])[O:7]2)([H:8])([H:9])[H:10]"
C       -1.84785870       0.59886338      -0.03299809
C       -0.58898103      -0.15098130       0.18237886
C       -0.20631957      -1.52425119       0.06286909
N        1.11735967      -1.50920037       0.12908807
C        1.14232773      -0.08973020       0.16957460
N        2.12760954       0.65732772      -0.38992099
O        0.35610029       0.42320641       1.13712214
H       -1.65355895       1.58753767      -0.45301428
H       -2.48460384       0.05211553      -0.72976049
H       -2.40954812       0.73027058       0.89603267
H       -0.79688714      -2.40060983      -0.18185463
H        2.41605267       1.48506907       0.10238516
H        2.82830746       0.14038252      -0.89190211
13
Frame=10 idx=006695 GeodesicLength=0.3498946787868985 rxn_smarts="[C:1]([c:2]1[c:3]([H:11])[n:4][c:5]([N:6]([H:12])[H:13])[o:7]1)([H:8])([H:9])[H:10]>>[C:1]([C@@:2]12[C:3]([H:11])=[N:4][C@:5]1([N:6]([H:12])[H:13])[O:7]2)([H:8])([H:9])[H:10]"
C       -1.85531483       0.59520422      -0.03402115
C       -0.59243717      -0.14896648       0.17951587
C       -0.21098451      -1.52392955       0.07124695
N        1.11465085      -1.49998851       0.11602971
C        1.14118372      -0.08287152       0.15089482
N        2.13370725       0.67002697      -0.39549351
O        0.35322982       0.43101434       1.12047174
H       -1.66468139       1.58232682      -0.45892375
H       -2.49390236       0.04349779      -0.72504639
H       -2.41323921       0.72894523       0.89672228
H       -0.79936187      -2.40402513      -0.16338142
H        2.45500604       1.45728219       0.14176787
H        2.83214365       0.15148362      -0.89978303
13
Frame=11 idx=006695 GeodesicLength=0.3828512373345864 rxn_smarts="[C:1]([c:2]1[c:3]([H:11])[n:4][c:5]([N:6]([H:12])[H:13])[o:7]1)([H:8])([H:9])[H:10]>>[C:1]([C@@:2]12[C:3]([H:11])=[N:4][C@:5]1([N:6]([H:12])[H:13])[O:7]2)([H:8])([H:9])[H:10]"
C       -1.86254713       0.59171028      -0.03500587
C       -0.59577759      -0.14692851       0.17655399
C       -0.21531282      -1.52340591       0.07921450
N        1.11188694      -1.49071894       0.10232512
C        1.14003369      -0.07595453       0.13203539
N        2.14060854       0.68285138      -0.39932663
O        0.35037915       0.43847607       1.10393179
H       -1.67551168       1.57722786      -0.46479744
H       -2.50305420       0.03511759      -0.72019204
H       -2.41662304       0.72789086       0.89746158
H       -0.80152338      -2.40732329      -0.14438071
H        2.49111697       1.42792263       0.17914462
H        2.83632456       0.16313451      -0.90696432
13
Frame=12 idx=006695 GeodesicLength=0.4158023419370451 rxn_smarts="[C:1]([c:2]1[c:3]([H:11])[n:4][c:5]([N:6]([H:12])[H:13])[o:7]1)([H:8])([H:9])[H:10]>>[C:1]([C@@:2]12[C:3]([H:11])=[N:4][C@:5]1([N:6]([H:12])[H:13])[O:7]2)([H:8])([H:9])[H:10]"
C       -1.86971408       0.58823807      -0.03608354
C       -0.59904932      -0.14474466       0.17363982
C       -0.21923207      -1.52256838       0.08736069
N        1.10912959      -1.48114248       0.08855128
C        1.13882655      -0.06871206       0.11321124
N        2.14810011       0.69597651      -0.40144515
O        0.34740712       0.44612214       1.08749616
H       -1.68634418       1.57210932      -0.47079698
H       -2.51196862       0.02666467      -0.71542716
H       -2.42005250       0.72687742       0.89801555
H       -0.80305209      -2.41029802      -0.12520062
H        2.52630984       1.39575198       0.21570320
H        2.83963965       0.17572550      -0.91502448
13
Frame=13 idx=006695 GeodesicLength=0.44854061716311 rxn_smarts="[C:1]([c:2]1[c:3]([H:11])[n:4][c:5]([N:6]([H:12])[H:13])[o:7]1)([H:8])([H:9])[H:10]>>[C:1]([C@@:2]12[C:3]([H:11])=[N:4][C@:5]1([N:6]([H:12])[H:13])[O:7]2)([H:8])([H:9])[H:10]"
C       -1.87663634       0.58490474      -0.03696963
C       -0.60219674      -0.14255363       0.17093160
C       -0.22286941      -1.52159175       0.09563786
N        1.10625580      -1.47161845       0.07483422
C        1.13764371      -0.06150427       0.09445488
N        2.15601649       0.70881503      -0.40246631
O        0.34452653       0.45363546       1.07127590
H       -1.69683403       1.56713187      -0.47647003
H       -2.52055507       0.01848070      -0.71056819
H       -2.42330312       0.72597589       0.89870287
H       -0.80412078      -2.41284535      -0.10700465
H        2.55837868       1.36297178       0.24928332
H        2.84369429       0.18819799      -0.92164185
13
Frame=14 idx=006695 GeodesicLength=0.48114225826536827 rxn_smarts="[C:1]([c:2]1[c:3]([H:11])[n:4][c:5]([N:6]([H:12])[H:13])[o:7]1)([H:8])([H:9])[H:10]>>[C:1]([C@@:2]12[C:3]([H:11])=[N:4][C@:5]1([N:6]([H:12])[H:13])[O:7]2)([H:8])([H:9])[H:10]"
C       -1.88337219       0.58164220      -0.03776971
C       -0.60523515      -0.14030737       0.16848259
C       -0.22617834      -1.52042254       0.10425453
N        1.10330909      -1.46203016       0.06136117
C        1.13646964      -0.05421429       0.07588702
N        2.16422296       0.72149301      -0.40238373
O        0.34165829       0.46120662       1.05529410
H       -1.70708223       1.56222012      -0.48196023
H       -2.52876129       0.01041399      -0.70576243
H       -2.42653157       0.72510348       0.89936345
H       -0.80465526      -2.41494708      -0.08969252
H        2.58839970       1.32899222       0.28070521
H        2.84775635       0.20084980      -0.92777945
13
Frame=15 idx=006695 GeodesicLength=0.5136604600828162 rxn_smarts="[C:1]([c:2]1[c:3]([H:11])[n:4][c:5]([N:6]([H:12])[H:13])[o:7]1)([H:8])([H:9])[H:10]>>[C:1]([C@@:2]12[C:3]([H:11])=[N:4][C@:5]1([N:6]([H:12])[H:13])[O:7]2)([H:8])([H:9])[H:10]"
C       -1.88994378       0.57850310      -0.03842378
C       -0.60815201      -0.13801850       0.16591013
C       -0.22921289      -1.51907411       0.11256142
N        1.10022987      -1.45245258       0.04745304
C        1.13531208      -0.04691576       0.05704037
N        2.17288193       0.73387451      -0.40133392
O        0.33888665       0.46856223       1.03926770
H       -1.71718017       1.55742267      -0.48724664
H       -2.53687750       0.00255759      -0.70072645
H       -2.42946314       0.72435489       0.90022389
H       -0.80490177      -2.41684979      -0.07231540
H        2.61569288       1.29460959       0.31006529
H        2.85272786       0.21342617      -0.93247566
13
Frame=16 idx=006695 GeodesicLength=0.5461201301683724 rxn_smarts="[C:1]([c:2]1[c:3]([H:11])[n:4][c:5]([N:6]([H:12])[H:13])[o:7]1)([H:8])([H:9])[H:10]>>[C:1]([C@@:2]12[C:3]([H:11])=[N:4][C@:5]1([N:6]([H:12])[H:13])[O:7]2)([H:8])([H:9])[H:10]"
C       -1.89636975       0.57542087      -0.03903240
C       -0.61095729      -0.13565050       0.16342547
C       -0.23192916      -1.51751204       0.12099807
N        1.09705423      -1.44279243       0.03348646
C        1.13417118      -0.03951568       0.03823462
N        2.18179803       0.74605893      -0.39926056
O        0.33612606       0.47593117       1.02336206
H       -1.72713415       1.55268563      -0.49240023
H       -2.54471383      -0.00521065      -0.69571961
H       -2.43233654       0.72360560       0.90106629
H       -0.80471377      -2.41842938      -0.05520190
H        2.64124833       1.25918093       0.33776819
H        2.85775667       0.22622755      -0.93672646
