12
Frame=0 idx=001491 GeodesicLength=0.0 rxn_smarts="[O:1]=[C:2]1[C:3]([H:7])([H:8])[C:4]([H:9])=[C:5]([H:10])[C:6]1([H:11])[H:12]>>[O:1]=[C:2]1[C:3]([H:7])=[C:4]([H:9])[C:5]([H:8])([H:10])[C:6]1([H:11])[H:12]"
O       -2.02388527      -1.40936827      -0.40388106
C       -0.99485280      -0.77003318      -0.27786869
C        0.36791198      -1.15005052      -0.51216655
C        1.22937527      -0.03050601      -0.13701496
C        0.47925958       1.07082935       0.30127570
C       -0.95178394       0.71608197       0.16072428
H        0.72711549      -2.13674245      -0.75453530
H        0.91965522      -0.47041865       0.90829224
H        2.30646349      -0.02707957      -0.24890860
H        0.89190649       1.99680808       0.67069798
H       -1.60560431       0.94657629       1.00181551
H       -1.34556121       1.26390293      -0.70843058
12
Frame=1 idx=001491 GeodesicLength=0.09599302735374679 rxn_smarts="[O:1]=[C:2]1[C:3]([H:7])([H:8])[C:4]([H:9])=[C:5]([H:10])[C:6]1([H:11])[H:12]>>[O:1]=[C:2]1[C:3]([H:7])=[C:4]([H:9])[C:5]([H:8])([H:10])[C:6]1([H:11])[H:12]"
O       -2.02206558      -1.40747712      -0.41344647
C       -0.99608839      -0.76642385      -0.28218746
C        0.37225856      -1.15595607      -0.48959705
C        1.23124567      -0.02999882      -0.14380356
C        0.47995046       1.06153192       0.31796505
C       -0.95371256       0.71717968       0.15967448
H        0.72671875      -2.13555306      -0.76519823
H        0.91541190      -0.47425181       0.93217303
H        2.30744788      -0.02308478      -0.26303568
H        0.89300874       2.00138249       0.65031513
H       -1.60861810       0.94035578       1.00205339
H       -1.34555734       1.27229565      -0.70491263
12
Frame=2 idx=001491 GeodesicLength=0.19200784265992016 rxn_smarts="[O:1]=[C:2]1[C:3]([H:7])([H:8])[C:4]([H:9])=[C:5]([H:10])[C:6]1([H:11])[H:12]>>[O:1]=[C:2]1[C:3]([H:7])=[C:4]([H:9])[C:5]([H:8])([H:10])[C:6]1([H:11])[H:12]"
O       -2.01991634      -1.40567146      -0.42263642
C       -0.99695118      -0.76290617      -0.28638940
C        0.37670607      -1.16220060      -0.46559350
C        1.23285004      -0.02946704      -0.15111150
C        0.48089515       1.05222485       0.33424947
C       -0.95535864       0.71835470       0.15845505
H        0.72615996      -2.13282297      -0.77725649
H        0.91066995      -0.47769611       0.95729780
H        2.30817349      -0.01935943      -0.27733217
H        0.89364510       2.00464180       0.62991180
H       -1.61141640       0.93439540       1.00197657
H       -1.34545721       1.28050703      -0.70157122
12
Frame=3 idx=001491 GeodesicLength=0.28796510560285826 rxn_smarts="[O:1]=[C:2]1[C:3]([H:7])([H:8])[C:4]([H:9])=[C:5]([H:10])[C:6]1([H:11])[H:12]>>[O:1]=[C:2]1[C:3]([H:7])=[C:4]([H:9])[C:5]([H:8])([H:10])[C:6]1([H:11])[H:12]"
O       -2.01728368      -1.40387481      -0.43164159
C       -0.99734532      -0.75941289      -0.29067836
C        0.38125164      -1.16851220      -0.44064471
C        1.23408729      -0.02880893      -0.15936022
C        0.48208490       1.04293214       0.34978321
C       -0.95669012       0.71957233       0.15699449
H        0.72530535      -2.12864201      -0.78924999
H        0.90538591      -0.48075521       0.98332039
H        2.30850598      -0.01581247      -0.29213661
H        0.89389584       2.00627084       0.61032727
H       -1.61382209       0.92848041       1.00164740
H       -1.34537569       1.28856279      -0.69836129
12
Frame=4 idx=001491 GeodesicLength=0.38392542008769615 rxn_smarts="[O:1]=[C:2]1[C:3]([H:7])([H:8])[C:4]([H:9])=[C:5]([H:10])[C:6]1([H:11])[H:12]>>[O:1]=[C:2]1[C:3]([H:7])=[C:4]([H:9])[C:5]([H:8])([H:10])[C:6]1([H:11])[H:12]"
O       -2.01417509      -1.40209309      -0.44053681
C       -0.99727301      -0.75589564      -0.29529260
C        0.38592688      -1.17460833      -0.41551032
C        1.23494086      -0.02790977      -0.16903107
C        0.48353491       1.03365315       0.36434442
C       -0.95772341       0.72083597       0.15524408
H        0.72422559      -2.12343679      -0.79974153
H        0.89942046      -0.48341222       1.00984297
H        2.30848141      -0.01240993      -0.30769665
H        0.89384752       2.00619687       0.59243740
H       -1.61570846       0.92250658       1.00113916
H       -1.34549767       1.29657321      -0.69519904
12
Frame=5 idx=001491 GeodesicLength=0.47988239346279093 rxn_smarts="[O:1]=[C:2]1[C:3]([H:7])([H:8])[C:4]([H:9])=[C:5]([H:10])[C:6]1([H:11])[H:12]>>[O:1]=[C:2]1[C:3]([H:7])=[C:4]([H:9])[C:5]([H:8])([H:10])[C:6]1([H:11])[H:12]"
O       -2.01064794      -1.40026817      -0.44981118
C       -0.99678410      -0.75225567      -0.30057105
C        0.39073711      -1.18011554      -0.39105250
C        1.23541710      -0.02656477      -0.18055900
C        0.48527321       1.02441359       0.37792784
C       -0.95854005       0.72218838       0.15329930
H        0.72305899      -2.11815381      -0.80687900
H        0.89275585      -0.48600403       1.03638097
H        2.30818100      -0.00893618      -0.32433028
H        0.89367366       2.00463707       0.57666293
H       -1.61711243       0.91622467       1.00069383
H       -1.34601240       1.30483445      -0.69176187
12
Frame=6 idx=001491 GeodesicLength=0.5758326931754254 rxn_smarts="[O:1]=[C:2]1[C:3]([H:7])([H:8])[C:4]([H:9])=[C:5]([H:10])[C:6]1([H:11])[H:12]>>[O:1]=[C:2]1[C:3]([H:7])=[C:4]([H:9])[C:5]([H:8])([H:10])[C:6]1([H:11])[H:12]"
O       -2.00667585      -1.39834977      -0.45956162
C       -0.99589254      -0.74842707      -0.30658297
C        0.39569576      -1.18478849      -0.36763401
C        1.23545945      -0.02467662      -0.19413094
C        0.48730343       1.01513334       0.39054686
C       -0.95914291       0.72363029       0.15120502
H        0.72194930      -2.11327861      -0.81017300
H        0.88521862      -0.48861354       1.06284215
H        2.30756740      -0.00533685      -0.34206032
H        0.89345355       2.00174224       0.56308576
H       -1.61797334       0.90955107       1.00038901
H       -1.34696288       1.31341400      -0.68792593
12
Frame=7 idx=001491 GeodesicLength=0.6717725587915899 rxn_smarts="[O:1]=[C:2]1[C:3]([H:7])([H:8])[C:4]([H:9])=[C:5]([H:10])[C:6]1([H:11])[H:12]>>[O:1]=[C:2]1[C:3]([H:7])=[C:4]([H:9])[C:5]([H:8])([H:10])[C:6]1([H:11])[H:12]"
O       -2.00225945      -1.39636378      -0.46973951
C       -0.99462339      -0.74440529      -0.31327381
C        0.40082708      -1.18850252      -0.34534499
C        1.23503177      -0.02219512      -0.20981254
C        0.48964874       1.00575609       0.40222797
C       -0.95954398       0.72517465       0.14899004
H        0.72101873      -2.10906354      -0.80975744
H        0.87662173      -0.49132318       1.08929791
H        2.30664413      -0.00160496      -0.36079422
H        0.89328044       1.99770420       0.55162516
H       -1.61830004       0.90250981       1.00023896
H       -1.34834575       1.32231364      -0.68365753
12
Frame=8 idx=001491 GeodesicLength=0.7677073285654078 rxn_smarts="[O:1]=[C:2]1[C:3]([H:7])([H:8])[C:4]([H:9])=[C:5]([H:10])[C:6]1([H:11])[H:12]>>[O:1]=[C:2]1[C:3]([H:7])=[C:4]([H:9])[C:5]([H:8])([H:10])[C:6]1([H:11])[H:12]"
O       -1.99739364      -1.39437169      -0.48019682
C       -0.99298940      -0.74022297      -0.32051224
C        0.40617428      -1.19121609      -0.32410408
C        1.23409656      -0.01911214      -0.22759640
C        0.49234153       0.99621047       0.41301930
C       -0.95973989       0.72682475       0.14666739
H        0.72035062      -2.10550471      -0.80613473
H        0.86673014      -0.49417343       1.11594318
H        2.30540916       0.00223272      -0.38039828
H        0.89324328       1.99267827       0.54209469
H       -1.61811040       0.89518115       1.00020713
H       -1.35011223       1.33147366      -0.67898913
12
Frame=9 idx=001491 GeodesicLength=0.8636281908722836 rxn_smarts="[O:1]=[C:2]1[C:3]([H:7])([H:8])[C:4]([H:9])=[C:5]([H:10])[C:6]1([H:11])[H:12]>>[O:1]=[C:2]1[C:3]([H:7])=[C:4]([H:9])[C:5]([H:8])([H:10])[C:6]1([H:11])[H:12]"
O       -1.99206935      -1.39244836      -0.49076318
C       -0.99099820      -0.73593075      -0.32814062
C        0.41180344      -1.19291333      -0.30378230
C        1.23261494      -0.01543678      -0.24744277
C        0.49542479       0.98642005       0.42297800
C       -0.95971396       0.72857891       0.14424436
H        0.72000529      -2.10247952      -0.79987829
H        0.85526552      -0.49720588       1.14301490
H        2.30384536       0.00616115      -0.40077531
H        0.89342690       1.98677729       0.53428382
H       -1.61742194       0.88766338       1.00024131
H       -1.35218278       1.34081383      -0.67397993
12
Frame=10 idx=001491 GeodesicLength=0.959533443185581 rxn_smarts="[O:1]=[C:2]1[C:3]([H:7])([H:8])[C:4]([H:9])=[C:5]([H:10])[C:6]1([H:11])[H:12]>>[O:1]=[C:2]1[C:3]([H:7])=[C:4]([H:9])[C:5]([H:8])([H:10])[C:6]1([H:11])[H:12]"
O       -1.98626915      -1.39066638      -0.50128684
C       -0.98864617      -0.73158292      -0.33601183
C        0.41779470      -1.19358402      -0.28424902
C        1.23054222      -0.01117949      -0.26931818
C        0.49895032       0.97629523       0.43217422
C       -0.95943661       0.73043321       0.14172443
H        0.72004321      -2.09982232      -0.79146584
H        0.84189773      -0.50046699       1.17075723
H        2.30190899       0.01020315      -0.42193650
H        0.89392006       1.98005659       0.52802489
H       -1.61624625       0.88005468       1.00028374
H       -1.35445905       1.35025926      -0.66869628
12
Frame=11 idx=001491 GeodesicLength=1.055424274353405 rxn_smarts="[O:1]=[C:2]1[C:3]([H:7])([H:8])[C:4]([H:9])=[C:5]([H:10])[C:6]1([H:11])[H:12]>>[O:1]=[C:2]1[C:3]([H:7])=[C:4]([H:9])[C:5]([H:8])([H:10])[C:6]1([H:11])[H:12]"
O       -1.97996928      -1.38909428      -0.51163260
C       -0.98592191      -0.72723171      -0.34399220
C        0.42424419      -1.19321698      -0.26538320
C        1.22782944      -0.00634873      -0.29319120
C        0.50297880       0.96573352       0.44068927
C       -0.95886656       0.73238408       0.13910707
H        0.72053738      -2.09736632      -0.78126650
H        0.82623357      -0.50400783       1.19941308
H        2.29953149       0.01442720      -0.44401634
H        0.89481937       1.97252318       0.52321061
H       -1.61459054       0.87245187       1.00027069
H       -1.35682594       1.35974600      -0.66320869
12
Frame=12 idx=001491 GeodesicLength=1.151302780937492 rxn_smarts="[O:1]=[C:2]1[C:3]([H:7])([H:8])[C:4]([H:9])=[C:5]([H:10])[C:6]1([H:11])[H:12]>>[O:1]=[C:2]1[C:3]([H:7])=[C:4]([H:9])[C:5]([H:8])([H:10])[C:6]1([H:11])[H:12]"
O       -1.97312198      -1.38779979      -0.52169857
C       -0.98279555      -0.72293198      -0.35196492
C        0.43125199      -1.19178442      -0.24706055
C        1.22441409      -0.00095157      -0.31902753
C        0.50758446       0.95462530       0.44861526
C       -0.95794747       0.73442928       0.13639242
H        0.72156910      -2.09494835      -0.76952882
H        0.80781524      -0.50790963       1.22921790
H        2.29659524       0.01895533      -0.46727965
H        0.89623768       1.96414724       0.51978057
H       -1.61246287       0.86494973       1.00014199
H       -1.35913991       1.36921886      -0.65758808
12
Frame=13 idx=001491 GeodesicLength=1.2471938868587953 rxn_smarts="[O:1]=[C:2]1[C:3]([H:7])([H:8])[C:4]([H:9])=[C:5]([H:10])[C:6]1([H:11])[H:12]>>[O:1]=[C:2]1[C:3]([H:7])=[C:4]([H:9])[C:5]([H:8])([H:10])[C:6]1([H:11])[H:12]"
O       -1.96572218      -1.38685927      -0.53138642
C       -0.97925944      -0.71874194      -0.35981450
C        0.43894701      -1.18927072      -0.22916543
C        1.22024792       0.00500773      -0.34677597
C        0.51285618       0.94284715       0.45606312
C       -0.95661964       0.73656502       0.13357797
H        0.72324900      -2.09242585      -0.75644928
H        0.78610240      -0.51222133       1.26040221
H        2.29301636       0.02395352      -0.49210064
H        0.89831339       1.95487054       0.51773120
H       -1.60987144       0.85764316       0.99983804
H       -1.36125956       1.37863198      -0.65192030
12
Frame=14 idx=001491 GeodesicLength=1.3430451245876882 rxn_smarts="[O:1]=[C:2]1[C:3]([H:7])([H:8])[C:4]([H:9])=[C:5]([H:10])[C:6]1([H:11])[H:12]>>[O:1]=[C:2]1[C:3]([H:7])=[C:4]([H:9])[C:5]([H:8])([H:10])[C:6]1([H:11])[H:12]"
O       -1.95759066      -1.38628621      -0.54057108
C       -0.97519314      -0.71467319      -0.36743860
C        0.44744618      -1.18564909      -0.21158725
C        1.21523875       0.01150653      -0.37634330
C        0.51885144       0.93024762       0.46313957
C       -0.95479390       0.73879658       0.13065956
H        0.72570604      -2.08965335      -0.74213859
H        0.76048969      -0.51701870       1.29314104
H        2.28852839       0.02956730      -0.51894619
H        0.90113392       1.94457313       0.51707204
H       -1.60680206       0.85063046       0.99925378
H       -1.36301465       1.38795891      -0.64624097
12
Frame=15 idx=001491 GeodesicLength=1.4388283153191463 rxn_smarts="[O:1]=[C:2]1[C:3]([H:7])([H:8])[C:4]([H:9])=[C:5]([H:10])[C:6]1([H:11])[H:12]>>[O:1]=[C:2]1[C:3]([H:7])=[C:4]([H:9])[C:5]([H:8])([H:10])[C:6]1([H:11])[H:12]"
O       -1.94874109      -1.38616982      -0.54925621
C       -0.97061540      -0.71082817      -0.37468980
C        0.45692211      -1.18088109      -0.19417343
C        1.20927317       0.01851597      -0.40764033
C        0.52567471       0.91669909       0.46995873
C       -0.95237510       0.74111941       0.12767256
H        0.72909864      -2.08649271      -0.72665727
H        0.73029353      -0.52231528       1.32747005
H        2.28305488       0.03602380      -0.54827831
H        0.90485115       1.93315064       0.51780960
H       -1.60321639       0.84402419       0.99838249
H       -1.36422022       1.39715396      -0.64059808
12
Frame=16 idx=001491 GeodesicLength=1.5346404883726383 rxn_smarts="[O:1]=[C:2]1[C:3]([H:7])([H:8])[C:4]([H:9])=[C:5]([H:10])[C:6]1([H:11])[H:12]>>[O:1]=[C:2]1[C:3]([H:7])=[C:4]([H:9])[C:5]([H:8])([H:10])[C:6]1([H:11])[H:12]"
O       -1.93912451      -1.38657543      -0.55733818
C       -0.96546996      -0.70724662      -0.38147873
C        0.46749085      -1.17494530      -0.17681181
C        1.20231710       0.02602513      -0.44051587
C        0.53343591       0.90207111       0.47664429
C       -0.94929572       0.74352581       0.12462595
H        0.73355068      -2.08280814      -0.71008953
H        0.69490671      -0.52813504       1.36342095
H        2.27644379       0.04351023      -0.58052295
H        0.90965385       1.92049987       0.51993434
H       -1.59914592       0.83788435       0.99719184
H       -1.36476278       1.40619404      -0.63506031
