19
Frame=0 idx=006724 GeodesicLength=0.0 rxn_smarts="[C:1]([C@@:2]1([H:11])[C:3]([H:12])([H:13])[C:4]([H:14])([H:15])[O:5][C@:6]1([C:7]([H:17])([H:18])[H:19])[H:16])([H:8])([H:9])[H:10]>>[C:1](/[C:2]([C:3]([C:4]([O:5][H:11])([H:14])[H:15])([H:12])[H:13])=[C:6](/[C:7]([H:17])([H:18])[H:19])[H:16])([H:8])([H:9])[H:10]"
C       -1.25642426      -1.56360209      -1.04062937
C       -0.47700990      -0.47133744      -0.35579281
C       -0.92816388       0.21243925       0.90632209
C       -0.37065694       1.69027440       0.70285868
O        0.22901085       1.77226955      -0.54363882
C        0.89669861      -0.24094251      -0.61053227
C        2.01623804      -0.08544666       0.35591434
H       -2.30938874      -1.28945113      -1.12634887
H       -0.87606149      -1.75380678      -2.04722721
H       -1.20707730      -2.50548901      -0.48713203
H       -0.45645215       0.63119975      -1.00017495
H       -0.52950266      -0.22619953       1.82375395
H       -2.01725286       0.19480531       0.98514060
H        0.33293399       1.94551287       1.50706384
H       -1.20536151       2.39689831       0.77167847
H        1.21919826      -0.45744903      -1.62949876
H        1.69784479       0.27972093       1.32867930
H        2.44105323      -1.08801291       0.49670765
H        2.80037399       0.55861675      -0.03714376
19
Frame=1 idx=006724 GeodesicLength=0.07225184414755423 rxn_smarts="[C:1]([C@@:2]1([H:11])[C:3]([H:12])([H:13])[C:4]([H:14])([H:15])[O:5][C@:6]1([C:7]([H:17])([H:18])[H:19])[H:16])([H:8])([H:9])[H:10]>>[C:1](/[C:2]([C:3]([C:4]([O:5][H:11])([H:14])[H:15])([H:12])[H:13])=[C:6](/[C:7]([H:17])([H:18])[H:19])[H:16])([H:8])([H:9])[H:10]"
C       -1.24905093      -1.56390724      -1.03347088
C       -0.47697418      -0.45782879      -0.36456001
C       -0.92783389       0.21720697       0.90331706
C       -0.38258422       1.69595066       0.70758357
O        0.23781289       1.78227832      -0.53113695
C        0.89808315      -0.22890114      -0.61798510
C        2.01909912      -0.10391716       0.35197665
H       -2.30300282      -1.29415848      -1.12279412
H       -0.86700999      -1.76749255      -2.03668821
H       -1.19405422      -2.49633027      -0.46475141
H       -0.46657175       0.65848842      -1.01562811
H       -0.51925304      -0.22326681       1.81538651
H       -2.01583026       0.19116641       0.99261578
H        0.30694993       1.96110239       1.51996445
H       -1.22652226       2.39348212       0.75656549
H        1.22067577      -0.44595124      -1.63695844
H        1.70448770       0.25763615       1.32752704
H        2.43157838      -1.11266664       0.48213050
H        2.81000061       0.53710888      -0.03309381
19
Frame=2 idx=006724 GeodesicLength=0.14453428543627533 rxn_smarts="[C:1]([C@@:2]1([H:11])[C:3]([H:12])([H:13])[C:4]([H:14])([H:15])[O:5][C@:6]1([C:7]([H:17])([H:18])[H:19])[H:16])([H:8])([H:9])[H:10]>>[C:1](/[C:2]([C:3]([C:4]([O:5][H:11])([H:14])[H:15])([H:12])[H:13])=[C:6](/[C:7]([H:17])([H:18])[H:19])[H:16])([H:8])([H:9])[H:10]"
C       -1.24149797      -1.56387638      -1.02621333
C       -0.47681722      -0.44442972      -0.37303726
C       -0.92732055       0.22192524       0.90056084
C       -0.39490922       1.70163963       0.71208378
O        0.24644952       1.79179814      -0.51839134
C        0.89967058      -0.21708132      -0.62501997
C        2.02192985      -0.12279749       0.34780102
H       -2.29639269      -1.29847935      -1.11914367
H       -0.85768886      -1.78049389      -2.02590024
H       -1.18096640      -2.48674834      -0.44272916
H       -0.47656725       0.68609050      -1.03072118
H       -0.50864568      -0.21986773       1.80728955
H       -2.01403974       0.18716223       1.00052271
H        0.27966414       1.97744066       1.53268336
H       -1.24782953       2.38963737       0.74039244
H        1.22218673      -0.43444181      -1.64412233
H        1.71123620       0.23480684       1.32627031
H        2.42209080      -1.13747505       0.46697262
H        2.81944727       0.51519046      -0.02929815
19
Frame=3 idx=006724 GeodesicLength=0.21684688422468779 rxn_smarts="[C:1]([C@@:2]1([H:11])[C:3]([H:12])([H:13])[C:4]([H:14])([H:15])[O:5][C@:6]1([C:7]([H:17])([H:18])[H:19])[H:16])([H:8])([H:9])[H:10]>>[C:1](/[C:2]([C:3]([C:4]([O:5][H:11])([H:14])[H:15])([H:12])[H:13])=[C:6](/[C:7]([H:17])([H:18])[H:19])[H:16])([H:8])([H:9])[H:10]"
C       -1.23377566      -1.56351419      -1.01885620
C       -0.47652622      -0.43115242      -0.38120522
C       -0.92662293       0.22660074       0.89805921
C       -0.40764219       1.70734297       0.71635428
O        0.25490688       1.80083804      -0.50539387
C        0.90146811      -0.20548361      -0.63162618
C        2.02473669      -0.14208621       0.34338646
H       -2.28956463      -1.30240028      -1.11540181
H       -0.84811286      -1.79281981      -2.01487614
H       -1.16784024      -2.47676690      -0.42106004
H       -0.48642417       0.71401277      -1.04545190
H       -0.49767607      -0.21597459       1.79947554
H       -2.01186488       0.18280298       1.00885844
H        0.25102889       1.99452213       1.54516635
H       -1.26924363       2.38533840       0.72317715
H        1.22373727      -0.42291096      -1.65098255
H        1.71808713       0.21119790       1.32490884
H        2.41261341      -1.16242876       0.45121098
H        2.82871510       0.49288179      -0.02574334
19
Frame=4 idx=006724 GeodesicLength=0.2891850149798737 rxn_smarts="[C:1]([C@@:2]1([H:11])[C:3]([H:12])([H:13])[C:4]([H:14])([H:15])[O:5][C@:6]1([C:7]([H:17])([H:18])[H:19])[H:16])([H:8])([H:9])[H:10]>>[C:1](/[C:2]([C:3]([C:4]([O:5][H:11])([H:14])[H:15])([H:12])[H:13])=[C:6](/[C:7]([H:17])([H:18])[H:19])[H:16])([H:8])([H:9])[H:10]"
C       -1.22589293      -1.56282629      -1.01139841
C       -0.47608903      -0.41800759      -0.38904692
C       -0.92574154       0.23124135       0.89581594
C       -0.42079422       1.71306223       0.72038870
O        0.26316534       1.80940811      -0.49213906
C        0.90348350      -0.19410785      -0.63779262
C        2.02752260      -0.16178427       0.33872907
H       -2.28252381      -1.30591171      -1.11157448
H       -0.83829084      -1.80448062      -2.00362245
H       -1.15469887      -2.46640837      -0.39973305
H       -0.49612982       0.74226231      -1.05981978
H       -0.48634278      -0.21155739       1.79195507
H       -2.00929208       0.17810490       1.01761562
H        0.22101051       2.01233156       1.55735101
H       -1.29072052       2.38056291       0.70495175
H        1.22533500      -0.41134995      -1.65752543
H        1.72502908       0.18676509       1.32344077
H        2.40317017      -1.18750994       0.43481432
H        2.83780024       0.47020552      -0.02241005
19
Frame=5 idx=006724 GeodesicLength=0.3615425218332349 rxn_smarts="[C:1]([C@@:2]1([H:11])[C:3]([H:12])([H:13])[C:4]([H:14])([H:15])[O:5][C@:6]1([C:7]([H:17])([H:18])[H:19])[H:16])([H:8])([H:9])[H:10]>>[C:1](/[C:2]([C:3]([C:4]([O:5][H:11])([H:14])[H:15])([H:12])[H:13])=[C:6](/[C:7]([H:17])([H:18])[H:19])[H:16])([H:8])([H:9])[H:10]"
C       -1.21786099      -1.56182024      -1.00384038
C       -0.47549290      -0.40500576      -0.39654577
C       -0.92467697       0.23585462       0.89383526
C       -0.43437429       1.71879710       0.72418150
O        0.27120194       1.81751946      -0.47862242
C        0.90572494      -0.18295342      -0.64350802
C        2.03029129      -0.18188876       0.33382426
H       -2.27527817      -1.30900481      -1.10766568
H       -0.82824067      -1.81548813      -1.99214905
H       -1.14156773      -2.45569698      -0.37873900
H       -0.50566910       0.77084732      -1.07382681
H       -0.47464530      -0.20658831       1.78473652
H       -2.00630852       0.17308291       1.02678807
H        0.18958411       2.03084690       1.56916082
H       -1.31220922       2.37528346       0.68575661
H        1.22698788      -0.39974882      -1.66374232
H        1.73205031       0.16147218       1.32186587
H        2.39378408      -1.21269673       0.41776186
H        2.84669930       0.44718802      -0.01927131
19
Frame=6 idx=006724 GeodesicLength=0.433919807972149 rxn_smarts="[C:1]([C@@:2]1([H:11])[C:3]([H:12])([H:13])[C:4]([H:14])([H:15])[O:5][C@:6]1([C:7]([H:17])([H:18])[H:19])[H:16])([H:8])([H:9])[H:10]>>[C:1](/[C:2]([C:3]([C:4]([O:5][H:11])([H:14])[H:15])([H:12])[H:13])=[C:6](/[C:7]([H:17])([H:18])[H:19])[H:16])([H:8])([H:9])[H:10]"
C       -1.20968543      -1.56050737      -0.99617621
C       -0.47472709      -0.39215400      -0.40368886
C       -0.92343354       0.24045317       0.89211845
C       -0.44838783       1.72454801       0.72772491
O        0.27899745       1.82518939      -0.46483902
C        0.90819859      -0.17201306      -0.64876374
C        2.03304285      -0.20239773       0.32866967
H       -2.26783103      -1.31168025      -1.10367853
H       -0.81796613      -1.82586568      -1.98045700
H       -1.12846308      -2.44465595      -0.35805698
H       -0.51502622       0.79978115      -1.08748057
H       -0.46258811      -0.20103613       1.77782531
H       -2.00290402       0.16776125       1.03636570
H        0.15671890       2.05003397       1.58053107
H       -1.33366376       2.36949193       0.66564216
H        1.22870251      -0.38809161      -1.66962350
H        1.73913105       0.13526825       1.32017868
H        2.38447379      -1.23797666       0.40001425
H        2.85541109       0.42385133      -0.01630580
19
Frame=7 idx=006724 GeodesicLength=0.5063110827330425 rxn_smarts="[C:1]([C@@:2]1([H:11])[C:3]([H:12])([H:13])[C:4]([H:14])([H:15])[O:5][C@:6]1([C:7]([H:17])([H:18])[H:19])[H:16])([H:8])([H:9])[H:10]>>[C:1](/[C:2]([C:3]([C:4]([O:5][H:11])([H:14])[H:15])([H:12])[H:13])=[C:6](/[C:7]([H:17])([H:18])[H:19])[H:16])([H:8])([H:9])[H:10]"
C       -1.20137438      -1.55890080      -0.98840216
C       -0.47378099      -0.37945898      -0.41046507
C       -0.92201561       0.24504754       0.89066719
C       -0.46283776       1.73031320       0.73101202
O        0.28652647       1.83243432      -0.45078862
C        0.91091045      -0.16128023      -0.65355244
C        2.03577651      -0.22330673       0.32326396
H       -2.26018843      -1.31393984      -1.09961536
H       -0.80747647      -1.83563804      -1.96854933
H       -1.11540172      -2.43330891      -0.33766780
H       -0.52418756       0.82907675      -1.10079043
H       -0.45017677      -0.19487327       1.77122403
H       -1.99907270       0.16216656       1.04633813
H        0.12240881       2.06984936       1.59138123
H       -1.35503225       2.36317586       0.64466982
H        1.23048598      -0.37636127      -1.67516123
H        1.74624766       0.10810548       1.31837462
H        2.37525718      -1.26332885       0.38154400
H        2.86393156       0.40022786      -0.01348256
19
Frame=8 idx=006724 GeodesicLength=0.5787193286357422 rxn_smarts="[C:1]([C@@:2]1([H:11])[C:3]([H:12])([H:13])[C:4]([H:14])([H:15])[O:5][C@:6]1([C:7]([H:17])([H:18])[H:19])[H:16])([H:8])([H:9])[H:10]>>[C:1](/[C:2]([C:3]([C:4]([O:5][H:11])([H:14])[H:15])([H:12])[H:13])=[C:6](/[C:7]([H:17])([H:18])[H:19])[H:16])([H:8])([H:9])[H:10]"
C       -1.19293204      -1.55701691      -0.98051029
C       -0.47264431      -0.36692672      -0.41686443
C       -0.92042810       0.24965235       0.88948027
C       -0.47772347       1.73609030       0.73403671
O        0.29376555       1.83927701      -0.43646976
C        0.91386623      -0.15074431      -0.65786626
C        2.03848702      -0.24461233       0.31759889
H       -2.25235274      -1.31579224      -1.09547637
H       -0.79677491      -1.84483576      -1.95642352
H       -1.10239564      -2.42167887      -0.31754599
H       -0.53313885       0.85874931      -1.11377268
H       -0.43741877      -0.18807135       1.76493190
H       -1.99480893       0.15633253       1.05669064
H        0.08665006       2.09024238       1.60162760
H       -1.37626485       2.35632803       0.62291533
H        1.23234525      -0.36453932      -1.68034826
H        1.75336809       0.07993393       1.31644703
H        2.36614626      -1.28873193       0.36230999
H        2.87225416       0.37634390      -0.01076080
19
Frame=9 idx=006724 GeodesicLength=0.6512229595635863 rxn_smarts="[C:1]([C@@:2]1([H:11])[C:3]([H:12])([H:13])[C:4]([H:14])([H:15])[O:5][C@:6]1([C:7]([H:17])([H:18])[H:19])[H:16])([H:8])([H:9])[H:10]>>[C:1](/[C:2]([C:3]([C:4]([O:5][H:11])([H:14])[H:15])([H:12])[H:13])=[C:6](/[C:7]([H:17])([H:18])[H:19])[H:16])([H:8])([H:9])[H:10]"
C       -1.18435621      -1.55487670      -0.97247898
C       -0.47130117      -0.35455608      -0.42288055
C       -0.91865871       0.25429860       0.88855377
C       -0.49304744       1.74187574       0.73677237
O        0.30074180       1.84575280      -0.42185699
C        0.91707281      -0.14037403      -0.66172038
C        2.04117753      -0.26631727       0.31167308
H       -2.24432078      -1.31725036      -1.09123646
H       -0.78586922      -1.85350900      -1.94406524
H       -1.08944389      -2.40978221      -0.29764526
H       -0.54187538       0.88881574      -1.12648789
H       -0.42430063      -0.18057153       1.75892363
H       -1.99009475       0.15031377       1.06742363
H        0.04936894       2.11113070       1.61122564
H       -1.39736521       2.34894623       0.60044130
H        1.23427817      -0.35257284      -1.68519990
H        1.76047667       0.05064461       1.31437672
H        2.35712303      -1.31418548       0.34226902
H        2.88039445       0.35221733      -0.00808750
19
Frame=10 idx=006724 GeodesicLength=0.7237397331226916 rxn_smarts="[C:1]([C@@:2]1([H:11])[C:3]([H:12])([H:13])[C:4]([H:14])([H:15])[O:5][C@:6]1([C:7]([H:17])([H:18])[H:19])[H:16])([H:8])([H:9])[H:10]>>[C:1](/[C:2]([C:3]([C:4]([O:5][H:11])([H:14])[H:15])([H:12])[H:13])=[C:6](/[C:7]([H:17])([H:18])[H:19])[H:16])([H:8])([H:9])[H:10]"
C       -1.17565769      -1.55248764      -0.96431361
C       -0.46975223      -0.34235855      -0.42850045
C       -0.91673239       0.25898102       0.88789275
C       -0.50879999       1.74766070       0.73922664
O        0.30737408       1.85186718      -0.40698932
C        0.92053114      -0.13017794      -0.66508142
C        2.04382909      -0.28840533       0.30548066
H       -2.23610135      -1.31831620      -1.08691847
H       -0.77475572      -1.86165889      -1.93147819
H       -1.07656427      -2.39764220      -0.27796097
H       -0.55037491       0.91929387      -1.13890902
H       -0.41085181      -0.17238161       1.75321778
H       -1.98494041       0.14411573       1.07852178
H        0.01067561       2.13246442       1.62005244
H       -1.41824019       2.34102872       0.57732141
H        1.23630030      -0.34047961      -1.68967591
H        1.76750737       0.02023868       1.31215723
H        2.34823530      -1.33963377       0.32138773
H        2.88831810       0.32789140      -0.00543104
19
Frame=11 idx=006724 GeodesicLength=0.7962716655240235 rxn_smarts="[C:1]([C@@:2]1([H:11])[C:3]([H:12])([H:13])[C:4]([H:14])([H:15])[O:5][C@:6]1([C:7]([H:17])([H:18])[H:19])[H:16])([H:8])([H:9])[H:10]>>[C:1](/[C:2]([C:3]([C:4]([O:5][H:11])([H:14])[H:15])([H:12])[H:13])=[C:6](/[C:7]([H:17])([H:18])[H:19])[H:16])([H:8])([H:9])[H:10]"
C       -1.16683950      -1.54986548      -0.95600425
C       -0.46799151      -0.33033821      -0.43371681
C       -0.91465507       0.26371223       0.88749698
C       -0.52497338       1.75343586       0.74139122
O        0.31363922       1.85764383      -0.39187694
C        0.92424289      -0.12014246      -0.66794328
C        2.04643315      -0.31086727       0.29902057
H       -2.22769732      -1.31900159      -1.08251794
H       -0.76343542      -1.86931069      -1.91865536
H       -1.06376080      -2.38527733      -0.25846497
H       -0.55862897       0.95020170      -1.15105568
H       -0.39708454      -0.16347980       1.74780688
H       -1.97934661       0.13777187       1.08997540
H       -0.02938885       2.15417071       1.62802121
H       -1.43885965       2.33257806       0.55362845
H        1.23841580      -0.32823967      -1.69376926
H        1.77441580      -0.01133882       1.30977752
H        2.33950059      -1.36504965       0.29962958
H        2.89601418       0.30339672      -0.00274332
19
Frame=12 idx=006724 GeodesicLength=0.8688187513443847 rxn_smarts="[C:1]([C@@:2]1([H:11])[C:3]([H:12])([H:13])[C:4]([H:14])([H:15])[O:5][C@:6]1([C:7]([H:17])([H:18])[H:19])[H:16])([H:8])([H:9])[H:10]>>[C:1](/[C:2]([C:3]([C:4]([O:5][H:11])([H:14])[H:15])([H:12])[H:13])=[C:6](/[C:7]([H:17])([H:18])[H:19])[H:16])([H:8])([H:9])[H:10]"
C       -1.15790585      -1.54702579      -0.94754059
C       -0.46601440      -0.31849855      -0.43852341
C       -0.91243483       0.26850585       0.88736552
C       -0.54156048       1.75919258       0.74325526
O        0.31950982       1.86310754      -0.37653682
C        0.92820968      -0.11025466      -0.67029666
C        2.04897678      -0.33369183       0.29229133
H       -2.21911150      -1.31931914      -1.07803007
H       -0.75190883      -1.87649033      -1.90558616
H       -1.05103870      -2.37270501      -0.23912897
H       -0.56662627       0.98155902      -1.16295035
H       -0.38301027      -0.15384494       1.74268144
H       -1.97330987       0.13131417       1.10177817
H       -0.07076598       2.17616743       1.63504682
H       -1.45919114       2.32359305       0.52943621
H        1.24063141      -0.31583646      -1.69746715
H        1.78114391      -0.04414228       1.30722205
H        2.33093960      -1.39039540       0.27694888
H        2.90346691       0.27876476       0.00003450
19
Frame=13 idx=006724 GeodesicLength=0.9413792218860927 rxn_smarts="[C:1]([C@@:2]1([H:11])[C:3]([H:12])([H:13])[C:4]([H:14])([H:15])[O:5][C@:6]1([C:7]([H:17])([H:18])[H:19])[H:16])([H:8])([H:9])[H:10]>>[C:1](/[C:2]([C:3]([C:4]([O:5][H:11])([H:14])[H:15])([H:12])[H:13])=[C:6](/[C:7]([H:17])([H:18])[H:19])[H:16])([H:8])([H:9])[H:10]"
C       -1.14885901      -1.54398750      -0.93891253
C       -0.46381752      -0.30684389      -0.44291723
C       -0.91007927       0.27337242       0.88749634
C       -0.55854858       1.76491667       0.74480775
O        0.32495744       1.86828283      -0.36099077
C        0.93243197      -0.10050297      -0.67213490
C        2.05144519      -0.35686308       0.28529386
H       -2.21034646      -1.31928629      -1.07345136
H       -0.74017297      -1.88322955      -1.89226218
H       -1.03840018      -2.35994291      -0.21992363
H       -0.57436179       1.01338604      -1.17461697
H       -0.36864206      -0.14346185       1.73782862
H       -1.96683463       0.12477862       1.11392180
H       -0.11337241       2.19837676       1.64104443
H       -1.47921062       2.31408539       0.50483266
H        1.24295327      -0.30325206      -1.70076021
H        1.78762723      -0.07822819       1.30447178
H        2.32256941      -1.41563717       0.25330797
H        2.91066100       0.25403674       0.00296456
19
Frame=14 idx=006724 GeodesicLength=1.0139590347181002 rxn_smarts="[C:1]([C@@:2]1([H:11])[C:3]([H:12])([H:13])[C:4]([H:14])([H:15])[O:5][C@:6]1([C:7]([H:17])([H:18])[H:19])[H:16])([H:8])([H:9])[H:10]>>[C:1](/[C:2]([C:3]([C:4]([O:5][H:11])([H:14])[H:15])([H:12])[H:13])=[C:6](/[C:7]([H:17])([H:18])[H:19])[H:16])([H:8])([H:9])[H:10]"
C       -1.13970070      -1.54076860      -0.93010535
C       -0.46139782      -0.29537723      -0.44689530
C       -0.90759476       0.27832619       0.88788714
C       -0.57591910       1.77059838       0.74603550
O        0.32995911       1.87319720      -0.34526797
C        0.93691099      -0.09087430      -0.67344956
C        2.05382095      -0.38036815       0.27802372
H       -2.20140293      -1.31892096      -1.06877494
H       -0.72822411      -1.88955953      -1.87866707
H       -1.02584768      -2.34700539      -0.20081482
H       -0.58182961       1.04570656      -1.18608199
H       -0.35399290      -0.13231446       1.73323213
H       -1.95991786       0.11820174       1.12640080
H       -0.15714025       2.22070235       1.64594369
H       -1.49888804       2.30405962       0.47989498
H        1.24538817      -0.29046876      -1.70363450
H        1.79379076      -0.11365380       1.30150237
H        2.31440635      -1.44072705       0.22865633
H        2.91757946       0.22924621       0.00611485
19
Frame=15 idx=006724 GeodesicLength=1.086563502284322 rxn_smarts="[C:1]([C@@:2]1([H:11])[C:3]([H:12])([H:13])[C:4]([H:14])([H:15])[O:5][C@:6]1([C:7]([H:17])([H:18])[H:19])[H:16])([H:8])([H:9])[H:10]>>[C:1](/[C:2]([C:3]([C:4]([O:5][H:11])([H:14])[H:15])([H:12])[H:13])=[C:6](/[C:7]([H:17])([H:18])[H:19])[H:16])([H:8])([H:9])[H:10]"
C       -1.13043308      -1.53738957      -0.92110629
C       -0.45875300      -0.28410283      -0.45045773
C       -0.90498632       0.28337827       0.88853450
C       -0.59364960       1.77622213       0.74692578
O        0.33449084       1.87787796      -0.32940130
C        0.94164708      -0.08135785      -0.67423392
C        2.05608578      -0.40418853       0.27047718
H       -2.19228302      -1.31824382      -1.06399359
H       -0.71605845      -1.89551613      -1.86478637
H       -1.01338217      -2.33390739      -0.18176916
H       -0.58902652       1.07854597      -1.19737399
H       -0.33907527      -0.12039244       1.72887252
H       -1.95256050       0.11162257       1.13920989
H       -0.20198431       2.24305607       1.64967664
H       -1.51819934       2.29352775       0.45471043
H        1.24794373      -0.27746953      -1.70608007
H        1.79955181      -0.15047685       1.29828477
H        2.30646791      -1.46562057       0.20295245
H        2.92420443       0.20443480       0.00955825
19
Frame=16 idx=006724 GeodesicLength=1.1591969418037724 rxn_smarts="[C:1]([C@@:2]1([H:11])[C:3]([H:12])([H:13])[C:4]([H:14])([H:15])[O:5][C@:6]1([C:7]([H:17])([H:18])[H:19])[H:16])([H:8])([H:9])[H:10]>>[C:1](/[C:2]([C:3]([C:4]([O:5][H:11])([H:14])[H:15])([H:12])[H:13])=[C:6](/[C:7]([H:17])([H:18])[H:19])[H:16])([H:8])([H:9])[H:10]"
C       -1.12105806      -1.53387100      -0.91190069
C       -0.45588259      -0.27302481      -0.45360589
C       -0.90225882       0.28853914       0.88943459
C       -0.61171516       1.78177254       0.74746629
O        0.33853045       1.88235208      -0.31343157
C        0.94664013      -0.07194449      -0.67448047
C        2.05821902      -0.42830274       0.26265160
H       -2.18298843      -1.31727742      -1.05909912
H       -0.70367152      -1.90113386      -1.85060394
H       -1.00100364      -2.32066263      -0.16275336
H       -0.59595239       1.11193034      -1.20852172
H       -0.32390244      -0.10769057       1.72472772
H       -1.94476228       0.10508226       1.15234400
H       -0.24780927       2.26534710       1.65218545
H       -1.53712226       2.28249924       0.42936221
H        1.25062760      -0.26423923      -1.70808429
H        1.80481922      -0.18875192       1.29478526
H        2.29877369      -1.49026614       0.17615108
H        2.93051675       0.17964211       0.01337284
