12
Frame=0 idx=002575 GeodesicLength=0.0 rxn_smarts="[N:1]1([H:7])[C@@:2]2([H:8])[C@:3]1([H:9])[C@@:4]1([H:10])[N:5]([H:11])[C@@:6]21[H:12]>>[N:1]1=[C:2]([H:8])[C@@:6]([N:5]([H:7])[H:11])([H:12])[C:4]([H:10])=[C:3]1[H:9]"
N       -1.00206179      -1.11299764      -0.48593625
C        0.01130741      -0.36714463      -1.06801728
C       -1.25161525       0.28969048      -0.19283254
C       -0.17142990       0.94634240       0.41881552
N        1.03889715      -0.93298306       1.04270527
C        0.97973388       0.09022752       0.05873941
H       -0.50588034      -1.46862835       0.39316021
H        0.07382422      -0.17039438      -2.13052215
H       -2.21366680       0.71377234      -0.43963862
H       -0.20497034       1.96108960       0.80749551
H        1.35693264      -0.52204655       1.91420632
H        1.88892909       0.57307223      -0.31817537
12
Frame=1 idx=002575 GeodesicLength=0.11400937095807417 rxn_smarts="[N:1]1([H:7])[C@@:2]2([H:8])[C@:3]1([H:9])[C@@:4]1([H:10])[N:5]([H:11])[C@@:6]21[H:12]>>[N:1]1=[C:2]([H:8])[C@@:6]([N:5]([H:7])[H:11])([H:12])[C:4]([H:10])=[C:3]1[H:9]"
N       -1.01148327      -1.10458528      -0.49729079
C        0.01020247      -0.36986461      -1.07583340
C       -1.25721912       0.29923530      -0.20775390
C       -0.17928314       0.94295139       0.42753340
N        0.99640392      -0.90743987       1.06436402
C        0.97158762       0.09255833       0.05376008
H       -0.50665695      -1.47272558       0.40224452
H        0.09436679      -0.20149033      -2.14148264
H       -2.21825036       0.72647554      -0.45261180
H       -0.21174770       1.94680905       0.84200812
H        1.42868686      -0.52803563       1.89778955
H        1.88339288       0.57611171      -0.31272716
12
Frame=2 idx=002575 GeodesicLength=0.2278121864011045 rxn_smarts="[N:1]1([H:7])[C@@:2]2([H:8])[C@:3]1([H:9])[C@@:4]1([H:10])[N:5]([H:11])[C@@:6]21[H:12]>>[N:1]1=[C:2]([H:8])[C@@:6]([N:5]([H:7])[H:11])([H:12])[C:4]([H:10])=[C:3]1[H:9]"
N       -1.02003426      -1.09582316      -0.50677472
C        0.00983520      -0.37268591      -1.08211382
C       -1.26271171       0.30932794      -0.22263480
C       -0.18817805       0.94158015       0.43572260
N        0.95477548      -0.87752080       1.08775294
C        0.96306796       0.09692060       0.05029220
H       -0.50591304      -1.47515905       0.41464569
H        0.11648202      -0.23511273      -2.14992230
H       -2.22277622       0.73890066      -0.46676086
H       -0.22078204       1.93477760       0.87356878
H        1.49918269      -0.54669546       1.87245076
H        1.87705196       0.58149015      -0.30622646
12
Frame=3 idx=002575 GeodesicLength=0.34132997243370233 rxn_smarts="[N:1]1([H:7])[C@@:2]2([H:8])[C@:3]1([H:9])[C@@:4]1([H:10])[N:5]([H:11])[C@@:6]21[H:12]>>[N:1]1=[C:2]([H:8])[C@@:6]([N:5]([H:7])[H:11])([H:12])[C:4]([H:10])=[C:3]1[H:9]"
N       -1.02722920      -1.08694866      -0.51394698
C        0.01032949      -0.37555861      -1.08680668
C       -1.26793913       0.31972108      -0.23718073
C       -0.19791583       0.94258029       0.44324366
N        0.91524997      -0.84294885       1.11230985
C        0.95449980       0.10386148       0.04805467
H       -0.50269897      -1.47569419       0.43090259
H        0.13985487      -0.27129220      -2.15563018
H       -2.22725416       0.75052630      -0.48168875
H       -0.23191947       1.92565338       0.90182547
H        1.56492767      -0.57980081       1.83811073
H        1.87009497       0.58990079      -0.29919365
12
Frame=4 idx=002575 GeodesicLength=0.454709403940232 rxn_smarts="[N:1]1([H:7])[C@@:2]2([H:8])[C@:3]1([H:9])[C@@:4]1([H:10])[N:5]([H:11])[C@@:6]21[H:12]>>[N:1]1=[C:2]([H:8])[C@@:6]([N:5]([H:7])[H:11])([H:12])[C:4]([H:10])=[C:3]1[H:9]"
N       -1.03263853      -1.07822754      -0.51839429
C        0.01191557      -0.37851981      -1.08966104
C       -1.27285869       0.33011798      -0.25128509
C       -0.20855543       0.94619760       0.45011208
N        0.87850915      -0.80318390       1.13813072
C        0.94604326       0.11391799       0.04708504
H       -0.49635504      -1.47397371       0.45170306
H        0.16445059      -0.30965454      -2.15813325
H       -2.23180894       0.76068121      -0.49735847
H       -0.24524513       1.92029649       0.92591028
H        1.62386456      -0.62965317       1.79341371
H        1.86267862       0.60200139      -0.29152275
12
Frame=5 idx=002575 GeodesicLength=0.5681614989912169 rxn_smarts="[N:1]1([H:7])[C@@:2]2([H:8])[C@:3]1([H:9])[C@@:4]1([H:10])[N:5]([H:11])[C@@:6]21[H:12]>>[N:1]1=[C:2]([H:8])[C@@:6]([N:5]([H:7])[H:11])([H:12])[C:4]([H:10])=[C:3]1[H:9]"
N       -1.03560599      -1.06994873      -0.51959587
C        0.01487119      -0.38140689      -1.09048167
C       -1.27735853       0.34010256      -0.26452503
C       -0.21997149       0.95268103       0.45635564
N        0.84580242      -0.75756677       1.16510383
C        0.93808576       0.12776872       0.04717018
H       -0.48568000      -1.46962716       0.47768897
H        0.19039091      -0.34991328      -2.15705927
H       -2.23670631       0.76836477      -0.51299055
H       -0.26067960       1.91973040       0.94473456
H        1.67167538      -0.69878588       1.73700678
H        1.85517625       0.61860122      -0.28340758
12
Frame=6 idx=002575 GeodesicLength=0.681114941144255 rxn_smarts="[N:1]1([H:7])[C@@:2]2([H:8])[C@:3]1([H:9])[C@@:4]1([H:10])[N:5]([H:11])[C@@:6]21[H:12]>>[N:1]1=[C:2]([H:8])[C@@:6]([N:5]([H:7])[H:11])([H:12])[C:4]([H:10])=[C:3]1[H:9]"
N       -1.03537061      -1.06218157      -0.51780171
C        0.01914625      -0.38384870      -1.09002096
C       -1.28077836       0.34925718      -0.27604177
C       -0.23100892       0.96146776       0.46190789
N        0.81966164      -0.70720171       1.19075160
C        0.93141825       0.14517908       0.04673186
H       -0.46892459      -1.46266809       0.50791043
H        0.21747002      -0.39194762      -2.15284934
H       -2.24194431       0.77268024      -0.52544594
H       -0.27667959       1.92288227       0.95956274
H        1.69891389      -0.78298825       1.67203205
H        1.84809634       0.63936941      -0.27673686
12
Frame=7 idx=002575 GeodesicLength=0.7940995931092151 rxn_smarts="[N:1]1([H:7])[C@@:2]2([H:8])[C@:3]1([H:9])[C@@:4]1([H:10])[N:5]([H:11])[C@@:6]21[H:12]>>[N:1]1=[C:2]([H:8])[C@@:6]([N:5]([H:7])[H:11])([H:12])[C:4]([H:10])=[C:3]1[H:9]"
N       -1.03269960      -1.05507423      -0.51414797
C        0.02405080      -0.38568925      -1.08950884
C       -1.28306345       0.35734125      -0.28539027
C       -0.24059893       0.97088243       0.46752484
N        0.80187076      -0.65556775       1.21297304
C        0.92652230       0.16477032       0.04444439
H       -0.44612288      -1.45428224       0.54070706
H        0.24462352      -0.43516586      -2.14668783
H       -2.24691382       0.77468979      -0.53447057
H       -0.29154257       1.92682880       0.97386713
H        1.70179863      -0.87166647       1.60367353
H        1.84207524       0.66293321      -0.27298451
12
Frame=8 idx=002575 GeodesicLength=0.907758130880444 rxn_smarts="[N:1]1([H:7])[C@@:2]2([H:8])[C@:3]1([H:9])[C@@:4]1([H:10])[N:5]([H:11])[C@@:6]21[H:12]>>[N:1]1=[C:2]([H:8])[C@@:6]([N:5]([H:7])[H:11])([H:12])[C:4]([H:10])=[C:3]1[H:9]"
N       -1.02852585      -1.04846030      -0.51022012
C        0.02905527      -0.38696267      -1.08993783
C       -1.28421166       0.36441811      -0.29257529
C       -0.24823543       0.97932185       0.47385644
N        0.79210454      -0.60577114       1.23032391
C        0.92328289       0.18491430       0.03959888
H       -0.41837049      -1.44556631       0.57406964
H        0.27120803      -0.47848949      -2.13946245
H       -2.25126832       0.77539201      -0.53974292
H       -0.30410109       1.92936265       0.98946556
H        1.68200380      -0.95568469       1.53744992
H        1.83705830       0.68752567      -0.27282574
12
Frame=9 idx=002575 GeodesicLength=1.0223901535850068 rxn_smarts="[N:1]1([H:7])[C@@:2]2([H:8])[C@:3]1([H:9])[C@@:4]1([H:10])[N:5]([H:11])[C@@:6]21[H:12]>>[N:1]1=[C:2]([H:8])[C@@:6]([N:5]([H:7])[H:11])([H:12])[C:4]([H:10])=[C:3]1[H:9]"
N       -1.02426019      -1.04202995      -0.50756596
C        0.03355410      -0.38785512      -1.09200665
C       -1.28453091       0.37087033      -0.29808758
C       -0.25393983       0.98555416       0.48144284
N        0.78877261      -0.56037588       1.24237389
C        0.92116775       0.20413720       0.03214137
H       -0.38767716      -1.43754373       0.60638651
H        0.29689323      -0.52146368      -2.13184294
H       -2.25470581       0.77630644      -0.54220418
H       -0.31378971       1.92872536       1.00788585
H        1.64592964      -1.02805592       1.47762316
H        1.83258627       0.71173079      -0.27614633
12
Frame=10 idx=002575 GeodesicLength=1.137702779336765 rxn_smarts="[N:1]1([H:7])[C@@:2]2([H:8])[C@:3]1([H:9])[C@@:4]1([H:10])[N:5]([H:11])[C@@:6]21[H:12]>>[N:1]1=[C:2]([H:8])[C@@:6]([N:5]([H:7])[H:11])([H:12])[C:4]([H:10])=[C:3]1[H:9]"
N       -1.02093845      -1.03535717      -0.50701815
C        0.03719033      -0.38856265      -1.09574530
C       -1.28433445       0.37725716      -0.30253791
C       -0.25821334       0.98911091       0.49055218
N        0.78984605      -0.52041370       1.24951461
C        0.91938398       0.22172606       0.02255155
H       -0.35584356      -1.43063109       0.63693953
H        0.32187932      -0.56468574      -2.12354162
H       -2.25686616       0.77892640      -0.54346831
H       -0.32102816       1.92409373       1.02987516
H        1.60110748      -1.08635876       1.42509594
H        1.82781696       0.73489486      -0.28221769
12
Frame=11 idx=002575 GeodesicLength=1.2535660088128813 rxn_smarts="[N:1]1([H:7])[C@@:2]2([H:8])[C@:3]1([H:9])[C@@:4]1([H:10])[N:5]([H:11])[C@@:6]21[H:12]>>[N:1]1=[C:2]([H:8])[C@@:6]([N:5]([H:7])[H:11])([H:12])[C:4]([H:10])=[C:3]1[H:9]"
N       -1.01916615      -1.02831107      -0.50915018
C        0.03996151      -0.38918091      -1.10112473
C       -1.28392233       0.38382939      -0.30653310
C       -0.26146792       0.99005745       0.50103549
N        0.79354475      -0.48581355       1.25278683
C        0.91754433       0.23750352       0.01147962
H       -0.32406530      -1.42517026       0.66562948
H        0.34626300      -0.60758488      -2.11457149
H       -2.25826952       0.78335656      -0.54376703
H       -0.32595312       1.91613244       1.05417571
H        1.55297224      -1.13165138       1.38017220
H        1.82255851       0.75683269      -0.29013279
12
Frame=12 idx=002575 GeodesicLength=1.3697652585335487 rxn_smarts="[N:1]1([H:7])[C@@:2]2([H:8])[C@:3]1([H:9])[C@@:4]1([H:10])[N:5]([H:11])[C@@:6]21[H:12]>>[N:1]1=[C:2]([H:8])[C@@:6]([N:5]([H:7])[H:11])([H:12])[C:4]([H:10])=[C:3]1[H:9]"
N       -1.01912822      -1.02079865      -0.51391669
C        0.04201230      -0.38997039      -1.10779593
C       -1.28341044       0.39077346      -0.31049668
C       -0.26409430       0.98869981       0.51258227
N        0.79872598      -0.45588373       1.25311561
C        0.91533563       0.25161202      -0.00054954
H       -0.29302719      -1.42095945       0.69301648
H        0.37010460      -0.64999914      -2.10462258
H       -2.25896734       0.78974629      -0.54383882
H       -0.32919156       1.90524361       1.08019859
H        1.50507244      -1.16603958       1.34154157
H        1.81656809       0.77757575      -0.29923428
12
Frame=13 idx=002575 GeodesicLength=1.4861734526038601 rxn_smarts="[N:1]1([H:7])[C@@:2]2([H:8])[C@:3]1([H:9])[C@@:4]1([H:10])[N:5]([H:11])[C@@:6]21[H:12]>>[N:1]1=[C:2]([H:8])[C@@:6]([N:5]([H:7])[H:11])([H:12])[C:4]([H:10])=[C:3]1[H:9]"
N       -1.02091039      -1.01278802      -0.52107369
C        0.04346062      -0.39116611      -1.11533752
C       -1.28289344       0.39816217      -0.31465163
C       -0.26646447       0.98523529       0.52509380
N        0.80472922      -0.42996014       1.25131713
C        0.91250330       0.26430532      -0.01305640
H       -0.26315072      -1.41774843       0.71985131
H        0.39337656      -0.69191750      -2.09335518
H       -2.25881954       0.79829312      -0.54465256
H       -0.33125324       1.89180701       1.10745212
H        1.45978914      -1.19152817       1.30735701
H        1.80963295       0.79730546      -0.30894440
12
Frame=14 idx=002575 GeodesicLength=1.602835570816702 rxn_smarts="[N:1]1([H:7])[C@@:2]2([H:8])[C@:3]1([H:9])[C@@:4]1([H:10])[N:5]([H:11])[C@@:6]21[H:12]>>[N:1]1=[C:2]([H:8])[C@@:6]([N:5]([H:7])[H:11])([H:12])[C:4]([H:10])=[C:3]1[H:9]"
N       -1.02440148      -1.00417096      -0.53056239
C        0.04448916      -0.39273922      -1.12362027
C       -1.28236648       0.40611539      -0.31920047
C       -0.26873526       0.97998173       0.53827508
N        0.81123549      -0.40728950       1.24786075
C        0.90902156       0.27588044      -0.02587185
H       -0.23449406      -1.41526463       0.74661581
H        0.41623387      -0.73363061      -2.08052024
H       -2.25802810       0.80880161      -0.54612169
H       -0.33255208       1.87615615       1.13556473
H        1.41787621      -1.21021610       1.27658737
H        1.80172118       0.81637571      -0.31900684
12
Frame=15 idx=002575 GeodesicLength=1.7196978670710117 rxn_smarts="[N:1]1([H:7])[C@@:2]2([H:8])[C@:3]1([H:9])[C@@:4]1([H:10])[N:5]([H:11])[C@@:6]21[H:12]>>[N:1]1=[C:2]([H:8])[C@@:6]([N:5]([H:7])[H:11])([H:12])[C:4]([H:10])=[C:3]1[H:9]"
N       -1.02956792      -0.99487057      -0.54229808
C        0.04518264      -0.39474444      -1.13249456
C       -1.28183211       0.41469355      -0.32425841
C       -0.27103936       0.97311564       0.55192749
N        0.81799520      -0.38733414       1.24309202
C        0.90484156       0.28653583      -0.03885484
H       -0.20702869      -1.41335117       0.77372383
H        0.43870829      -0.77523340      -2.06588981
H       -2.25660425       0.82126487      -0.54837839
H       -0.33339928       1.85843626       1.16432482
H        1.37995659      -1.22345555       1.24838188
H        1.79278733       0.83494311      -0.32927595
12
Frame=16 idx=002575 GeodesicLength=1.836674727609673 rxn_smarts="[N:1]1([H:7])[C@@:2]2([H:8])[C@:3]1([H:9])[C@@:4]1([H:10])[N:5]([H:11])[C@@:6]21[H:12]>>[N:1]1=[C:2]([H:8])[C@@:6]([N:5]([H:7])[H:11])([H:12])[C:4]([H:10])=[C:3]1[H:9]"
N       -1.03629732      -0.98485635      -0.55622280
C        0.04564140      -0.39718853      -1.14182550
C       -1.28129806       0.42386078      -0.32982638
C       -0.27349269       0.96474507       0.56591498
N        0.82479459      -0.36968524       1.23733946
C        0.89993986       0.29639896      -0.05184976
H       -0.18058520      -1.41197338       0.80152952
H        0.46061478      -0.81660124      -2.04940106
H       -2.25454334       0.83560352      -0.55149778
H       -0.33394813       1.83893837       1.19329211
H        1.34633456      -1.23233628       1.22205533
H        1.78283954       0.85309431      -0.33950813
