11
Frame=0 idx=004494 GeodesicLength=0.0 rxn_smarts="[C:1]([C@@:2]([C:3](=[O:4])[H:11])([C:5]#[N:6])[H:10])([H:7])([H:8])[H:9]>>[C-:3]#[O+:4].[C:1]([C:2](=[C:5]=[N:6][H:11])[H:10])([H:7])([H:8])[H:9]"
C       -1.19665539      -0.62079583       0.55805592
C       -0.00991131       0.30672286       0.60933162
C        1.44857718      -0.37212687      -0.84839109
O        1.85342591      -1.43549814      -0.91095769
C        0.06521389       1.43589492      -0.15813578
N        0.53817290       2.00469771      -1.08713312
H       -1.95359534      -0.35335352       1.29795470
H       -1.66575006      -0.61111538      -0.42620301
H       -0.87328461      -1.64102573       0.77295844
H        0.52650380       0.35176855       1.55415747
H        1.26730298       0.93483142      -1.36163750
11
Frame=1 idx=004494 GeodesicLength=0.055833652382787057 rxn_smarts="[C:1]([C@@:2]([C:3](=[O:4])[H:11])([C:5]#[N:6])[H:10])([H:7])([H:8])[H:9]>>[C-:3]#[O+:4].[C:1]([C:2](=[C:5]=[N:6][H:11])[H:10])([H:7])([H:8])[H:9]"
C       -1.19400312      -0.62266666       0.55743866
C       -0.00577798       0.30393970       0.60497047
C        1.46932359      -0.37269154      -0.83640355
O        1.83130018      -1.45092963      -0.92238080
C        0.05637017       1.44022450      -0.15610091
N        0.52835538       2.01356931      -1.08352526
H       -1.95145873      -0.34969150       1.29466485
H       -1.66129187      -0.61804420      -0.42766736
H       -0.87181312      -1.64199121       0.77811785
H        0.52227057       0.35883014       1.55430918
H        1.27672494       0.93945109      -1.36342312
11
Frame=2 idx=004494 GeodesicLength=0.11126794108885826 rxn_smarts="[C:1]([C@@:2]([C:3](=[O:4])[H:11])([C:5]#[N:6])[H:10])([H:7])([H:8])[H:9]>>[C-:3]#[O+:4].[C:1]([C:2](=[C:5]=[N:6][H:11])[H:10])([H:7])([H:8])[H:9]"
C       -1.19143333      -0.62436012       0.55678707
C       -0.00183684       0.30143661       0.60056227
C        1.48678789      -0.37508486      -0.82634778
O        1.81135559      -1.46462172      -0.93169201
C        0.04746941       1.44464660      -0.15401119
N        0.51853870       2.02229614      -1.07993848
H       -1.94915129      -0.34622146       1.29167442
H       -1.65725505      -0.62443999      -0.42895591
H       -0.87027415      -1.64279635       0.78269966
H        0.51885379       0.36511730       1.55371538
H        1.28694529       0.94402786      -1.36449344
11
Frame=3 idx=004494 GeodesicLength=0.16660763900222292 rxn_smarts="[C:1]([C@@:2]([C:3](=[O:4])[H:11])([C:5]#[N:6])[H:10])([H:7])([H:8])[H:9]>>[C-:3]#[O+:4].[C:1]([C:2](=[C:5]=[N:6][H:11])[H:10])([H:7])([H:8])[H:9]"
C       -1.18888516      -0.62593820       0.55610185
C        0.00196409       0.29919896       0.59613779
C        1.50213883      -0.37878434      -0.81743838
O        1.79274809      -1.47727412      -0.93971234
C        0.03849890       1.44919791      -0.15186392
N        0.50867106       2.03100136      -1.07638014
H       -1.94671997      -0.34292385       1.28887832
H       -1.65345638      -0.63048934      -0.43016832
H       -0.86860863      -1.64350969       0.78688361
H        0.51593078       0.37094973       1.55268368
H        1.29771838       0.94857157      -1.36512215
11
Frame=4 idx=004494 GeodesicLength=0.2217906610970765 rxn_smarts="[C:1]([C@@:2]([C:3](=[O:4])[H:11])([C:5]#[N:6])[H:10])([H:7])([H:8])[H:9]>>[C-:3]#[O+:4].[C:1]([C:2](=[C:5]=[N:6][H:11])[H:10])([H:7])([H:8])[H:9]"
C       -1.18630107      -0.62743096       0.55538345
C        0.00565319       0.29721670       0.59168896
C        1.51608158      -0.38346105      -0.80916150
O        1.77480921      -1.48916989      -0.94700750
C        0.02943002       1.45382812      -0.14968253
N        0.49872391       2.03965020      -1.07284368
H       -1.94418354      -0.33980132       1.28618210
H       -1.64975471      -0.63632960      -0.43131784
H       -0.86674098      -1.64410600       0.79078683
H        0.51329274       0.37654872       1.55132102
H        1.30898965       0.95305508      -1.36534931
11
Frame=5 idx=004494 GeodesicLength=0.27694504504071826 rxn_smarts="[C:1]([C@@:2]([C:3](=[O:4])[H:11])([C:5]#[N:6])[H:10])([H:7])([H:8])[H:9]>>[C-:3]#[O+:4].[C:1]([C:2](=[C:5]=[N:6][H:11])[H:10])([H:7])([H:8])[H:9]"
C       -1.18365528      -0.62884858       0.55460440
C        0.00924779       0.29550675       0.58721271
C        1.52883344      -0.38898791      -0.80140113
O        1.75740912      -1.50061320      -0.95351867
C        0.02025285       1.45858481      -0.14745120
N        0.48868950       2.04834047      -1.06928680
H       -1.94150242      -0.33690330       1.28359658
H       -1.64616047      -0.64192488      -0.43243434
H       -0.86461850      -1.64462058       0.79431904
H        0.51091577       0.38197434       1.54968255
H        1.32058819       0.95749209      -1.36532314
11
Frame=6 idx=004494 GeodesicLength=0.3320646218715822 rxn_smarts="[C:1]([C@@:2]([C:3](=[O:4])[H:11])([C:5]#[N:6])[H:10])([H:7])([H:8])[H:9]>>[C-:3]#[O+:4].[C:1]([C:2](=[C:5]=[N:6][H:11])[H:10])([H:7])([H:8])[H:9]"
C       -1.18096978      -0.63018972       0.55377580
C        0.01277139       0.29401344       0.58269292
C        1.54073643      -0.39522651      -0.79394924
O        1.74048915      -1.51163251      -0.95946294
C        0.01097938       1.46343498      -0.14515570
N        0.47856218       2.05707476      -1.06568537
H       -1.93870460      -0.33416803       1.28111073
H       -1.64267279      -0.64729626      -0.43351780
H       -0.86231195      -1.64505706       0.79754810
H        0.50872820       0.38724013       1.54781212
H        1.33239238       0.96180678      -1.36516862
11
Frame=7 idx=004494 GeodesicLength=0.38714377082109563 rxn_smarts="[C:1]([C@@:2]([C:3](=[O:4])[H:11])([C:5]#[N:6])[H:10])([H:7])([H:8])[H:9]>>[C-:3]#[O+:4].[C:1]([C:2](=[C:5]=[N:6][H:11])[H:10])([H:7])([H:8])[H:9]"
C       -1.17829337      -0.63143153       0.55288860
C        0.01625196       0.29266527       0.57809035
C        1.55203918      -0.40205078      -0.78671576
O        1.72425428      -1.52227054      -0.96471266
C        0.00164717       1.46835737      -0.14275014
N        0.46833846       2.06588874      -1.06197518
H       -1.93576384      -0.33156817       1.27879568
H       -1.63942059      -0.65231846      -0.43454310
H       -0.85992578      -1.64543444       0.80037059
H        0.50672958       0.39226019       1.54570136
H        1.34414295       0.96590235      -1.36514973
11
Frame=8 idx=004494 GeodesicLength=0.44220395295617154 rxn_smarts="[C:1]([C@@:2]([C:3](=[O:4])[H:11])([C:5]#[N:6])[H:10])([H:7])([H:8])[H:9]>>[C-:3]#[O+:4].[C:1]([C:2](=[C:5]=[N:6][H:11])[H:10])([H:7])([H:8])[H:9]"
C       -1.17554965      -0.63260955       0.55194104
C        0.01967685       0.29153711       0.57343576
C        1.56275699      -0.40945896      -0.77959777
O        1.70825384      -1.53264995      -0.96954420
C       -0.00779655       1.47337822      -0.14027478
N        0.45799559       2.07478193      -1.05819846
H       -1.93270226      -0.32914073       1.27655232
H       -1.63622632      -0.65715424      -0.43555775
H       -0.85731594      -1.64573992       0.80290591
H        0.50485866       0.39720116       1.54340514
H        1.35604880       0.96985494      -1.36506721
11
Frame=9 idx=004494 GeodesicLength=0.49727596541245656 rxn_smarts="[C:1]([C@@:2]([C:3](=[O:4])[H:11])([C:5]#[N:6])[H:10])([H:7])([H:8])[H:9]>>[C-:3]#[O+:4].[C:1]([C:2](=[C:5]=[N:6][H:11])[H:10])([H:7])([H:8])[H:9]"
C       -1.17269335      -0.63374596       0.55092917
C        0.02303858       0.29067444       0.56874027
C        1.57290834      -0.41745191      -0.77252654
O        1.69221180      -1.54285487      -0.97409561
C       -0.01738876       1.47851529      -0.13776395
N        0.44751055       2.08375669      -1.05439466
H       -1.92951333      -0.32692592       1.27434818
H       -1.63301201      -0.66187811      -0.43658316
H       -0.85438884      -1.64597544       0.80518798
H        0.50307991       0.40216904       1.54095229
H        1.36824710       0.97371674      -1.36479397
11
Frame=10 idx=004494 GeodesicLength=0.5523470096841898 rxn_smarts="[C:1]([C@@:2]([C:3](=[O:4])[H:11])([C:5]#[N:6])[H:10])([H:7])([H:8])[H:9]>>[C-:3]#[O+:4].[C:1]([C:2](=[C:5]=[N:6][H:11])[H:10])([H:7])([H:8])[H:9]"
C       -1.16975890      -0.63481948       0.54984288
C        0.02635847       0.29002789       0.56398009
C        1.58260361      -0.42596676      -0.76548246
O        1.67633645      -1.55289158      -0.97822379
C       -0.02709709       1.48375825      -0.13516722
N        0.43688845       2.09285410      -1.05049068
H       -1.92618868      -0.32489242       1.27221733
H       -1.62985318      -0.66639969      -0.43761113
H       -0.85122612      -1.64614829       0.80714989
H        0.50141242       0.40707734       1.53833078
H        1.38052457       0.97740066      -1.36454569
11
Frame=11 idx=004494 GeodesicLength=0.6074397322015193 rxn_smarts="[C:1]([C@@:2]([C:3](=[O:4])[H:11])([C:5]#[N:6])[H:10])([H:7])([H:8])[H:9]>>[C-:3]#[O+:4].[C:1]([C:2](=[C:5]=[N:6][H:11])[H:10])([H:7])([H:8])[H:9]"
C       -1.16669993      -0.63585623       0.54869172
C        0.02962560       0.28964299       0.55916814
C        1.59183143      -0.43503404      -0.75839753
O        1.66031699      -1.56279267      -0.98217521
C       -0.03696791       1.48911439      -0.13253266
N        0.42608882       2.10204977      -1.04655436
H       -1.92274381      -0.32305273       1.27010222
H       -1.62663719      -0.67084495      -0.43866234
H       -0.84773710      -1.64624916       0.80889925
H        0.49981574       0.41204238       1.53556709
H        1.39310737       0.98098025      -1.36410631
11
Frame=12 idx=004494 GeodesicLength=0.662547034067174 rxn_smarts="[C:1]([C@@:2]([C:3](=[O:4])[H:11])([C:5]#[N:6])[H:10])([H:7])([H:8])[H:9]>>[C-:3]#[O+:4].[C:1]([C:2](=[C:5]=[N:6][H:11])[H:10])([H:7])([H:8])[H:9]"
C       -1.16354551      -0.63683235       0.54745364
C        0.03285951       0.28948244       0.55428590
C        1.60067460      -0.44459857      -0.75126189
O        1.64438190      -1.57258020      -0.98572404
C       -0.04696336       1.49458623      -0.12980151
N        0.41512817       2.11140078      -1.04249900
H       -1.91915108      -0.32140650       1.26805369
H       -1.62345756      -0.67508629      -0.43973199
H       -0.84398516      -1.64629220       0.81030776
H        0.49831431       0.41697803       1.53265196
H        1.40574417       0.98434863      -1.36373452
11
Frame=13 idx=004494 GeodesicLength=0.7176978427591054 rxn_smarts="[C:1]([C@@:2]([C:3](=[O:4])[H:11])([C:5]#[N:6])[H:10])([H:7])([H:8])[H:9]>>[C-:3]#[O+:4].[C:1]([C:2](=[C:5]=[N:6][H:11])[H:10])([H:7])([H:8])[H:9]"
C       -1.16024066      -0.63777566       0.54613383
C        0.03604585       0.28960499       0.54934883
C        1.60907574      -0.45471042      -0.74402646
O        1.62821418      -1.58228568      -0.98908488
C       -0.05713677       1.50018653      -0.12702992
N        0.40398488       2.12089446      -1.03838327
H       -1.91541480      -0.31998649       1.26602013
H       -1.62019858      -0.67924824      -0.44084157
H       -0.83985827      -1.64626816       0.81146400
H        0.49686797       0.42201341       1.52960971
H        1.41866046       0.98757526      -1.36321040
11
Frame=14 idx=004494 GeodesicLength=0.7729230086069597 rxn_smarts="[C:1]([C@@:2]([C:3](=[O:4])[H:11])([C:5]#[N:6])[H:10])([H:7])([H:8])[H:9]>>[C-:3]#[O+:4].[C:1]([C:2](=[C:5]=[N:6][H:11])[H:10])([H:7])([H:8])[H:9]"
C       -1.15674119      -0.63870184       0.54472603
C        0.03917938       0.29005577       0.54436876
C        1.61698136      -0.46540600      -0.73666796
O        1.61160670      -1.59194252      -0.99233133
C       -0.06752110       1.50593175      -0.12424515
N        0.39263782       2.13053096      -1.03424002
H       -1.91152295      -0.31883295       1.26397532
H       -1.61678576      -0.68338354      -0.44201041
H       -0.83526812      -1.64617370       0.81238243
H        0.49546095       0.42722955       1.52645530
H        1.43197289       0.99069252      -1.36241295
11
Frame=15 idx=004494 GeodesicLength=0.8282140013538032 rxn_smarts="[C:1]([C@@:2]([C:3](=[O:4])[H:11])([C:5]#[N:6])[H:10])([H:7])([H:8])[H:9]>>[C-:3]#[O+:4].[C:1]([C:2](=[C:5]=[N:6][H:11])[H:10])([H:7])([H:8])[H:9]"
C       -1.15307675      -0.63958950       0.54321768
C        0.04228079       0.29079217       0.53932920
C        1.62447045      -0.47664367      -0.72916471
O        1.59476564      -1.60153967      -0.99532860
C       -0.07808002       1.51181764      -0.12138876
N        0.38108609       2.14035476      -1.02999472
H       -1.90747371      -0.31791214       1.26193687
H       -1.61327945      -0.68741023      -0.44323952
H       -0.83028838      -1.64601362       0.81300485
H        0.49411482       0.43254125       1.52318269
H        1.44548052       0.99360302      -1.36155500
11
Frame=16 idx=004494 GeodesicLength=0.8835996842394307 rxn_smarts="[C:1]([C@@:2]([C:3](=[O:4])[H:11])([C:5]#[N:6])[H:10])([H:7])([H:8])[H:9]>>[C-:3]#[O+:4].[C:1]([C:2](=[C:5]=[N:6][H:11])[H:10])([H:7])([H:8])[H:9]"
C       -1.14920887      -0.64045248       0.54160822
C        0.04534813       0.29184828       0.53423824
C        1.63149481      -0.48846234      -0.72149102
O        1.57750035      -1.61108595      -0.99819176
C       -0.08884382       1.51785271      -0.11848336
N        0.36929516       2.15035757      -1.02568309
H       -1.90326907      -0.31723751       1.25986375
H       -1.60959716      -0.69140098      -0.44454716
H       -0.82484995      -1.64577669       0.81338666
H        0.49281708       0.43801674       1.51980256
H        1.45931333       0.99634065      -1.36050303
