10
Frame=0 idx=003366 GeodesicLength=0.0 rxn_smarts="[C:1]([c:2]1[c:3]([H:10])[o:4][n:5][n:6]1)([H:7])([H:8])[H:9]>>[C:1]([N+:6]1=[C:2]=[C:3]([H:10])[O:4][N-:5]1)([H:7])([H:8])[H:9]"
C       -1.40535495      -0.44983365      -0.17464458
C        0.07214040       0.55400492       0.77778375
C        1.21507298       1.06908968       0.18081154
O        1.96079096       0.09824188      -0.32120720
N        1.30953201      -1.07937511      -0.18224753
N        0.23959996      -0.80942776       0.48858438
H       -1.34502483      -1.28236086      -0.86922324
H       -2.03746328      -0.64058499       0.67833860
H       -1.63861671       0.47934022      -0.68052459
H        1.62932346       2.06090567       0.10232886
10
Frame=1 idx=003366 GeodesicLength=0.026494449086014428 rxn_smarts="[C:1]([c:2]1[c:3]([H:10])[o:4][n:5][n:6]1)([H:7])([H:8])[H:9]>>[C:1]([N+:6]1=[C:2]=[C:3]([H:10])[O:4][N-:5]1)([H:7])([H:8])[H:9]"
C       -1.40547762      -0.44706838      -0.17224597
C        0.07146910       0.55154803       0.76556890
C        1.22045612       1.06756557       0.18610250
O        1.97795131       0.09542462      -0.29948187
N        1.31442099      -1.07803422      -0.18677539
N        0.24432441      -0.81041205       0.48219932
H       -1.35567953      -1.27702727      -0.87112037
H       -2.03646520      -0.64241741       0.68138493
H       -1.65471431       0.47785742      -0.67904107
H        1.62371473       2.06256369       0.09340904
10
Frame=2 idx=003366 GeodesicLength=0.052263002046470865 rxn_smarts="[C:1]([c:2]1[c:3]([H:10])[o:4][n:5][n:6]1)([H:7])([H:8])[H:9]>>[C:1]([N+:6]1=[C:2]=[C:3]([H:10])[O:4][N-:5]1)([H:7])([H:8])[H:9]"
C       -1.40511501      -0.44410715      -0.17007447
C        0.07096194       0.54883138       0.75421268
C        1.22541005       1.06599214       0.19178898
O        1.99298811       0.09292446      -0.28006033
N        1.31975033      -1.07686508      -0.19002054
N        0.24907860      -0.81162035       0.47647048
H       -1.36570997      -1.27144939      -0.87311290
H       -2.03545910      -0.64403495       0.68383793
H       -1.66983297       0.47661173      -0.67748954
H        1.61792802       2.06371721       0.08444770
10
Frame=3 idx=003366 GeodesicLength=0.07723940685847677 rxn_smarts="[C:1]([c:2]1[c:3]([H:10])[o:4][n:5][n:6]1)([H:7])([H:8])[H:9]>>[C:1]([N+:6]1=[C:2]=[C:3]([H:10])[O:4][N-:5]1)([H:7])([H:8])[H:9]"
C       -1.40410220      -0.44091081      -0.16807054
C        0.07065199       0.54577142       0.74396313
C        1.22886190       1.06451882       0.19596821
O        2.00573892       0.09080884      -0.26343322
N        1.32550932      -1.07607692      -0.19159691
N        0.25386821      -0.81307088       0.47166687
H       -1.37493396      -1.26562958      -0.87509173
H       -2.03439082      -0.64526355       0.68569404
H       -1.68361392       0.47554409      -0.67595825
H        1.61241057       2.06430856       0.07685838
10
Frame=4 idx=003366 GeodesicLength=0.10182150269622116 rxn_smarts="[C:1]([c:2]1[c:3]([H:10])[o:4][n:5][n:6]1)([H:7])([H:8])[H:9]>>[C:1]([N+:6]1=[C:2]=[C:3]([H:10])[O:4][N-:5]1)([H:7])([H:8])[H:9]"
C       -1.40277882      -0.43757881      -0.16621997
C        0.07051989       0.54247426       0.73438720
C        1.23174857       1.06304936       0.19981658
O        2.01735838       0.08891730      -0.24805985
N        1.33156199      -1.07547058      -0.19234751
N        0.25869752      -0.81472817       0.46728772
H       -1.38379868      -1.25959631      -0.87712989
H       -2.03333841      -0.64635258       0.68715804
H       -1.69669842       0.47471199      -0.67429638
H        1.60672798       2.06457355       0.06940406
10
Frame=5 idx=003366 GeodesicLength=0.12601751648642404 rxn_smarts="[C:1]([c:2]1[c:3]([H:10])[o:4][n:5][n:6]1)([H:7])([H:8])[H:9]>>[C:1]([N+:6]1=[C:2]=[C:3]([H:10])[O:4][N-:5]1)([H:7])([H:8])[H:9]"
C       -1.40121954      -0.43431748      -0.16446508
C        0.07038549       0.53932394       0.72494508
C        1.23334280       1.06190496       0.20147042
O        2.02738387       0.08743080      -0.23518704
N        1.33780867      -1.07512458      -0.19192108
N        0.26350606      -0.81627938       0.46356270
H       -1.39231424      -1.25403538      -0.87864927
H       -2.03233314      -0.64702737       0.68841857
H       -1.70913418       0.47346264      -0.67309380
H        1.60257421       2.06466184       0.06491950
10
Frame=6 idx=003366 GeodesicLength=0.14992734502589267 rxn_smarts="[C:1]([c:2]1[c:3]([H:10])[o:4][n:5][n:6]1)([H:7])([H:8])[H:9]>>[C:1]([N+:6]1=[C:2]=[C:3]([H:10])[O:4][N-:5]1)([H:7])([H:8])[H:9]"
C       -1.39931884      -0.43091267      -0.16282881
C        0.07042541       0.53587806       0.71629264
C        1.23407075       1.06075725       0.20208180
O        2.03636033       0.08615919      -0.22369576
N        1.34428790      -1.07510332      -0.19055639
N        0.26834139      -0.81806824       0.46035134
H       -1.40043111      -1.24826090      -0.88020313
H       -2.03134111      -0.64751072       0.68929935
H       -1.72075505       0.47243996      -0.67180263
H        1.59836032       2.06462140       0.06106159
10
Frame=7 idx=003366 GeodesicLength=0.17371344779259631 rxn_smarts="[C:1]([c:2]1[c:3]([H:10])[o:4][n:5][n:6]1)([H:7])([H:8])[H:9]>>[C:1]([N+:6]1=[C:2]=[C:3]([H:10])[O:4][N-:5]1)([H:7])([H:8])[H:9]"
C       -1.39734927      -0.42753994      -0.16129745
C        0.07048995       0.53246868       0.70766875
C        1.23444995       1.05969667       0.20208715
O        2.04473404       0.08507585      -0.21310790
N        1.35083298      -1.07516604      -0.18878329
N        0.27315827      -0.81982064       0.45732642
H       -1.40849139      -1.24269730      -0.88151099
H       -2.03035663      -0.64779186       0.69006959
H       -1.73210729       0.47122975      -0.67064300
H        1.59463937       2.06454483       0.05819072
10
Frame=8 idx=003366 GeodesicLength=0.19746162911776197 rxn_smarts="[C:1]([c:2]1[c:3]([H:10])[o:4][n:5][n:6]1)([H:7])([H:8])[H:9]>>[C:1]([N+:6]1=[C:2]=[C:3]([H:10])[O:4][N-:5]1)([H:7])([H:8])[H:9]"
C       -1.39544279      -0.42424284      -0.15987166
C        0.07053526       0.52918197       0.69878092
C        1.23483838       1.05871602       0.20199008
O        2.05282943       0.08412005      -0.20297796
N        1.35738604      -1.07518583      -0.18693018
N        0.27794905      -0.82145283       0.45427708
H       -1.41666986      -1.23744492      -0.88251795
H       -2.02937496      -0.64788833       0.69084683
H       -1.74344930       0.46971983      -0.66964418
H        1.59139876       2.06447687       0.05604701
10
Frame=9 idx=003366 GeodesicLength=0.22111968187719935 rxn_smarts="[C:1]([c:2]1[c:3]([H:10])[o:4][n:5][n:6]1)([H:7])([H:8])[H:9]>>[C:1]([N+:6]1=[C:2]=[C:3]([H:10])[O:4][N-:5]1)([H:7])([H:8])[H:9]"
C       -1.39349436      -0.42092440      -0.15856660
C        0.07062977       0.52580969       0.68997051
C        1.23528915       1.05769928       0.20217165
O        2.06074842       0.08326041      -0.19282741
N        1.36395526      -1.07518606      -0.18503285
N        0.28272384      -0.82312559       0.45115851
H       -1.42489508      -1.23216012      -0.88349320
H       -2.02833997      -0.64794108       0.69151277
H       -1.75464475       0.46822145      -0.66849461
H        1.58802773       2.06434641       0.05360122
10
Frame=10 idx=003366 GeodesicLength=0.24467497848033548 rxn_smarts="[C:1]([c:2]1[c:3]([H:10])[o:4][n:5][n:6]1)([H:7])([H:8])[H:9]>>[C:1]([N+:6]1=[C:2]=[C:3]([H:10])[O:4][N-:5]1)([H:7])([H:8])[H:9]"
C       -1.39138482      -0.41752219      -0.15735355
C        0.07083677       0.52227451       0.68156928
C        1.23531919       1.05666551       0.20185835
O        2.06806520       0.08252305      -0.18359944
N        1.37064018      -1.07537429      -0.18261016
N        0.28749781      -0.82491858       0.44831404
H       -1.43291867      -1.22681136      -0.88439404
H       -2.02730827      -0.64781550       0.69196606
H       -1.76531090       0.46679520      -0.66736325
H        1.58456350       2.06418364       0.05161271
10
Frame=11 idx=003366 GeodesicLength=0.26815053652344567 rxn_smarts="[C:1]([c:2]1[c:3]([H:10])[o:4][n:5][n:6]1)([H:7])([H:8])[H:9]>>[C:1]([N+:6]1=[C:2]=[C:3]([H:10])[O:4][N-:5]1)([H:7])([H:8])[H:9]"
C       -1.38916850      -0.41407459      -0.15623715
C        0.07111585       0.51862636       0.67343800
C        1.23501996       1.05562262       0.20105636
O        2.07497097       0.08192034      -0.17499743
N        1.37739050      -1.07569344      -0.17980311
N        0.29226735      -0.82677073       0.44564421
H       -1.44084308      -1.22145814      -0.88521262
H       -2.02628700      -0.64755769       0.69226177
H       -1.77561767       0.46537268      -0.66621281
H        1.58115160       2.06401258       0.05006277
10
Frame=12 idx=003366 GeodesicLength=0.2915672654750784 rxn_smarts="[C:1]([c:2]1[c:3]([H:10])[o:4][n:5][n:6]1)([H:7])([H:8])[H:9]>>[C:1]([N+:6]1=[C:2]=[C:3]([H:10])[O:4][N-:5]1)([H:7])([H:8])[H:9]"
C       -1.38684839      -0.41056418      -0.15521422
C        0.07148438       0.51481819       0.66563002
C        1.23449770       1.05453631       0.20004807
O        2.08158443       0.08140262      -0.16674777
N        1.38421276      -1.07611738      -0.17669923
N        0.29703689      -0.82873482       0.44308815
H       -1.44866974      -1.21597733      -0.88604445
H       -2.02525133      -0.64723495       0.69239193
H       -1.78558611       0.46406215      -0.66494572
H        1.57753941       2.06380939       0.04849322
10
Frame=13 idx=003366 GeodesicLength=0.31493988164122005 rxn_smarts="[C:1]([c:2]1[c:3]([H:10])[o:4][n:5][n:6]1)([H:7])([H:8])[H:9]>>[C:1]([N+:6]1=[C:2]=[C:3]([H:10])[O:4][N-:5]1)([H:7])([H:8])[H:9]"
C       -1.38450106      -0.40704645      -0.15428453
C        0.07189365       0.51096811       0.65788825
C        1.23385758       1.05344783       0.19884796
O        2.08797748       0.08097120      -0.15879999
N        1.39106303      -1.07658067      -0.17341603
N        0.30179229      -0.83071252       0.44056669
H       -1.45649783      -1.21054137      -0.88677050
H       -2.02419945      -0.64681249       0.69244296
H       -1.79536921       0.46270540      -0.66366094
H        1.57398352       2.06360096       0.04718614
10
Frame=14 idx=003366 GeodesicLength=0.3382783141116685 rxn_smarts="[C:1]([c:2]1[c:3]([H:10])[o:4][n:5][n:6]1)([H:7])([H:8])[H:9]>>[C:1]([N+:6]1=[C:2]=[C:3]([H:10])[O:4][N-:5]1)([H:7])([H:8])[H:9]"
C       -1.38214267      -0.40352232      -0.15344603
C        0.07234431       0.50707393       0.65018829
C        1.23313415       1.05235039       0.19750544
O        2.09421509       0.08061157      -0.15102120
N        1.39794286      -1.07706656      -0.16999766
N        0.30653399      -0.83270416       0.43803915
H       -1.46434762      -1.20512905      -0.88740968
H       -2.02312328      -0.64631412       0.69242766
H       -1.80500699       0.46131522      -0.66232755
H        1.57045018       2.06338509       0.04604158
10
Frame=15 idx=003366 GeodesicLength=0.361593304744805 rxn_smarts="[C:1]([c:2]1[c:3]([H:10])[o:4][n:5][n:6]1)([H:7])([H:8])[H:9]>>[C:1]([N+:6]1=[C:2]=[C:3]([H:10])[O:4][N-:5]1)([H:7])([H:8])[H:9]"
C       -1.37976925      -0.39997506      -0.15269800
C        0.07284679       0.50310163       0.64257270
C        1.23235546       1.05122476       0.19611920
O        2.10035311       0.08030579      -0.14326078
N        1.40486311      -1.07756627      -0.16647275
N        0.31126576      -0.83473561       0.43547212
H       -1.47221641      -1.19966705      -0.88802144
H       -2.02201190      -0.64578111       0.69233655
H       -1.81450494       0.45994992      -0.66087618
H        1.56681827       2.06314299       0.04482859
10
Frame=16 idx=003366 GeodesicLength=0.3848902542685235 rxn_smarts="[C:1]([c:2]1[c:3]([H:10])[o:4][n:5][n:6]1)([H:7])([H:8])[H:9]>>[C:1]([N+:6]1=[C:2]=[C:3]([H:10])[O:4][N-:5]1)([H:7])([H:8])[H:9]"
C       -1.37742257      -0.39644190      -0.15204205
C        0.07337491       0.49912444       0.63488188
C        1.23154260       1.05010162       0.19459735
O        2.10641367       0.08005556      -0.13552251
N        1.41180616      -1.07805536      -0.16287413
N        0.31598003      -0.83675194       0.43283498
H       -1.48015589      -1.19426252      -0.88853011
H       -2.02086308      -0.64518669       0.69222056
H       -1.82395364       0.45851595      -0.65936698
H        1.56327780       2.06290085       0.04380102
