14
Frame=0 idx=009253 GeodesicLength=0.0 rxn_smarts="[C:1]([C@@:2]([C:3](=[O:4])[H:12])([C:5](=[O:6])[N:7]([H:13])[H:14])[H:11])([H:8])([H:9])[H:10]>>[C:1]([C@@:2]([C-:3]=[O+:4][H:12])([C:5](=[O:6])[N:7]([H:13])[H:14])[H:11])([H:8])([H:9])[H:10]"
C       -1.12807545      -0.91990114       0.88669960
C       -0.28984731      -0.28641190      -0.21084021
C       -0.67463924       1.11884246      -0.54872314
O       -1.78962388       1.57924835      -0.08496421
C        1.22198148      -0.42523783       0.03182697
O        1.66499452      -1.27052514       0.77468388
N        1.99950944       0.42201942      -0.68149041
H       -0.98608110      -0.39979705       1.83403793
H       -2.18691472      -0.88017321       0.63271966
H       -0.82896734      -1.95643428       1.02508524
H       -0.45345234      -0.81565898      -1.16338781
H       -1.12924072       2.25817336      -0.77775591
H        1.58681665       1.19493766      -1.17392715
H        2.99353997       0.38091828      -0.54396446
14
Frame=1 idx=009253 GeodesicLength=0.04872997258674785 rxn_smarts="[C:1]([C@@:2]([C:3](=[O:4])[H:12])([C:5](=[O:6])[N:7]([H:13])[H:14])[H:11])([H:8])([H:9])[H:10]>>[C:1]([C@@:2]([C-:3]=[O+:4][H:12])([C:5](=[O:6])[N:7]([H:13])[H:14])[H:11])([H:8])([H:9])[H:10]"
C       -1.13550604      -0.93228790       0.87444325
C       -0.28721391      -0.27999137      -0.20448569
C       -0.68135341       1.12382881      -0.53798532
O       -1.79861041       1.57318592      -0.07698005
C        1.22263645      -0.40027211       0.05436275
O        1.67023419      -1.19420229       0.84957056
N        2.00333127       0.40594213      -0.70228552
H       -1.01845407      -0.41856225       1.82862614
H       -2.19056673      -0.90185886       0.60374092
H       -0.82598966      -1.96639507       1.00898969
H       -0.43933488      -0.80348758      -1.16225291
H       -1.11064234       2.28935761      -0.71613288
H        1.59253046       1.15004973      -1.23866476
H        2.99893908       0.35469323      -0.58094617
14
Frame=2 idx=009253 GeodesicLength=0.09721042732629862 rxn_smarts="[C:1]([C@@:2]([C:3](=[O:4])[H:12])([C:5](=[O:6])[N:7]([H:13])[H:14])[H:11])([H:8])([H:9])[H:10]>>[C:1]([C@@:2]([C-:3]=[O+:4][H:12])([C:5](=[O:6])[N:7]([H:13])[H:14])[H:11])([H:8])([H:9])[H:10]"
C       -1.14127895      -0.94371210       0.86206542
C       -0.28521519      -0.27367775      -0.19992690
C       -0.68907917       1.12824347      -0.53005609
O       -1.80854606       1.56651613      -0.07202942
C        1.22244125      -0.37523537       0.07397206
O        1.67258873      -1.11341896       0.91997671
N        2.00669716       0.38931803      -0.72152731
H       -1.04825230      -0.43531896       1.82171770
H       -2.19247911      -0.92320655       0.57585782
H       -0.82022784      -1.97469812       0.99420799
H       -0.42670549      -0.79219445      -1.16215888
H       -1.09125087       2.31824636      -0.64918030
H        1.59817295       1.10387251      -1.29818333
H        3.00313489       0.32526575      -0.61473546
14
Frame=3 idx=009253 GeodesicLength=0.14574912150798405 rxn_smarts="[C:1]([C@@:2]([C:3](=[O:4])[H:12])([C:5](=[O:6])[N:7]([H:13])[H:14])[H:11])([H:8])([H:9])[H:10]>>[C:1]([C@@:2]([C-:3]=[O+:4][H:12])([C:5](=[O:6])[N:7]([H:13])[H:14])[H:11])([H:8])([H:9])[H:10]"
C       -1.14555604      -0.95442369       0.84960217
C       -0.28367542      -0.26698684      -0.19666365
C       -0.69678214       1.13330010      -0.52276097
O       -1.81747370       1.56086801      -0.06592792
C        1.22166602      -0.35121127       0.09057759
O        1.67259174      -1.02921038       0.98526899
N        2.01013786       0.37197537      -0.73898396
H       -1.07507949      -0.45156578       1.81406921
H       -2.19296487      -0.94329414       0.54936537
H       -0.81251792      -1.98196677       0.97944211
H       -0.41599543      -0.78013198      -1.16319588
H       -1.07506914       2.34294089      -0.58386367
H        1.60406801       1.05597599      -1.35309646
H        3.00665051       0.29373048      -0.64383292
14
Frame=4 idx=009253 GeodesicLength=0.19440104942473443 rxn_smarts="[C:1]([C@@:2]([C:3](=[O:4])[H:12])([C:5](=[O:6])[N:7]([H:13])[H:14])[H:11])([H:8])([H:9])[H:10]>>[C:1]([C@@:2]([C-:3]=[O+:4][H:12])([C:5](=[O:6])[N:7]([H:13])[H:14])[H:11])([H:8])([H:9])[H:10]"
C       -1.14849571      -0.96441569       0.83729410
C       -0.28264039      -0.26008845      -0.19464089
C       -0.70473868       1.13870727      -0.51635465
O       -1.82583952       1.55604164      -0.05929688
C        1.22036559      -0.32803183       0.10462578
O        1.67018854      -0.94293964       1.04449477
N        2.01365898       0.35363518      -0.75522066
H       -1.09886677      -0.46716440       1.80595380
H       -2.19232606      -0.96219556       0.52461563
H       -0.80327265      -1.98829947       0.96501310
H       -0.40710821      -0.76773775      -1.16522215
H       -1.06108364       2.36409252      -0.51976730
H        1.61051704       1.00692867      -1.40368851
H        3.00964146       0.26146751      -0.66780615
14
Frame=5 idx=009253 GeodesicLength=0.24296320499433782 rxn_smarts="[C:1]([C@@:2]([C:3](=[O:4])[H:12])([C:5](=[O:6])[N:7]([H:13])[H:14])[H:11])([H:8])([H:9])[H:10]>>[C:1]([C@@:2]([C-:3]=[O+:4][H:12])([C:5](=[O:6])[N:7]([H:13])[H:14])[H:11])([H:8])([H:9])[H:10]"
C       -1.15024308      -0.97364953       0.82535943
C       -0.28206696      -0.25298283      -0.19358375
C       -0.71281462       1.14449153      -0.51041768
O       -1.83337677       1.55213860      -0.05145371
C        1.21858331      -0.30576580       0.11654088
O        1.66587590      -0.85688861       1.09652890
N        2.01721913       0.33407062      -0.77035151
H       -1.11938457      -0.48229965       1.79780782
H       -2.19080538      -0.97955546       0.50195989
H       -0.79312678      -1.99384456       0.95071810
H       -0.40001444      -0.75493363      -1.16803452
H       -1.04961927       2.38198833      -0.45903766
H        1.61747526       0.95688348      -1.45013638
H        3.01229828       0.23034753      -0.68589981
14
Frame=6 idx=009253 GeodesicLength=0.2915983677571787 rxn_smarts="[C:1]([C@@:2]([C:3](=[O:4])[H:12])([C:5](=[O:6])[N:7]([H:13])[H:14])[H:11])([H:8])([H:9])[H:10]>>[C:1]([C@@:2]([C-:3]=[O+:4][H:12])([C:5](=[O:6])[N:7]([H:13])[H:14])[H:11])([H:8])([H:9])[H:10]"
C       -1.15091950      -0.98208139       0.81370101
C       -0.28189402      -0.24566561      -0.19351932
C       -0.72122082       1.15050127      -0.50526474
O       -1.84112773       1.54838136      -0.04424727
C        1.21635703      -0.28395018       0.12667520
O        1.65952778      -0.77042241       1.14230932
N        2.02080309       0.31367229      -0.78426639
H       -1.13722713      -0.49655511       1.78946921
H       -2.18846727      -0.99584768       0.48099206
H       -0.78203567      -1.99845909       0.93681747
H       -0.39424655      -0.74197709      -1.17159136
H       -1.03929830       2.39717088      -0.39812338
H        1.62503615       0.90555258      -1.49335032
H        3.01471292       0.19968016      -0.69960149
14
Frame=7 idx=009253 GeodesicLength=0.34008402877738775 rxn_smarts="[C:1]([C@@:2]([C:3](=[O:4])[H:12])([C:5](=[O:6])[N:7]([H:13])[H:14])[H:11])([H:8])([H:9])[H:10]>>[C:1]([C@@:2]([C-:3]=[O+:4][H:12])([C:5](=[O:6])[N:7]([H:13])[H:14])[H:11])([H:8])([H:9])[H:10]"
C       -1.15074823      -0.98994053       0.80244022
C       -0.28212748      -0.23817774      -0.19406898
C       -0.72975291       1.15682793      -0.50014089
O       -1.84780412       1.54565032      -0.03493703
C        1.21371750      -0.26292577       0.13529388
O        1.65197709      -0.68574575       1.18129448
N        2.02430204       0.29186390      -0.79719268
H       -1.15208406      -0.51077198       1.78144824
H       -2.18566553      -1.01059079       0.46200493
H       -0.77072039      -2.00266230       0.92257263
H       -0.39000826      -0.72858938      -1.17567633
H       -1.03109836       2.41011443      -0.34198103
H        1.63292037       0.85293485      -1.53320976
H        3.01709235       0.17201281      -0.70784769
14
Frame=8 idx=009253 GeodesicLength=0.38862249748671596 rxn_smarts="[C:1]([C@@:2]([C:3](=[O:4])[H:12])([C:5](=[O:6])[N:7]([H:13])[H:14])[H:11])([H:8])([H:9])[H:10]>>[C:1]([C@@:2]([C-:3]=[O+:4][H:12])([C:5](=[O:6])[N:7]([H:13])[H:14])[H:11])([H:8])([H:9])[H:10]"
C       -1.14980570      -0.99723833       0.79144509
C       -0.28269812      -0.23043163      -0.19525061
C       -0.73862629       1.16343758      -0.49526674
O       -1.85432697       1.54332242      -0.02494388
C        1.21073784      -0.24218412       0.14271036
O        1.64314239      -0.60194027       1.21463431
N        2.02780600       0.26926316      -0.80881764
H       -1.16451728      -0.52471375       1.77358270
H       -2.18243193      -1.02426039       0.44456265
H       -0.75900661      -2.00636202       0.90813629
H       -0.38684227      -0.71483077      -1.18029384
H       -1.02420102       2.42124731      -0.28781445
H        1.64128171       0.79886482      -1.57025474
H        3.01948826       0.14582600      -0.71242949
14
Frame=9 idx=009253 GeodesicLength=0.4371467302423417 rxn_smarts="[C:1]([C@@:2]([C:3](=[O:4])[H:12])([C:5](=[O:6])[N:7]([H:13])[H:14])[H:11])([H:8])([H:9])[H:10]>>[C:1]([C@@:2]([C-:3]=[O+:4][H:12])([C:5](=[O:6])[N:7]([H:13])[H:14])[H:11])([H:8])([H:9])[H:10]"
C       -1.14818075      -1.00399739       0.78069846
C       -0.28357356      -0.22243947      -0.19698113
C       -0.74780419       1.17031550      -0.49052026
O       -1.86071523       1.54133368      -0.01429640
C        1.20745454      -0.22175008       0.14901436
O        1.63324571      -0.51948956       1.24260945
N        2.03128303       0.24610702      -0.81903523
H       -1.17461492      -0.53841798       1.76591952
H       -2.17887093      -1.03685252       0.42861627
H       -0.74708753      -2.00963685       0.89338629
H       -0.38465423      -0.70069770      -1.18537685
H       -1.01841750       2.43087650      -0.23564715
H        1.65002465       0.74302846      -1.60473998
H        3.02191090       0.12162039      -0.71364735
14
Frame=10 idx=009253 GeodesicLength=0.4855671335797661 rxn_smarts="[C:1]([C@@:2]([C:3](=[O:4])[H:12])([C:5](=[O:6])[N:7]([H:13])[H:14])[H:11])([H:8])([H:9])[H:10]>>[C:1]([C@@:2]([C-:3]=[O+:4][H:12])([C:5](=[O:6])[N:7]([H:13])[H:14])[H:11])([H:8])([H:9])[H:10]"
C       -1.14593354      -1.01030567       0.77017420
C       -0.28471999      -0.21413224      -0.19909064
C       -0.75743440       1.17743772      -0.48581235
O       -1.86690457       1.53973960      -0.00250260
C        1.20386636      -0.20122800       0.15453073
O        1.62272209      -0.43893889       1.26558066
N        2.03468291       0.22224066      -0.82790388
H       -1.18251031      -0.55207202       1.75852813
H       -2.17502531      -1.04847741       0.41400103
H       -0.73500358      -2.01259644       0.87810247
H       -0.38323193      -0.68612835      -1.19077825
H       -1.01389249       2.43946323      -0.18643630
H        1.65907533       0.68590319      -1.63630177
H        3.02430944       0.09909461      -0.71209144
14
Frame=11 idx=009253 GeodesicLength=0.5340914912195204 rxn_smarts="[C:1]([C@@:2]([C:3](=[O:4])[H:12])([C:5](=[O:6])[N:7]([H:13])[H:14])[H:11])([H:8])([H:9])[H:10]>>[C:1]([C@@:2]([C-:3]=[O+:4][H:12])([C:5](=[O:6])[N:7]([H:13])[H:14])[H:11])([H:8])([H:9])[H:10]"
C       -1.14304733      -1.01619672       0.75971322
C       -0.28609916      -0.20539029      -0.20161175
C       -0.76759250       1.18489431      -0.48112039
O       -1.87324844       1.53830586       0.01001550
C        1.20000680      -0.18038314       0.15931627
O        1.61147942      -0.35937270       1.28426957
N        2.03805987       0.19814934      -0.83522890
H       -1.18844932      -0.56567829       1.75126366
H       -2.17084179      -1.05938587       0.40041006
H       -0.72254474      -2.01519030       0.86219968
H       -0.38238477      -0.67097258      -1.19656297
H       -1.01041907       2.44714378      -0.13880624
H        1.66846297       0.62685555      -1.66536403
H        3.02661806       0.07722106      -0.70849367
14
Frame=12 idx=009253 GeodesicLength=0.5827462186137318 rxn_smarts="[C:1]([C@@:2]([C:3](=[O:4])[H:12])([C:5](=[O:6])[N:7]([H:13])[H:14])[H:11])([H:8])([H:9])[H:10]>>[C:1]([C@@:2]([C-:3]=[O+:4][H:12])([C:5](=[O:6])[N:7]([H:13])[H:14])[H:11])([H:8])([H:9])[H:10]"
C       -1.13949930      -1.02167919       0.74925406
C       -0.28769117      -0.19611172      -0.20450991
C       -0.77838530       1.19273011      -0.47641048
O       -1.87991244       1.53694442       0.02320519
C        1.19587980      -0.15891010       0.16344946
O        1.59969356      -0.28078675       1.29898292
N        2.04140292       0.17384904      -0.84104622
H       -1.19250356      -0.57925620       1.74409081
H       -2.16627885      -1.06970200       0.38770177
H       -0.70960102      -2.01739177       0.84556781
H       -0.38199408      -0.65512382      -1.20270950
H       -1.00806432       2.45410147      -0.09256265
H        1.67817468       0.56587858      -1.69182949
H        3.02877909       0.05545793      -0.70318377
14
Frame=13 idx=009253 GeodesicLength=0.6315454017359537 rxn_smarts="[C:1]([C@@:2]([C:3](=[O:4])[H:12])([C:5](=[O:6])[N:7]([H:13])[H:14])[H:11])([H:8])([H:9])[H:10]>>[C:1]([C@@:2]([C-:3]=[O+:4][H:12])([C:5](=[O:6])[N:7]([H:13])[H:14])[H:11])([H:8])([H:9])[H:10]"
C       -1.13526676      -1.02679265       0.73871951
C       -0.28948219      -0.18622084      -0.20774958
C       -0.78990235       1.20097003      -0.47161866
O       -1.88692542       1.53563181       0.03723051
C        1.19149156      -0.13663252       0.16695071
O        1.58754223      -0.20308802       1.30999736
N        2.04467127       0.14939135      -0.84536276
H       -1.19471349      -0.59289474       1.73696500
H       -2.16129160      -1.07953035       0.37572288
H       -0.69607859      -2.01920755       0.82804116
H       -0.38198686      -0.63847053      -1.20920350
H       -1.00685073       2.46056301      -0.04776122
H        1.68807581       0.50283886      -1.71559224
H        3.03071711       0.03344214      -0.69633916
14
Frame=14 idx=009253 GeodesicLength=0.6806916985270297 rxn_smarts="[C:1]([C@@:2]([C:3](=[O:4])[H:12])([C:5](=[O:6])[N:7]([H:13])[H:14])[H:11])([H:8])([H:9])[H:10]>>[C:1]([C@@:2]([C-:3]=[O+:4][H:12])([C:5](=[O:6])[N:7]([H:13])[H:14])[H:11])([H:8])([H:9])[H:10]"
C       -1.13023452      -1.03150020       0.72797838
C       -0.29146777      -0.17555410      -0.21142298
C       -0.80224974       1.20974681      -0.46671693
O       -1.89461401       1.53419309       0.05177421
C        1.18683771      -0.11325346       0.16972613
O        1.57490557      -0.12561860       1.31756321
N        2.04788777       0.12505927      -0.84814496
H       -1.19506999      -0.60654986       1.72975405
H       -2.15575532      -1.08901416       0.36434200
H       -0.68169269      -2.02050709       0.80952568
H       -0.38229807      -0.62079913      -1.21615622
H       -1.00685709       2.46645553      -0.00332836
H        1.69827270       0.43715622      -1.73677527
H        3.03233547       0.01018570      -0.68811894
14
Frame=15 idx=009253 GeodesicLength=0.7300794457408956 rxn_smarts="[C:1]([C@@:2]([C:3](=[O:4])[H:12])([C:5](=[O:6])[N:7]([H:13])[H:14])[H:11])([H:8])([H:9])[H:10]>>[C:1]([C@@:2]([C-:3]=[O+:4][H:12])([C:5](=[O:6])[N:7]([H:13])[H:14])[H:11])([H:8])([H:9])[H:10]"
C       -1.12446582      -1.03583604       0.71701078
C       -0.29366991      -0.16416989      -0.21550493
C       -0.81541345       1.21899014      -0.46164916
O       -1.90274516       1.53272644       0.06718621
C        1.18193814      -0.08894122       0.17165892
O        1.56203971      -0.04885098       1.32171632
N        2.05096035       0.10063371      -0.84953416
H       -1.19352001      -0.62030807       1.72247566
H       -2.14975408      -1.09808148       0.35355808
H       -0.66660625      -2.02136002       0.78986063
H       -0.38301597      -0.60213158      -1.22355642
H       -1.00788350       2.47201207       0.04020738
H        1.70849507       0.36852342      -1.75516169
H        3.03364088      -0.01320649      -0.67826763
14
Frame=16 idx=009253 GeodesicLength=0.7796413993491558 rxn_smarts="[C:1]([C@@:2]([C:3](=[O:4])[H:12])([C:5](=[O:6])[N:7]([H:13])[H:14])[H:11])([H:8])([H:9])[H:10]>>[C:1]([C@@:2]([C-:3]=[O+:4][H:12])([C:5](=[O:6])[N:7]([H:13])[H:14])[H:11])([H:8])([H:9])[H:10]"
C       -1.11799257      -1.03979772       0.70578064
C       -0.29610306      -0.15210569      -0.22001179
C       -0.82936699       1.22865722      -0.45638465
O       -1.91122720       1.53123486       0.08351338
C        1.17681000      -0.06380816       0.17261679
O        1.54906793       0.02692758       1.32253948
N        2.05381396       0.07600281      -0.84961321
H       -1.19002647      -0.63416312       1.71509499
H       -2.14333365      -1.10668952       0.34337356
H       -0.65091167      -2.02177096       0.76896645
H       -0.38418800      -0.58248168      -1.23142102
H       -1.00975278       2.47733670       0.08281051
H        1.71858757       0.29666319      -1.77050686
H        3.03462293      -0.03600550      -0.66675827
