9
Frame=0 idx=003194 GeodesicLength=0.0 rxn_smarts="[C:1]([C:2]([O:3][H:9])([H:7])[H:8])([H:4])([H:5])[H:6]>>[C:1]([O:3][H:9])([H:4])([H:5])[H:6].[C:2]([H:7])[H:8]"
C       -0.98834744      -0.33638588       0.10371687
C        0.66420747       0.88459372       0.05750530
O        0.71784770      -0.65919417       0.25151672
H       -1.33240390       0.03322505       1.05660704
H       -1.39307382       0.23223948      -0.72279231
H       -1.19466564      -1.41016973      -0.01592883
H        1.41394566       1.28671122       0.74461038
H        0.99087032       1.07268876      -0.96988122
H        1.12161964      -1.10370849      -0.50535396
9
Frame=1 idx=003194 GeodesicLength=0.025983148584749136 rxn_smarts="[C:1]([C:2]([O:3][H:9])([H:7])[H:8])([H:4])([H:5])[H:6]>>[C:1]([O:3][H:9])([H:4])([H:5])[H:6].[C:2]([H:7])[H:8]"
C       -0.98462273      -0.33098920       0.10252604
C        0.66216020       0.87855822       0.05109026
O        0.72228083      -0.66106668       0.25464392
H       -1.32577232       0.02661364       1.06169416
H       -1.40492068       0.24221521      -0.71381456
H       -1.20003883      -1.40109366      -0.02928793
H        1.40239931       1.28699370       0.74470051
H        0.98947244       1.06392260      -0.97675697
H        1.13904177      -1.10515383      -0.49479544
9
Frame=2 idx=003194 GeodesicLength=0.0519517192800584 rxn_smarts="[C:1]([C:2]([O:3][H:9])([H:7])[H:8])([H:4])([H:5])[H:6]>>[C:1]([O:3][H:9])([H:4])([H:5])[H:6].[C:2]([H:7])[H:8]"
C       -0.98098260      -0.32561870       0.10121786
C        0.66016317       0.87245872       0.04467291
O        0.72663830      -0.66293596       0.25772797
H       -1.31915972       0.01979411       1.06656601
H       -1.41674289       0.25232707      -0.70445596
H       -1.20539382      -1.39185192      -0.04270350
H        1.39085079       1.28720287       0.74461159
H        0.98801040       1.05503608      -0.98367925
H        1.15661637      -1.10641227      -0.48395762
9
Frame=3 idx=003194 GeodesicLength=0.07782691215366874 rxn_smarts="[C:1]([C:2]([O:3][H:9])([H:7])[H:8])([H:4])([H:5])[H:6]>>[C:1]([O:3][H:9])([H:4])([H:5])[H:6].[C:2]([H:7])[H:8]"
C       -0.97744608      -0.32027656       0.09981031
C        0.65822138       0.86632228       0.03825888
O        0.73091723      -0.66483363       0.26075029
H       -1.31261970       0.01278981       1.07123321
H       -1.42851968       0.26255032      -0.69472998
H       -1.21074536      -1.38246827      -0.05613821
H        1.37930984       1.28734279       0.74435445
H        0.98651747       1.04607058      -0.99065906
H        1.17436490      -1.10749730      -0.47287989
9
Frame=4 idx=003194 GeodesicLength=0.10378631979403738 rxn_smarts="[C:1]([C:2]([O:3][H:9])([H:7])[H:8])([H:4])([H:5])[H:6]>>[C:1]([O:3][H:9])([H:4])([H:5])[H:6].[C:2]([H:7])[H:8]"
C       -0.97398003      -0.31495868       0.09828390
C        0.65631113       0.86008568       0.03188264
O        0.73513119      -0.66669493       0.26368098
H       -1.30607835       0.00563435       1.07561573
H       -1.44019862       0.27280558      -0.68468849
H       -1.21609295      -1.37290410      -0.06955303
H        1.36783601       1.28733490       0.74391105
H        0.98487042       1.03698855      -0.99760429
H        1.19220121      -1.10829135      -0.46152848
9
Frame=5 idx=003194 GeodesicLength=0.12976404237613368 rxn_smarts="[C:1]([C:2]([O:3][H:9])([H:7])[H:8])([H:4])([H:5])[H:6]>>[C:1]([O:3][H:9])([H:4])([H:5])[H:6].[C:2]([H:7])[H:8]"
C       -0.97058342      -0.30964661       0.09666285
C        0.65442573       0.85377495       0.02555198
O        0.73925436      -0.66858048       0.26649252
H       -1.29957042      -0.00158764       1.07972425
H       -1.45173339       0.28301926      -0.67441900
H       -1.22139888      -1.36314751      -0.08280430
H        1.35636051       1.28711041       0.74335224
H        0.98310471       1.02786626      -1.00453387
H        1.21014081      -1.10880864      -0.45002667
9
Frame=6 idx=003194 GeodesicLength=0.15561876753007378 rxn_smarts="[C:1]([C:2]([O:3][H:9])([H:7])[H:8])([H:4])([H:5])[H:6]>>[C:1]([O:3][H:9])([H:4])([H:5])[H:6].[C:2]([H:7])[H:8]"
C       -0.96728737      -0.30437615       0.09494874
C        0.65259294       0.84743223       0.01927716
O        0.74331237      -0.67049872       0.26915363
H       -1.29316309      -0.00888525       1.08357040
H       -1.46311251       0.29319180      -0.66390891
H       -1.22676443      -1.35331053      -0.09589341
H        1.34497233       1.28676811       0.74267635
H        0.98128566       1.01874674      -1.01145038
H        1.22816411      -1.10906824      -0.43837358
9
Frame=7 idx=003194 GeodesicLength=0.1814470480060076 rxn_smarts="[C:1]([C:2]([O:3][H:9])([H:7])[H:8])([H:4])([H:5])[H:6]>>[C:1]([O:3][H:9])([H:4])([H:5])[H:6].[C:2]([H:7])[H:8]"
C       -0.96408438      -0.29912547       0.09314937
C        0.65079692       0.84103300       0.01303342
O        0.74729653      -0.67244027       0.27168342
H       -1.28681540      -0.01628975       1.08717673
H       -1.47435493       0.30335116      -0.65312948
H       -1.23215995      -1.34332793      -0.10889563
H        1.33363013       1.28628226       0.74186742
H        0.97938371       1.00957104      -1.01837092
H        1.24630737      -1.10905405      -0.42651433
9
Frame=8 idx=003194 GeodesicLength=0.20725914520436653 rxn_smarts="[C:1]([C:2]([O:3][H:9])([H:7])[H:8])([H:4])([H:5])[H:6]>>[C:1]([O:3][H:9])([H:4])([H:5])[H:6].[C:2]([H:7])[H:8]"
C       -0.96097360      -0.29389198       0.09126813
C        0.64903769       0.83457452       0.00680069
O        0.75119714      -0.67440288       0.27408371
H       -1.28051081      -0.02383980       1.09056425
H       -1.48546622       0.31353000      -0.64204631
H       -1.23759390      -1.33319415      -0.12186785
H        1.32232163       1.28566720       0.74090586
H        0.97740930       1.00031543      -1.02531315
H        1.26457877      -1.10875833      -0.41439534
9
Frame=9 idx=003194 GeodesicLength=0.23299297991973053 rxn_smarts="[C:1]([C:2]([O:3][H:9])([H:7])[H:8])([H:4])([H:5])[H:6]>>[C:1]([O:3][H:9])([H:4])([H:5])[H:6].[C:2]([H:7])[H:8]"
C       -0.95797539      -0.28867417       0.08931673
C        0.64732081       0.82808003       0.00054950
O        0.75501134      -0.67641416       0.27636597
H       -1.27427597      -0.03159032       1.09377309
H       -1.49647318       0.32378649      -0.63058416
H       -1.24309022      -1.32290817      -0.13489756
H        1.31103385       1.28497628       0.73977621
H        0.97540334       0.99095755      -1.03233497
H        1.28304542      -1.10821353      -0.40196482
9
Frame=10 idx=003194 GeodesicLength=0.2588459296406873 rxn_smarts="[C:1]([C:2]([O:3][H:9])([H:7])[H:8])([H:4])([H:5])[H:6]>>[C:1]([O:3][H:9])([H:4])([H:5])[H:6].[C:2]([H:7])[H:8]"
C       -0.95505153      -0.28345827       0.08728934
C        0.64560706       0.82149107      -0.00569971
O        0.75875372      -0.67843518       0.27851308
H       -1.26804204      -0.03951848       1.09675992
H       -1.50732352       0.33409088      -0.61881497
H       -1.24860429      -1.31241925      -0.14794724
H        1.29977826       1.28411388       0.73845745
H        0.97324917       0.98148934      -1.03937101
H        1.30163319      -1.10735399      -0.38918686
9
Frame=11 idx=003194 GeodesicLength=0.28475310200369014 rxn_smarts="[C:1]([C:2]([O:3][H:9])([H:7])[H:8])([H:4])([H:5])[H:6]>>[C:1]([O:3][H:9])([H:4])([H:5])[H:6].[C:2]([H:7])[H:8]"
C       -0.95220673      -0.27824992       0.08517850
C        0.64392374       0.81482517      -0.01193088
O        0.76240709      -0.68046619       0.28047554
H       -1.26178920      -0.04754719       1.09944429
H       -1.51800674       0.34428093      -0.60675542
H       -1.25419344      -1.30170401      -0.16090453
H        1.28856191       1.28304766       0.73702686
H        0.97099520       0.97189454      -1.04638401
H        1.32030816      -1.10608099      -0.37615035
9
Frame=12 idx=003194 GeodesicLength=0.3105500634855356 rxn_smarts="[C:1]([C:2]([O:3][H:9])([H:7])[H:8])([H:4])([H:5])[H:6]>>[C:1]([O:3][H:9])([H:4])([H:5])[H:6].[C:2]([H:7])[H:8]"
C       -0.94946684      -0.27306293       0.08301647
C        0.64227458       0.80812837      -0.01813739
O        0.76599159      -0.68257428       0.28223428
H       -1.25564538      -0.05566403       1.10194243
H       -1.52848063       0.35443891      -0.59449017
H       -1.25987085      -1.29089853      -0.17373120
H        1.27740565       1.28184722       0.73549022
H        0.96869486       0.96230214      -1.05342903
H        1.33909702      -1.10451687      -0.36289559
9
Frame=13 idx=003194 GeodesicLength=0.3363532753039908 rxn_smarts="[C:1]([C:2]([O:3][H:9])([H:7])[H:8])([H:4])([H:5])[H:6]>>[C:1]([O:3][H:9])([H:4])([H:5])[H:6].[C:2]([H:7])[H:8]"
C       -0.94682337      -0.26788295       0.08079396
C        0.64064517       0.80137095      -0.02435092
O        0.76949691      -0.68473367       0.28379966
H       -1.24953910      -0.06394379       1.10422819
H       -1.53878330       0.36459451      -0.58192069
H       -1.26563680      -1.27991265      -0.18653905
H        1.26629454       1.28049065       0.73379982
H        0.96631401       0.95261681      -1.06050977
H        1.35803194      -1.10259987      -0.34930121
9
Frame=14 idx=003194 GeodesicLength=0.3620831713357433 rxn_smarts="[C:1]([C:2]([O:3][H:9])([H:7])[H:8])([H:4])([H:5])[H:6]>>[C:1]([O:3][H:9])([H:4])([H:5])[H:6].[C:2]([H:7])[H:8]"
C       -0.94430184      -0.26271231       0.07852214
C        0.63905044       0.79457164      -0.03059778
O        0.77291570      -0.68697283       0.28516636
H       -1.24350580      -0.07243641       1.10633983
H       -1.54894442       0.37478950      -0.56898438
H       -1.27153186      -1.26875297      -0.19939759
H        1.25523675       1.27902334       0.73193805
H        0.96389675       0.94282568      -1.06767488
H        1.37718429      -1.10033563      -0.33531176
9
Frame=15 idx=003194 GeodesicLength=0.38790516753120086 rxn_smarts="[C:1]([C:2]([O:3][H:9])([H:7])[H:8])([H:4])([H:5])[H:6]>>[C:1]([O:3][H:9])([H:4])([H:5])[H:6].[C:2]([H:7])[H:8]"
C       -0.94185654      -0.25754744       0.07619377
C        0.63745606       0.78768713      -0.03687438
O        0.77625353      -0.68924295       0.28633219
H       -1.23744188      -0.08115863       1.10823828
H       -1.55890923       0.38500157      -0.55569448
H       -1.27750796      -1.25734897      -0.21232951
H        1.24421763       1.27739557       0.72989272
H        0.96135595       0.93289284      -1.07489289
H        1.39643244      -1.09767912      -0.32086569
9
Frame=16 idx=003194 GeodesicLength=0.413886913088335 rxn_smarts="[C:1]([C:2]([O:3][H:9])([H:7])[H:8])([H:4])([H:5])[H:6]>>[C:1]([O:3][H:9])([H:4])([H:5])[H:6].[C:2]([H:7])[H:8]"
C       -0.93947951      -0.25237096       0.07380233
C        0.63585140       0.78069959      -0.04315621
O        0.77950654      -0.69157580       0.28723991
H       -1.23134468      -0.09001877       1.10986556
H       -1.56865384       0.39514901      -0.54214628
H       -1.28357489      -1.24568596      -0.22517934
H        1.23323959       1.27549171       0.72770305
H        0.95865985       0.92284066      -1.08211082
H        1.41579555      -1.09452948      -0.30601821
