13
Frame=0 idx=008480 GeodesicLength=0.0 rxn_smarts="[N:1]([c:2]1[c:3]([O:4][H:10])[c:5]([H:11])[c:6]([H:12])[n:7]1[H:13])([H:8])[H:9]>>[N:1](=[C:2]1\[C:3]([O:4][H:10])=[C:5]([H:11])[C:6]([H:8])([H:12])[N:7]1[H:13])\[H:9]"
N        1.52978572       0.88838244      -0.24768860
C        0.63680147       0.51951135       0.67954659
C        0.11208842      -0.82754933       0.67273952
O        0.85596180      -1.87058661       1.08120238
C       -0.97286671      -0.74857223      -0.13679161
C       -1.10357213       0.64409352      -0.51740629
N       -0.45764203       1.36898537       0.52712457
H        0.41519609       0.78633652      -1.16729819
H        2.23660535       0.17325242      -0.40243184
H        0.43947704      -2.69006668       0.80323169
H       -1.52316701      -1.56042441      -0.59164277
H       -2.02830506       1.03209340      -0.93698855
H       -0.14036299       2.28454426       0.23640307
13
Frame=1 idx=008480 GeodesicLength=0.05779228577302681 rxn_smarts="[N:1]([c:2]1[c:3]([O:4][H:10])[c:5]([H:11])[c:6]([H:12])[n:7]1[H:13])([H:8])[H:9]>>[N:1](=[C:2]1\[C:3]([O:4][H:10])=[C:5]([H:11])[C:6]([H:8])([H:12])[N:7]1[H:13])\[H:9]"
N        1.54118077       0.88663701      -0.24731364
C        0.64037970       0.51960586       0.67478432
C        0.11012273      -0.82542366       0.67195670
O        0.85893304      -1.86945488       1.07114077
C       -0.98061534      -0.74859312      -0.13273650
C       -1.10568245       0.64179206      -0.52393398
N       -0.45729394       1.36463326       0.52026241
H        0.42200249       0.78661614      -1.18776159
H        2.25561254       0.17545205      -0.38159038
H        0.43734643      -2.68853327       0.80013281
H       -1.53473559      -1.56195474      -0.57995900
H       -2.03597906       1.03117728      -0.92956023
H       -0.15127133       2.28804600       0.24457830
13
Frame=2 idx=008480 GeodesicLength=0.11556318648171579 rxn_smarts="[N:1]([c:2]1[c:3]([O:4][H:10])[c:5]([H:11])[c:6]([H:12])[n:7]1[H:13])([H:8])[H:9]>>[N:1](=[C:2]1\[C:3]([O:4][H:10])=[C:5]([H:11])[C:6]([H:8])([H:12])[N:7]1[H:13])\[H:9]"
N        1.55268757       0.88469978      -0.24704902
C        0.64402747       0.51970145       0.66986485
C        0.10822079      -0.82326899       0.67113100
O        0.86185013      -1.86832967       1.06090040
C       -0.98848203      -0.74854403      -0.12841432
C       -1.10789498       0.63941390      -0.53039794
N       -0.45680749       1.36033006       0.51322400
H        0.42876714       0.78676882      -1.20862284
H        2.27455186       0.17787397      -0.36028258
H        0.43526592      -2.68697670       0.79687570
H       -1.54635054      -1.56337961      -0.56799730
H       -2.04338365       1.03029551      -0.92228331
H       -0.16245219       2.29141549       0.25305136
13
Frame=3 idx=008480 GeodesicLength=0.1733139162493172 rxn_smarts="[N:1]([c:2]1[c:3]([O:4][H:10])[c:5]([H:11])[c:6]([H:12])[n:7]1[H:13])([H:8])[H:9]>>[N:1](=[C:2]1\[C:3]([O:4][H:10])=[C:5]([H:11])[C:6]([H:8])([H:12])[N:7]1[H:13])\[H:9]"
N        1.56431690       0.88255973      -0.24689731
C        0.64774912       0.51979716       0.66478036
C        0.10638487      -0.82108393       0.67026210
O        0.86471749      -1.86721165       1.05046546
C       -0.99646221      -0.74841907      -0.12381873
C       -1.11020760       0.63695648      -0.53679912
N       -0.45617470       1.35607934       0.50599797
H        0.43548670       0.78678629      -1.22990165
H        2.29341410       0.18053797      -0.33849473
H        0.43321907      -2.68539743       0.79347504
H       -1.55800258      -1.56469522      -0.55575660
H       -2.05052768       1.02945237      -0.91516008
H       -0.17391348       2.29463795       0.26184731
13
Frame=4 idx=008480 GeodesicLength=0.23104648008163153 rxn_smarts="[N:1]([c:2]1[c:3]([O:4][H:10])[c:5]([H:11])[c:6]([H:12])[n:7]1[H:13])([H:8])[H:9]>>[N:1](=[C:2]1\[C:3]([O:4][H:10])=[C:5]([H:11])[C:6]([H:8])([H:12])[N:7]1[H:13])\[H:9]"
N        1.57608026       0.88020536      -0.24685907
C        0.65154900       0.51989273       0.65952377
C        0.10461650      -0.81886654       0.66934983
O        0.86753745      -1.86610130       1.03982078
C       -1.00455063      -0.74821178      -0.11894439
C       -1.11261714       0.63441691      -0.54314073
N       -0.45538802       1.35188542       0.49857097
H        0.44216145       0.78665613      -1.25161940
H        2.31218838       0.18346584      -0.31621191
H        0.43119396      -2.68379457       0.78993749
H       -1.56968813      -1.56589481      -0.54322593
H       -2.05741778       1.02865121      -0.90819542
H       -0.18566529       2.29769539       0.27099400
13
Frame=5 idx=008480 GeodesicLength=0.2887599440068313 rxn_smarts="[N:1]([c:2]1[c:3]([O:4][H:10])[c:5]([H:11])[c:6]([H:12])[n:7]1[H:13])([H:8])[H:9]>>[N:1](=[C:2]1\[C:3]([O:4][H:10])=[C:5]([H:11])[C:6]([H:8])([H:12])[N:7]1[H:13])\[H:9]"
N        1.58799104       0.87762413      -0.24693135
C        0.65543014       0.51998807       0.65408856
C        0.10291579      -0.81661368       0.66839752
O        0.87030802      -1.86499588       1.02896134
C       -1.01274260      -0.74791577      -0.11378559
C       -1.11511935       0.63179306      -0.54942837
N       -0.45443961       1.34775360       0.49092642
H        0.44879186       0.78637416      -1.27379443
H        2.33085987       0.18667064      -0.29342978
H        0.42918664      -2.68216571       0.78626565
H       -1.58140432      -1.56697621      -0.53039831
H       -2.06405997       1.02789578      -0.90139460
H       -0.19771753       2.30056781       0.28052295
13
Frame=6 idx=008480 GeodesicLength=0.346457143067591 rxn_smarts="[N:1]([c:2]1[c:3]([O:4][H:10])[c:5]([H:11])[c:6]([H:12])[n:7]1[H:13])([H:8])[H:9]>>[N:1](=[C:2]1\[C:3]([O:4][H:10])=[C:5]([H:11])[C:6]([H:8])([H:12])[N:7]1[H:13])\[H:9]"
N        1.60006388       0.87480368      -0.24711564
C        0.65939922       0.52008242       0.64846472
C        0.10128625      -0.81432319       0.66740176
O        0.87303360      -1.86389710       1.01786311
C       -1.02102998      -0.74752189      -0.10833855
C       -1.11770958       0.62908132      -0.55566723
N       -0.45331930       1.34368871       0.48304727
H        0.45538123       0.78592470      -1.29645166
H        2.34941188       0.19018386      -0.27013335
H        0.42717577      -2.68051026       0.78247951
H       -1.59314734      -1.56792961      -0.51726156
H       -2.07045947       1.02718923      -0.89476141
H       -0.21008617       2.30322814       0.29047305
13
Frame=7 idx=008480 GeodesicLength=0.40413699737269126 rxn_smarts="[N:1]([c:2]1[c:3]([O:4][H:10])[c:5]([H:11])[c:6]([H:12])[n:7]1[H:13])([H:8])[H:9]>>[N:1](=[C:2]1\[C:3]([O:4][H:10])=[C:5]([H:11])[C:6]([H:8])([H:12])[N:7]1[H:13])\[H:9]"
N        1.61231441       0.87172995      -0.24740469
C        0.66345874       0.52017656       0.64264643
C        0.09972615      -0.81199027       0.66636791
O        0.87570817      -1.86280058       1.00652706
C       -1.02940559      -0.74702122      -0.10259802
C       -1.12038214       0.62627952      -0.56186456
N       -0.45201853       1.33969800       0.47491410
H        0.46193238       0.78529556      -1.31961122
H        2.36782139       0.19401795      -0.24632333
H        0.42516317      -2.67882315       0.77857158
H       -1.60491403      -1.56874891      -0.50380402
H       -2.07662001       1.02653452      -0.88830247
H       -0.22278412       2.30565207       0.30088122
13
Frame=8 idx=008480 GeodesicLength=0.46180114849287124 rxn_smarts="[N:1]([c:2]1[c:3]([O:4][H:10])[c:5]([H:11])[c:6]([H:12])[n:7]1[H:13])([H:8])[H:9]>>[N:1](=[C:2]1\[C:3]([O:4][H:10])=[C:5]([H:11])[C:6]([H:8])([H:12])[N:7]1[H:13])\[H:9]"
N        1.62476079       0.86838907      -0.24779305
C        0.66761446       0.52027138       0.63662526
C        0.09823675      -0.80960903       0.66529955
O        0.87832955      -1.86170469       0.99494174
C       -1.03786058      -0.74640313      -0.09656084
C       -1.12313019       0.62338379      -0.56802925
N       -0.45052635       1.33578878       0.46650385
H        0.46845187       0.78446921      -1.34329643
H        2.38606189       0.19819702      -0.22199932
H        0.42313844      -2.67710038       0.77454741
H       -1.61670043      -1.56942108      -0.49000812
H       -2.08254376       1.02593517      -0.88202690
H       -0.23583244       2.30780387       0.31179608
13
Frame=9 idx=008480 GeodesicLength=0.519457908289503 rxn_smarts="[N:1]([c:2]1[c:3]([O:4][H:10])[c:5]([H:11])[c:6]([H:12])[n:7]1[H:13])([H:8])[H:9]>>[N:1](=[C:2]1\[C:3]([O:4][H:10])=[C:5]([H:11])[C:6]([H:8])([H:12])[N:7]1[H:13])\[H:9]"
N        1.63742715       0.86479747      -0.24825491
C        0.67187172       0.52037326       0.63038722
C        0.09683024      -0.80717370       0.66417655
O        0.88090665      -1.86060004       0.98308370
C       -1.04636702      -0.74565825      -0.09025152
C       -1.12594596       0.62040127      -0.57417470
N       -0.44883945       1.33196189       0.45779696
H        0.47494947       0.78346214      -1.36753271
H        2.40410249       0.20269884      -0.19721699
H        0.42106222      -2.67533440       0.77049793
H       -1.62850181      -1.56994548      -0.47587649
H       -2.08823058       1.02538599      -0.87594687
H       -0.24926512       2.30963103       0.32331183
13
Frame=10 idx=008480 GeodesicLength=0.5770992041225568 rxn_smarts="[N:1]([c:2]1[c:3]([O:4][H:10])[c:5]([H:11])[c:6]([H:12])[n:7]1[H:13])([H:8])[H:9]>>[N:1](=[C:2]1\[C:3]([O:4][H:10])=[C:5]([H:11])[C:6]([H:8])([H:12])[N:7]1[H:13])\[H:9]"
N        1.65032721       0.86091751      -0.24879815
C        0.67623643       0.52048155       0.62392733
C        0.09549601      -0.80467472       0.66302395
O        0.88341848      -1.85948417       0.97097153
C       -1.05493335      -0.74477061      -0.08364039
C       -1.12882058       0.61732166      -0.58031081
N       -0.44693715       1.32823545       0.44875834
H        0.48143503       0.78223021      -1.39234496
H        2.42191998       0.20756779      -0.17194382
H        0.41896523      -2.67351784       0.76634250
H       -1.64032183      -1.57029973      -0.46137016
H       -2.09367875       1.02489760      -0.87007560
H       -0.26310672       2.31109529       0.33546025
13
Frame=11 idx=008480 GeodesicLength=0.6347212632984915 rxn_smarts="[N:1]([c:2]1[c:3]([O:4][H:10])[c:5]([H:11])[c:6]([H:12])[n:7]1[H:13])([H:8])[H:9]>>[N:1](=[C:2]1\[C:3]([O:4][H:10])=[C:5]([H:11])[C:6]([H:8])([H:12])[N:7]1[H:13])\[H:9]"
N        1.66347983       0.85674256      -0.24940905
C        0.68071315       0.52060006       0.61723603
C        0.09423573      -0.80210322       0.66184468
O        0.88585756      -1.85834747       0.95861115
C       -1.06354786      -0.74372726      -0.07672652
C       -1.13174524       0.61414425      -0.58645066
N       -0.44480917       1.32461873       0.43935988
H        0.48792038       0.78076677      -1.41775716
H        2.43948411       0.21280073      -0.14620652
H        0.41684496      -2.67164070       0.76208845
H       -1.65215856      -1.57047344      -0.44647313
H       -2.09888422       1.02447228      -0.86442889
H       -0.27739067       2.31214673       0.34831174
13
Frame=12 idx=008480 GeodesicLength=0.6923213884722621 rxn_smarts="[N:1]([c:2]1[c:3]([O:4][H:10])[c:5]([H:11])[c:6]([H:12])[n:7]1[H:13])([H:8])[H:9]>>[N:1](=[C:2]1\[C:3]([O:4][H:10])=[C:5]([H:11])[C:6]([H:8])([H:12])[N:7]1[H:13])\[H:9]"
N        1.67690569       0.85226249      -0.25007376
C        0.68530848       0.52073490       0.61030382
C        0.09304899      -0.79944602       0.66064741
O        0.88821265      -1.85718055       0.94601305
C       -1.07219992      -0.74250993      -0.06950486
C       -1.13470927       0.61086492      -0.59260785
N       -0.44244118       1.32112521       0.42956766
H        0.49442176       0.77904081      -1.44379634
H        2.45676126       0.21840324      -0.12002351
H        0.41470673      -2.66969121       0.75771371
H       -1.66401235      -1.57044046      -0.43115184
H       -2.10384064       1.02411323      -0.85902831
H       -0.29216220       2.31272336       0.36194082
13
Frame=13 idx=008480 GeodesicLength=0.7498958383757319 rxn_smarts="[N:1]([c:2]1[c:3]([O:4][H:10])[c:5]([H:11])[c:6]([H:12])[n:7]1[H:13])([H:8])[H:9]>>[N:1](=[C:2]1\[C:3]([O:4][H:10])=[C:5]([H:11])[C:6]([H:8])([H:12])[N:7]1[H:13])\[H:9]"
N        1.69062773       0.84747556      -0.25077019
C        0.69002695       0.52089568       0.60312094
C        0.09193556      -0.79668555       0.65944199
O        0.89046809      -1.85596383       0.93321223
C       -1.08087630      -0.74109945      -0.06197310
C       -1.13769964       0.60748504      -0.59880265
N       -0.43982077       1.31777132       0.41934151
H        0.50095524       0.77704141      -1.47048901
H        2.47371575       0.22434974      -0.09344697
H        0.41256237      -2.66765034       0.75320254
H       -1.67588608      -1.57019049      -0.41538161
H       -2.10853801       1.02382403      -0.85390365
H       -0.30747089       2.31274688       0.37644795
13
Frame=14 idx=008480 GeodesicLength=0.8074433270146133 rxn_smarts="[N:1]([c:2]1[c:3]([O:4][H:10])[c:5]([H:11])[c:6]([H:12])[n:7]1[H:13])([H:8])[H:9]>>[N:1](=[C:2]1\[C:3]([O:4][H:10])=[C:5]([H:11])[C:6]([H:8])([H:12])[N:7]1[H:13])\[H:9]"
N        1.70467096       0.84237902      -0.25148511
C        0.69487866       0.52109161       0.59567008
C        0.09089954      -0.79380413       0.65823066
O        0.89261597      -1.85468368       0.92021852
C       -1.08956213      -0.73947242      -0.05413156
C       -1.14070247       0.60400241      -0.60505525
N       -0.43692889       1.31457494       0.40863660
H        0.50754101       0.77473822      -1.49786986
H        2.49031684       0.23064140      -0.06651215
H        0.41040011      -2.66550357       0.74855992
H       -1.68777905      -1.56969072      -0.39912683
H       -2.11296647       1.02360880      -0.84908400
H       -0.32338408       2.31211812       0.39194897
13
Frame=15 idx=008480 GeodesicLength=0.8649597362184825 rxn_smarts="[N:1]([c:2]1[c:3]([O:4][H:10])[c:5]([H:11])[c:6]([H:12])[n:7]1[H:13])([H:8])[H:9]>>[N:1](=[C:2]1\[C:3]([O:4][H:10])=[C:5]([H:11])[C:6]([H:8])([H:12])[N:7]1[H:13])\[H:9]"
N        1.71906102       0.83696982      -0.25219756
C        0.69987111       0.52133772       0.58793707
C        0.08993986      -0.79077518       0.65702835
O        0.89463579      -1.85331319       0.90708633
C       -1.09824468      -0.73760021      -0.04597328
C       -1.14370163       0.60041732      -0.61139031
N       -0.43374610       1.31156162       0.39739845
H        0.51420158       0.77209932      -1.52597306
H        2.50653101       0.23724914      -0.03927343
H        0.40823713      -2.66322544       0.74373994
H       -1.69969589      -1.56891216      -0.38234400
H       -2.11711169       1.02347160      -0.84460994
H       -0.33997750       2.31071965       0.40857144
13
Frame=16 idx=008480 GeodesicLength=0.9224471489174887 rxn_smarts="[N:1]([c:2]1[c:3]([O:4][H:10])[c:5]([H:11])[c:6]([H:12])[n:7]1[H:13])([H:8])[H:9]>>[N:1](=[C:2]1\[C:3]([O:4][H:10])=[C:5]([H:11])[C:6]([H:8])([H:12])[N:7]1[H:13])\[H:9]"
N        1.73382797       0.83124887      -0.25289408
C        0.70501686       0.52165148       0.57989681
C        0.08906024      -0.78756933       0.65584157
O        0.89651294      -1.85182633       0.89385648
C       -1.10690997      -0.73545009      -0.03749455
C       -1.14667740       0.59673028      -0.61784015
N       -0.43024580       1.30876141       0.38555935
H        0.52096536       0.76908674      -1.55484493
H        2.52233525       0.24415818      -0.01177595
H        0.40607354      -2.66078994       0.73871610
H       -1.71165401      -1.56781683      -0.36496942
H       -2.12095495       1.02342051      -0.84053096
H       -0.35735004       2.30839505       0.42647974
