13
Frame=0 idx=005003 GeodesicLength=0.0 rxn_smarts="[O:1]([C@@:2]1([H:8])[C:3]([H:9])([H:10])[N:4]2[C:5]([H:11])([H:12])[C@@:6]12[H:13])[H:7]>>[O:1]([C@@:2]1([H:8])[C-:3]([H:9])[N+:4]2([H:10])[C:5]([H:11])([H:12])[C@@:6]12[H:13])[H:7]"
O       -1.49765624      -1.10012064       0.91607832
C       -1.15784260      -0.11651112      -0.03574837
C       -0.49480708       1.18767298       0.41001917
N        0.77835397       0.82846692      -0.44224729
C        1.36545076      -0.46022528      -0.12450167
C        0.08550763      -0.37815175      -0.89338911
H       -0.89450851      -1.02242754       1.65793367
H       -2.05756777       0.01070657      -0.63940842
H       -0.24034635       1.31204655       1.46553290
H        0.40309709       1.85395406      -0.60996297
H        1.37119607      -0.72712450       0.92645568
H        2.25056440      -0.72454780      -0.69092560
H        0.08855861      -0.66373850      -1.93983634
13
Frame=1 idx=005003 GeodesicLength=0.04739120439265724 rxn_smarts="[O:1]([C@@:2]1([H:8])[C:3]([H:9])([H:10])[N:4]2[C:5]([H:11])([H:12])[C@@:6]12[H:13])[H:7]>>[O:1]([C@@:2]1([H:8])[C-:3]([H:9])[N+:4]2([H:10])[C:5]([H:11])([H:12])[C@@:6]12[H:13])[H:7]"
O       -1.49881423      -1.09937424       0.91526307
C       -1.15593936      -0.11633251      -0.03577579
C       -0.48929568       1.18663445       0.40974035
N        0.77777582       0.82834041      -0.44330798
C        1.36402493      -0.46048223      -0.12330599
C        0.08615745      -0.38164410      -0.89328311
H       -0.89606638      -1.02454419       1.65767440
H       -2.05476002       0.01515472      -0.63986684
H       -0.23302693       1.30668252       1.46543037
H        0.39207849       1.86377540      -0.61306015
H        1.36823250      -0.72755933       0.92764377
H        2.25107440      -0.72247194      -0.68775836
H        0.08855900      -0.66817897      -1.93939372
13
Frame=2 idx=005003 GeodesicLength=0.0947799530959374 rxn_smarts="[O:1]([C@@:2]1([H:8])[C:3]([H:9])([H:10])[N:4]2[C:5]([H:11])([H:12])[C@@:6]12[H:13])[H:7]>>[O:1]([C@@:2]1([H:8])[C-:3]([H:9])[N+:4]2([H:10])[C:5]([H:11])([H:12])[C@@:6]12[H:13])[H:7]"
O       -1.49995479      -1.09858397       0.91445799
C       -1.15400678      -0.11614586      -0.03581624
C       -0.48375317       1.18560288       0.40942026
N        0.77727523       0.82816760      -0.44434555
C        1.36261993      -0.46080996      -0.12211769
C        0.08683362      -0.38513974      -0.89317581
H       -0.89762177      -1.02659863       1.65742413
H       -2.05190139       0.01958590      -0.64034475
H       -0.22571327       1.30135882       1.46527074
H        0.38077544       1.87370835      -0.61603582
H        1.36528587      -0.72806351       0.92882276
H        2.25158104      -0.72049116      -0.68460235
H        0.08858003      -0.67259072      -1.93895768
13
Frame=3 idx=005003 GeodesicLength=0.14216357306856658 rxn_smarts="[O:1]([C@@:2]1([H:8])[C:3]([H:9])([H:10])[N:4]2[C:5]([H:11])([H:12])[C@@:6]12[H:13])[H:7]>>[O:1]([C@@:2]1([H:8])[C-:3]([H:9])[N+:4]2([H:10])[C:5]([H:11])([H:12])[C@@:6]12[H:13])[H:7]"
O       -1.50107458      -1.09774937       0.91366461
C       -1.15204374      -0.11595222      -0.03587062
C       -0.47817937       1.18457891       0.40905414
N        0.77685585       0.82794579      -0.44535861
C        1.36123582      -0.46121286      -0.12093718
C        0.08753668      -0.38863898      -0.89306893
H       -0.89917309      -1.02858502       1.65718547
H       -2.04899190       0.02399458      -0.64084278
H       -0.21841109       1.29608096       1.46505075
H        0.36918346       1.88375607      -0.61887887
H        1.36235706      -0.72863729       0.92999326
H        2.25208298      -0.71861369      -0.68145919
H        0.08862191      -0.67696688      -1.93853206
13
Frame=4 idx=005003 GeodesicLength=0.18953984154379902 rxn_smarts="[O:1]([C@@:2]1([H:8])[C:3]([H:9])([H:10])[N:4]2[C:5]([H:11])([H:12])[C@@:6]12[H:13])[H:7]>>[O:1]([C@@:2]1([H:8])[C-:3]([H:9])[N+:4]2([H:10])[C:5]([H:11])([H:12])[C@@:6]12[H:13])[H:7]"
O       -1.50217058      -1.09686991       0.91288419
C       -1.15004911      -0.11575243      -0.03593990
C       -0.47257374       1.18356327       0.40863721
N        0.77652139       0.82767227      -0.44634619
C        1.35987279      -0.46169524      -0.11976479
C        0.08826719      -0.39214236      -0.89296412
H       -0.90071875      -1.03049797       1.65696071
H       -2.04603163       0.02837589      -0.64136162
H       -0.21112574       1.29085412       1.46476725
H        0.35729732       1.89392198      -0.62157801
H        1.35944700      -0.72928045       0.93115602
H        2.25257910      -0.71684763      -0.67833031
H        0.08868476      -0.68130153      -1.93812044
13
Frame=5 idx=005003 GeodesicLength=0.23690447661293754 rxn_smarts="[O:1]([C@@:2]1([H:8])[C:3]([H:9])([H:10])[N:4]2[C:5]([H:11])([H:12])[C@@:6]12[H:13])[H:7]>>[O:1]([C@@:2]1([H:8])[C-:3]([H:9])[N+:4]2([H:10])[C:5]([H:11])([H:12])[C@@:6]12[H:13])[H:7]"
O       -1.50324022      -1.09594475       0.91211787
C       -1.14802178      -0.11554701      -0.03602515
C       -0.46693546       1.18255692       0.40816453
N        0.77627578       0.82734440      -0.44730812
C        1.35853123      -0.46226126      -0.11860096
C        0.08902573      -0.39565067      -0.89286300
H       -0.90225737      -1.03233240       1.65675190
H       -2.04302058       0.03272576      -0.64190216
H       -0.20386197       1.28568337       1.46441711
H        0.34511035       1.90420882      -0.62412068
H        1.35655676      -0.72999243       0.93231186
H        2.25306883      -0.71520085      -0.67521709
H        0.08876870      -0.68558989      -1.93772611
13
Frame=6 idx=005003 GeodesicLength=0.2842416353358898 rxn_smarts="[O:1]([C@@:2]1([H:8])[C:3]([H:9])([H:10])[N:4]2[C:5]([H:11])([H:12])[C@@:6]12[H:13])[H:7]>>[O:1]([C@@:2]1([H:8])[C-:3]([H:9])[N+:4]2([H:10])[C:5]([H:11])([H:12])[C@@:6]12[H:13])[H:7]"
O       -1.50428196      -1.09497318       0.91136762
C       -1.14596152      -0.11533611      -0.03612756
C       -0.46126439       1.18156161       0.40763007
N        0.77612372       0.82696047      -0.44824617
C        1.35721279      -0.46291499      -0.11744640
C        0.08981288      -0.39916472      -0.89276751
H       -0.90378816      -1.03408376       1.65656210
H       -2.03996016       0.03704090      -0.64246568
H       -0.19662518       1.28057410       1.46399675
H        0.33261614       1.91461696      -0.62649121
H        1.35368861      -0.73077247       0.93346184
H        2.25355372      -0.71368126      -0.67212116
H        0.08887350      -0.68982755      -1.93735270
13
Frame=7 idx=005003 GeodesicLength=0.3316112068011244 rxn_smarts="[O:1]([C@@:2]1([H:8])[C:3]([H:9])([H:10])[N:4]2[C:5]([H:11])([H:12])[C@@:6]12[H:13])[H:7]>>[O:1]([C@@:2]1([H:8])[C-:3]([H:9])[N+:4]2([H:10])[C:5]([H:11])([H:12])[C@@:6]12[H:13])[H:7]"
O       -1.50529032      -1.09395547       0.91062793
C       -1.14386282      -0.11511918      -0.03624594
C       -0.45555368       1.18057370       0.40704165
N        0.77606827       0.82651445      -0.44914365
C        1.35591222      -0.46366192      -0.11629637
C        0.09063113      -0.40268008      -0.89267621
H       -0.90530771      -1.03575175       1.65638623
H       -2.03684462       0.04132099      -0.64304925
H       -0.18941082       1.27552557       1.46351276
H        0.31979290       1.92515698      -0.62872675
H        1.35083672      -0.73162483       0.93460906
H        2.25402437      -0.71229662      -0.66903836
H        0.08900436      -0.69400183      -1.93700110
13
Frame=8 idx=005003 GeodesicLength=0.378953111179956 rxn_smarts="[O:1]([C@@:2]1([H:8])[C:3]([H:9])([H:10])[N:4]2[C:5]([H:11])([H:12])[C@@:6]12[H:13])[H:7]>>[O:1]([C@@:2]1([H:8])[C-:3]([H:9])[N+:4]2([H:10])[C:5]([H:11])([H:12])[C@@:6]12[H:13])[H:7]"
O       -1.50627053      -1.09288819       0.90990411
C       -1.14172829      -0.11489605      -0.03638378
C       -0.44980452       1.17959745       0.40638634
N        0.77611240       0.82601032      -0.45002320
C        1.35463683      -0.46450007      -0.11515491
C        0.09147982      -0.40620489      -0.89259291
H       -0.90682142      -1.03733047       1.65623167
H       -2.03367625       0.04556719      -0.64366035
H       -0.18221793       1.27054055       1.46295542
H        0.30663455       1.93582730      -0.63076963
H        1.34800651      -0.73254457       0.93575259
H        2.25449160      -0.71104982      -0.66597127
H        0.08915722      -0.69812875      -1.93667408
13
Frame=9 idx=005003 GeodesicLength=0.4262624903575459 rxn_smarts="[O:1]([C@@:2]1([H:8])[C:3]([H:9])([H:10])[N:4]2[C:5]([H:11])([H:12])[C@@:6]12[H:13])[H:7]>>[O:1]([C@@:2]1([H:8])[C-:3]([H:9])[N+:4]2([H:10])[C:5]([H:11])([H:12])[C@@:6]12[H:13])[H:7]"
O       -1.50722316      -1.09176662       0.90919220
C       -1.13955519      -0.11466374      -0.03654267
C       -0.44401053       1.17863261       0.40566380
N        0.77625810       0.82544426      -0.45088845
C        1.35338637      -0.46542869      -0.11402268
C        0.09236095      -0.40974024      -0.89251677
H       -0.90833059      -1.03881804       1.65609485
H       -2.03045143       0.04978719      -0.64429997
H       -0.17503739       1.26561682       1.46232401
H        0.29311564       1.94662196      -0.63261097
H        1.34519385      -0.73352915       0.93689100
H        2.25495765      -0.70994190      -0.66291767
H        0.08933572      -0.70221447      -1.93636668
13
Frame=10 idx=005003 GeodesicLength=0.47357167943192224 rxn_smarts="[O:1]([C@@:2]1([H:8])[C:3]([H:9])([H:10])[N:4]2[C:5]([H:11])([H:12])[C@@:6]12[H:13])[H:7]>>[O:1]([C@@:2]1([H:8])[C-:3]([H:9])[N+:4]2([H:10])[C:5]([H:11])([H:12])[C@@:6]12[H:13])[H:7]"
O       -1.50814560      -1.09059304       0.90848774
C       -1.13734248      -0.11442116      -0.03672247
C       -0.43816811       1.17767719       0.40487737
N        0.77650797       0.82481593      -0.45173017
C        1.35215918      -0.46645149      -0.11289493
C        0.09327354      -0.41328340      -0.89244755
H       -0.90982926      -1.04022024       1.65596897
H       -2.02717100       0.05398304      -0.64496560
H       -0.16786988       1.26075364       1.46162224
H        0.27923127       1.95756008      -0.63427230
H        1.34239990      -0.73457926       0.93802954
H        2.25541663      -0.70897894      -0.65987325
H        0.08953783      -0.70626235      -1.93607958
13
Frame=11 idx=005003 GeodesicLength=0.5208737212572084 rxn_smarts="[O:1]([C@@:2]1([H:8])[C:3]([H:9])([H:10])[N:4]2[C:5]([H:11])([H:12])[C@@:6]12[H:13])[H:7]>>[O:1]([C@@:2]1([H:8])[C-:3]([H:9])[N+:4]2([H:10])[C:5]([H:11])([H:12])[C@@:6]12[H:13])[H:7]"
O       -1.50904060      -1.08935904       0.90779273
C       -1.13508799      -0.11416486      -0.03692619
C       -0.43227221       1.17673482       0.40402019
N        0.77686796       0.82412310      -0.45255902
C        1.35095829      -0.46757088      -0.11177418
C        0.09422070      -0.41683839      -0.89238767
H       -0.91131949      -1.04153166       1.65585598
H       -2.02383130       0.05816268      -0.64566191
H       -0.16071198       1.25595255       1.46084627
H        0.26494749       1.96863713      -0.63572123
H        1.33962495      -0.73569678       0.93916619
H        2.25587559      -0.70816564      -0.65683885
H        0.08976858      -0.71028302      -1.93581230
13
Frame=12 idx=005003 GeodesicLength=0.5681668509393484 rxn_smarts="[O:1]([C@@:2]1([H:8])[C:3]([H:9])([H:10])[N:4]2[C:5]([H:11])([H:12])[C@@:6]12[H:13])[H:7]>>[O:1]([C@@:2]1([H:8])[C-:3]([H:9])[N+:4]2([H:10])[C:5]([H:11])([H:12])[C@@:6]12[H:13])[H:7]"
O       -1.50991165      -1.08806179       0.90710459
C       -1.13279012      -0.11389269      -0.03715495
C       -0.42631632       1.17580524       0.40309273
N        0.77734060       0.82336498      -0.45337873
C        1.34978429      -0.46878697      -0.11065961
C        0.09520301      -0.42040727      -0.89233690
H       -0.91280477      -1.04275136       1.65575403
H       -2.02042982       0.06233083      -0.64639124
H       -0.15355115       1.25121035       1.45999579
H        0.25024226       1.97985463      -0.63695413
H        1.33686753      -0.73688292       0.94030160
H        2.25633788      -0.70750034      -0.65380938
H        0.09002825      -0.71428268      -1.93556380
13
Frame=13 idx=005003 GeodesicLength=0.6154536452215799 rxn_smarts="[O:1]([C@@:2]1([H:8])[C:3]([H:9])([H:10])[N:4]2[C:5]([H:11])([H:12])[C@@:6]12[H:13])[H:7]>>[O:1]([C@@:2]1([H:8])[C-:3]([H:9])[N+:4]2([H:10])[C:5]([H:11])([H:12])[C@@:6]12[H:13])[H:7]"
O       -1.51076102      -1.08669685       0.90642044
C       -1.13044665      -0.11360150      -0.03741025
C       -0.42029413       1.17488893       0.40209376
N        0.77792887       0.82254088      -0.45419532
C        1.34863885      -0.47009923      -0.10955113
C        0.09622196      -0.42399181      -0.89229534
H       -0.91428844      -1.04387691       1.65566140
H       -2.01696271       0.06649357      -0.64715698
H       -0.14637697       1.24652213       1.45906987
H        0.23508894       1.99121592      -0.63795834
H        1.33412651      -0.73813565       0.94143601
H        2.25680551      -0.70698719      -0.65078264
H        0.09031928      -0.71827228      -1.93533148
13
Frame=14 idx=005003 GeodesicLength=0.6627384776804989 rxn_smarts="[O:1]([C@@:2]1([H:8])[C:3]([H:9])([H:10])[N:4]2[C:5]([H:11])([H:12])[C@@:6]12[H:13])[H:7]>>[O:1]([C@@:2]1([H:8])[C-:3]([H:9])[N+:4]2([H:10])[C:5]([H:11])([H:12])[C@@:6]12[H:13])[H:7]"
O       -1.51159101      -1.08525993       0.90573811
C       -1.12805488      -0.11328886      -0.03769356
C       -0.41419883       1.17398655       0.40102157
N        0.77863688       0.82164926      -0.45501342
C        1.34752326      -0.47150964      -0.10844809
C        0.09727920      -0.42759438      -0.89226363
H       -0.91577404      -1.04490630       1.65557721
H       -2.01342546       0.07065675      -0.64796276
H       -0.13917709       1.24188629       1.45806629
H        0.21945710       2.00272206      -0.63872308
H        1.33140054      -0.73945547       0.94257056
H        2.25728228      -0.70662911      -0.64775385
H        0.09064206      -0.72225723      -1.93511535
13
Frame=15 idx=005003 GeodesicLength=0.7100215147014173 rxn_smarts="[O:1]([C@@:2]1([H:8])[C:3]([H:9])([H:10])[N:4]2[C:5]([H:11])([H:12])[C@@:6]12[H:13])[H:7]>>[O:1]([C@@:2]1([H:8])[C-:3]([H:9])[N+:4]2([H:10])[C:5]([H:11])([H:12])[C@@:6]12[H:13])[H:7]"
O       -1.51240397      -1.08374488       0.90505541
C       -1.12561270      -0.11295146      -0.03800680
C       -0.40802450       1.17309876       0.39987261
N        0.77946942       0.82068802      -0.45583712
C        1.34643955      -0.47301923      -0.10735016
C        0.09837681      -0.43121658      -0.89224122
H       -0.91726306      -1.04583709       1.65549833
H       -2.00981436       0.07482588      -0.64881176
H       -0.13194448       1.23730059       1.45698166
H        0.20331910       2.01437409      -0.63923226
H        1.32869022      -0.74084039       0.94370578
H        2.25776981      -0.70643176      -0.64472210
H        0.09099817      -0.72624593      -1.93491238
13
Frame=16 idx=005003 GeodesicLength=0.7573003513501543 rxn_smarts="[O:1]([C@@:2]1([H:8])[C:3]([H:9])([H:10])[N:4]2[C:5]([H:11])([H:12])[C@@:6]12[H:13])[H:7]>>[O:1]([C@@:2]1([H:8])[C-:3]([H:9])[N+:4]2([H:10])[C:5]([H:11])([H:12])[C@@:6]12[H:13])[H:7]"
O       -1.51319637      -1.08215037       0.90437215
C       -1.12311694      -0.11259003      -0.03835228
C       -0.40176683       1.17222657       0.39863969
N        0.78043149       0.81965342      -0.45667041
C        1.34538810      -0.47463216      -0.10625841
C        0.09951580      -0.43486098      -0.89223124
H       -0.91875719      -1.04665826       1.65542881
H       -2.00612723       0.07899925      -0.64970578
H       -0.12467950       1.23277175       1.45581042
H        0.18665523       2.02617554      -0.63946128
H        1.32599434      -0.74229301       0.94484094
H        2.25826902      -0.70640357      -0.64168599
H        0.09139008      -0.73023816      -1.93472661
