12
Frame=0 idx=006797 GeodesicLength=0.0 rxn_smarts="[O:1]=[C:2]([C@@:3]1([H:9])[C:4]([H:10])([H:11])[N:5]1[C:6](=[O:7])[H:12])[H:8]>>[O:1]1[C:2]([H:8])=[C:3]([H:9])[C:4]([H:10])([H:11])[N:5]2[C@@:6]1([H:12])[O:7]2"
O        0.33962758      -1.01357602      -1.05327964
C        1.25388323      -0.21849146      -0.56164010
C        0.88514879       0.84413455       0.20856485
C       -0.59506729       1.09473933       0.18527870
N       -0.76092350      -0.11725318       0.90699454
C       -0.73556964      -1.25508309       0.07214346
O       -1.97747330      -1.16601280      -0.21135591
H        2.28887325      -0.45913622      -0.79656262
H        1.57793307       1.43389933       0.78787166
H       -1.01069704       1.06859522      -0.82324967
H       -0.93014122       1.95519350       0.75573541
H       -0.33559394      -2.16700921       0.52949929
12
Frame=1 idx=006797 GeodesicLength=0.08988640361337324 rxn_smarts="[O:1]=[C:2]([C@@:3]1([H:9])[C:4]([H:10])([H:11])[N:5]1[C:6](=[O:7])[H:12])[H:8]>>[O:1]1[C:2]([H:8])=[C:3]([H:9])[C:4]([H:10])([H:11])[N:5]2[C@@:6]1([H:12])[O:7]2"
O        0.37880319      -1.05510676      -1.03799987
C        1.26249056      -0.22507809      -0.55565396
C        0.88026741       0.82536543       0.22689587
C       -0.59420471       1.09833035       0.18040519
N       -0.77483041      -0.11364220       0.89924464
C       -0.74279133      -1.26243557       0.08189334
O       -1.97942592      -1.15660148      -0.21972630
H        2.29135788      -0.39407664      -0.86940130
H        1.57180667       1.41431510       0.80892278
H       -1.00126063       1.08170935      -0.83142393
H       -0.92530690       1.95913758       0.75309344
H       -0.36690582      -2.17191708       0.56375010
12
Frame=2 idx=006797 GeodesicLength=0.17923985278058124 rxn_smarts="[O:1]=[C:2]([C@@:3]1([H:9])[C:4]([H:10])([H:11])[N:5]1[C:6](=[O:7])[H:12])[H:8]>>[O:1]1[C:2]([H:8])=[C:3]([H:9])[C:4]([H:10])([H:11])[N:5]2[C@@:6]1([H:12])[O:7]2"
O        0.42078666      -1.09824248      -1.01972578
C        1.27148394      -0.23095160      -0.55133868
C        0.87536609       0.80662923       0.24382266
C       -0.59269811       1.10186408       0.17580094
N       -0.78757906      -0.11053654       0.89077283
C       -0.74927916      -1.26993747       0.09111044
O       -1.97971648      -1.14721640      -0.22984527
H        2.28522428      -0.32851732      -0.93827121
H        1.56607518       1.39497917       0.82777851
H       -0.99176975       1.09575384      -0.83888270
H       -0.91928104       1.96250287       0.75168985
H       -0.39861256      -2.17632737       0.59708842
12
Frame=3 idx=006797 GeodesicLength=0.26855975316002834 rxn_smarts="[O:1]=[C:2]([C@@:3]1([H:9])[C:4]([H:10])([H:11])[N:5]1[C:6](=[O:7])[H:12])[H:8]>>[O:1]1[C:2]([H:8])=[C:3]([H:9])[C:4]([H:10])([H:11])[N:5]2[C@@:6]1([H:12])[O:7]2"
O        0.46620270      -1.14297607      -0.99763559
C        1.28096765      -0.23584419      -0.54849172
C        0.87055625       0.78827123       0.25954234
C       -0.59068976       1.10554493       0.17151785
N       -0.79945478      -0.10776215       0.88159596
C       -0.75499522      -1.27758540       0.09981324
O       -1.97823184      -1.13803532      -0.24219176
H        2.27067293      -0.26373732      -1.00495015
H        1.56071856       1.37598894       0.84526046
H       -0.98228942       1.11084733      -0.84568323
H       -0.91257633       1.96546263       0.75157238
H       -0.43088073      -2.18017460       0.62965022
12
Frame=4 idx=006797 GeodesicLength=0.3575705841376069 rxn_smarts="[O:1]=[C:2]([C@@:3]1([H:9])[C:4]([H:10])([H:11])[N:5]1[C:6](=[O:7])[H:12])[H:8]>>[O:1]1[C:2]([H:8])=[C:3]([H:9])[C:4]([H:10])([H:11])[N:5]2[C@@:6]1([H:12])[O:7]2"
O        0.51602533      -1.18934401      -0.96988864
C        1.29119374      -0.23995771      -0.54603788
C        0.86588702       0.77027027       0.27450518
C       -0.58803023       1.10943278       0.16741279
N       -0.81066332      -0.10518580       0.87148364
C       -0.75972719      -1.28528140       0.10810567
O       -1.97425767      -1.12889147      -0.25762996
H        2.24585568      -0.19956995      -1.07264425
H        1.55541473       1.35673681       0.86265287
H       -0.97222415       1.12710197      -0.85204264
H       -0.90539907       1.96799497       0.75232438
H       -0.46407488      -2.18330645       0.66175883
12
Frame=5 idx=006797 GeodesicLength=0.44666357644511057 rxn_smarts="[O:1]=[C:2]([C@@:3]1([H:9])[C:4]([H:10])([H:11])[N:5]1[C:6](=[O:7])[H:12])[H:8]>>[O:1]1[C:2]([H:8])=[C:3]([H:9])[C:4]([H:10])([H:11])[N:5]2[C@@:6]1([H:12])[O:7]2"
O        0.57011444      -1.23639292      -0.93694469
C        1.30136807      -0.24248893      -0.54549711
C        0.86119709       0.75331876       0.28784798
C       -0.58525412       1.11375268       0.16400866
N       -0.82093434      -0.10304209       0.86055253
C       -0.76338138      -1.29303817       0.11543374
O       -1.96791274      -1.12007747      -0.27584949
H        2.21292679      -0.13988350      -1.13772391
H        1.55050194       1.33862077       0.87800450
H       -0.96285313       1.14508166      -0.85720763
H       -0.89804436       1.97003550       0.75519227
H       -0.49772825      -2.18588629       0.69218315
12
Frame=6 idx=006797 GeodesicLength=0.5356380284650446 rxn_smarts="[O:1]=[C:2]([C@@:3]1([H:9])[C:4]([H:10])([H:11])[N:5]1[C:6](=[O:7])[H:12])[H:8]>>[O:1]1[C:2]([H:8])=[C:3]([H:9])[C:4]([H:10])([H:11])[N:5]2[C@@:6]1([H:12])[O:7]2"
O        0.62893260      -1.28373363      -0.89765344
C        1.31090099      -0.24392117      -0.54645890
C        0.85630520       0.73713655       0.29969019
C       -0.58248130       1.11842567       0.16149120
N       -0.83034741      -0.10149616       0.84863464
C       -0.76586980      -1.30076880       0.12151229
O       -1.95883029      -1.11134823      -0.29723895
H        2.17176613      -0.08484940      -1.20012860
H        1.54613057       1.32193265       0.89020108
H       -0.95427715       1.16509939      -0.86084988
H       -0.89025270       1.97142240       0.76038604
H       -0.53197684      -2.18789927       0.72041432
12
Frame=7 idx=006797 GeodesicLength=0.6247732518006215 rxn_smarts="[O:1]=[C:2]([C@@:3]1([H:9])[C:4]([H:10])([H:11])[N:5]1[C:6](=[O:7])[H:12])[H:8]>>[O:1]1[C:2]([H:8])=[C:3]([H:9])[C:4]([H:10])([H:11])[N:5]2[C@@:6]1([H:12])[O:7]2"
O        0.69343583      -1.33050658      -0.85013106
C        1.32044810      -0.24435965      -0.54802111
C        0.85146930       0.72243187       0.31000623
C       -0.57973388       1.12374431       0.15992533
N       -0.83898064      -0.10040542       0.83562117
C       -0.76698512      -1.30847527       0.12618192
O       -1.94643477      -1.10275901      -0.32262212
H        2.12085212      -0.03644032      -1.26298927
H        1.54206308       1.30668328       0.90072948
H       -0.94628364       1.18745610      -0.86300069
H       -0.88272191       1.97211863       0.76818660
H       -0.56712849      -2.18948793       0.74611354
12
Frame=8 idx=006797 GeodesicLength=0.7140800305119381 rxn_smarts="[O:1]=[C:2]([C@@:3]1([H:9])[C:4]([H:10])([H:11])[N:5]1[C:6](=[O:7])[H:12])[H:8]>>[O:1]1[C:2]([H:8])=[C:3]([H:9])[C:4]([H:10])([H:11])[N:5]2[C@@:6]1([H:12])[O:7]2"
O        0.76342908      -1.37501571      -0.79400612
C        1.32965703      -0.24390028      -0.55022915
C        0.84661880       0.70975727       0.31821831
C       -0.57735237       1.12986868       0.15954018
N       -0.84661312      -0.09981998       0.82147253
C       -0.76651470      -1.31600997       0.12902469
O       -1.93052283      -1.09424005      -0.35177811
H        2.06097608       0.00238085      -1.32534975
H        1.53828004       1.29329477       0.90902405
H       -0.93960023       1.21252717      -0.86318468
H       -0.87576096       1.97194773       0.77916080
H       -0.60259682      -2.19079048       0.76810726
12
Frame=9 idx=006797 GeodesicLength=0.8034533777923446 rxn_smarts="[O:1]=[C:2]([C@@:3]1([H:9])[C:4]([H:10])([H:11])[N:5]1[C:6](=[O:7])[H:12])[H:8]>>[O:1]1[C:2]([H:8])=[C:3]([H:9])[C:4]([H:10])([H:11])[N:5]2[C@@:6]1([H:12])[O:7]2"
O        0.83671130      -1.41469532      -0.73202836
C        1.33825425      -0.24373527      -0.55220834
C        0.84158842       0.69879339       0.32442098
C       -0.57553335       1.13658125       0.16036657
N       -0.85321700      -0.09985379       0.80633284
C       -0.76461845      -1.32326121       0.12978918
O       -1.91185599      -1.08588743      -0.38320181
H        1.99415731       0.03019155      -1.38392795
H        1.53495912       1.28275469       0.91338021
H       -0.93446914       1.24015106      -0.86121761
H       -0.86918749       1.97086075       0.79302564
H       -0.63678896      -2.19189967       0.78526863
12
Frame=10 idx=006797 GeodesicLength=0.8935263476965054 rxn_smarts="[O:1]=[C:2]([C@@:3]1([H:9])[C:4]([H:10])([H:11])[N:5]1[C:6](=[O:7])[H:12])[H:8]>>[O:1]1[C:2]([H:8])=[C:3]([H:9])[C:4]([H:10])([H:11])[N:5]2[C@@:6]1([H:12])[O:7]2"
O        0.91238192      -1.44842805      -0.66525314
C        1.34671078      -0.24399970      -0.55373899
C        0.83651834       0.68995334       0.32850765
C       -0.57434593       1.14404853       0.16233222
N       -0.85881285      -0.10036147       0.79038226
C       -0.76147803      -1.33026786       0.12844515
O       -1.89092721      -1.07773586      -0.41621152
H        1.92149822       0.04573561      -1.43888471
H        1.53193107       1.27508874       0.91461317
H       -0.93091272       1.27022800      -0.85718002
H       -0.86329765       1.96900273       0.80972532
H       -0.66926593      -2.19326400       0.79726260
12
Frame=11 idx=006797 GeodesicLength=0.9837447754803634 rxn_smarts="[O:1]=[C:2]([C@@:3]1([H:9])[C:4]([H:10])([H:11])[N:5]1[C:6](=[O:7])[H:12])[H:8]>>[O:1]1[C:2]([H:8])=[C:3]([H:9])[C:4]([H:10])([H:11])[N:5]2[C@@:6]1([H:12])[O:7]2"
O        0.98929189      -1.47468884      -0.59471277
C        1.35530867      -0.24449143      -0.55467665
C        0.83142690       0.68335717       0.33019337
C       -0.57385108       1.15212135       0.16526676
N       -0.86303203      -0.10115850       0.77358821
C       -0.75700099      -1.33656883       0.12498208
O       -1.86793727      -1.06922459      -0.45021771
H        1.84373600       0.04743984      -1.48979588
H        1.52878279       1.26959459       0.91357793
H       -0.92929090       1.30236648      -0.85096675
H       -0.85828120       1.96585947       0.82895250
H       -0.69915278      -2.19460672       0.80380891
12
Frame=12 idx=006797 GeodesicLength=1.0748099363095986 rxn_smarts="[O:1]=[C:2]([C@@:3]1([H:9])[C:4]([H:10])([H:11])[N:5]1[C:6](=[O:7])[H:12])[H:8]>>[O:1]1[C:2]([H:8])=[C:3]([H:9])[C:4]([H:10])([H:11])[N:5]2[C@@:6]1([H:12])[O:7]2"
O        1.06558753      -1.49340581      -0.52403549
C        1.36400320      -0.24554178      -0.55530274
C        0.82626757       0.67853035       0.32990812
C       -0.57401346       1.16076616       0.16890218
N       -0.86629898      -0.10212632       0.75635333
C       -0.75185845      -1.34245816       0.11979197
O       -1.84428853      -1.06073578      -0.48370559
H        1.76400048       0.03692223      -1.53467340
H        1.52560040       1.26627281       0.91022298
H       -0.92925695       1.33610660      -0.84301523
H       -0.85390482       1.96204694       0.84991849
H       -0.72583798      -2.19637725       0.80563538
12
Frame=13 idx=006797 GeodesicLength=1.166282781224694 rxn_smarts="[O:1]=[C:2]([C@@:3]1([H:9])[C:4]([H:10])([H:11])[N:5]1[C:6](=[O:7])[H:12])[H:8]>>[O:1]1[C:2]([H:8])=[C:3]([H:9])[C:4]([H:10])([H:11])[N:5]2[C@@:6]1([H:12])[O:7]2"
O        1.13986499      -1.50483924      -0.45618760
C        1.37265341      -0.24727922      -0.55557143
C        0.82102110       0.67453796       0.32826477
C       -0.57458380       1.16950818       0.17273631
N       -0.86879938      -0.10310654       0.73867515
C       -0.74650571      -1.34780472       0.11332482
O       -1.82100919      -1.05224704      -0.51563084
H        1.68388726       0.01694895      -1.57183913
H        1.52243711       1.26439224       0.90473677
H       -0.93032640       1.37051311      -0.83382674
H       -0.84976493       1.95740803       0.87139561
H       -0.74887446      -2.19803171       0.80392229
12
Frame=14 idx=006797 GeodesicLength=1.2583359073691316 rxn_smarts="[O:1]=[C:2]([C@@:3]1([H:9])[C:4]([H:10])([H:11])[N:5]1[C:6](=[O:7])[H:12])[H:8]>>[O:1]1[C:2]([H:8])=[C:3]([H:9])[C:4]([H:10])([H:11])[N:5]2[C@@:6]1([H:12])[O:7]2"
O        1.21264836      -1.50952666      -0.39045893
C        1.38109495      -0.24916086      -0.55637672
C        0.81564188       0.67173615       0.32476998
C       -0.57573184       1.17853619       0.17697022
N       -0.87052150      -0.10404954       0.72078584
C       -0.74119848      -1.35264776       0.10566620
O       -1.79829533      -1.04345037      -0.54622842
H        1.60516415      -0.01278341      -1.60237857
H        1.51910887       1.26361455       0.89755017
H       -0.93293455       1.40574943      -0.82310264
H       -0.84597994       1.95195061       0.89388989
H       -0.76899657      -2.19996833       0.79891298
12
Frame=15 idx=006797 GeodesicLength=1.3508763762271716 rxn_smarts="[O:1]=[C:2]([C@@:3]1([H:9])[C:4]([H:10])([H:11])[N:5]1[C:6](=[O:7])[H:12])[H:8]>>[O:1]1[C:2]([H:8])=[C:3]([H:9])[C:4]([H:10])([H:11])[N:5]2[C@@:6]1([H:12])[O:7]2"
O        1.28340703      -1.50842992      -0.32902984
C        1.38905327      -0.25143517      -0.55773311
C        0.81010265       0.66926163       0.32017611
C       -0.57720934       1.18752931       0.18118882
N       -0.87184798      -0.10485857       0.70278612
C       -0.73640933      -1.35712049       0.09735045
O       -1.77694442      -1.03459154      -0.57485132
H        1.52912286      -0.04878414      -1.62559154
H        1.51572919       1.26336204       0.88891668
H       -0.93640140       1.44107026      -0.81144783
H       -0.84221434       1.94593004       0.91625630
H       -0.78638818      -2.20193346       0.79197917
12
Frame=16 idx=006797 GeodesicLength=1.443734754436242 rxn_smarts="[O:1]=[C:2]([C@@:3]1([H:9])[C:4]([H:10])([H:11])[N:5]1[C:6](=[O:7])[H:12])[H:8]>>[O:1]1[C:2]([H:8])=[C:3]([H:9])[C:4]([H:10])([H:11])[N:5]2[C@@:6]1([H:12])[O:7]2"
O        1.35264231      -1.50183994      -0.27107907
C        1.39642326      -0.25389261      -0.55995387
C        0.80437937       0.66724863       0.31420494
C       -0.57908232       1.19647984       0.18557155
N       -0.87276077      -0.10555327       0.68479189
C       -0.73236593      -1.36119891       0.08840409
O       -1.75706684      -1.02538747      -0.60178313
H        1.45671596      -0.09098680      -1.64238808
H        1.51225405       1.26357773       0.87877747
H       -0.94093620       1.47647587      -0.79857352
H       -0.83843299       1.93915344       0.93885263
H       -0.80176990      -2.20407652       0.78317510
