19
Frame=0 idx=007692 GeodesicLength=0.0 rxn_smarts="[C:1]([C:2]([C:3]([H:12])([H:13])[H:14])([C@@:4]1([H:15])[O:5][C@:6]1([C:7]([H:17])([H:18])[H:19])[H:16])[H:11])([H:8])([H:9])[H:10]>>[C:1]([C:2]([C:3]([H:12])([H:13])[H:14])([C:4](=[O+:5][C-:6]([C:7]([H:17])([H:18])[H:19])[H:16])[H:15])[H:11])([H:8])([H:9])[H:10]"
C       -1.99240659      -1.01295841      -0.63945974
C       -0.88020008      -0.13430332      -0.04941462
C       -1.49738215       0.97044813       0.81437425
C        0.11814601      -0.99834280       0.65905955
O        1.40341284      -1.09207830       0.28191462
C        1.86467917       0.16199041       0.36022864
C        2.73830702       0.63952934      -0.73255720
H       -2.72103705      -0.40960909      -1.18643845
H       -1.58642213      -1.76120213      -1.32186395
H       -2.53076630      -1.53777372       0.15508915
H       -0.33096132       0.35237434      -0.86582578
H       -1.98802357       0.54312471       1.69313238
H       -2.24778551       1.53515128       0.25457474
H       -0.73154467       1.66375468       1.16317242
H       -0.22174758      -1.86908625       1.21293282
H        1.67077952       0.69093081       1.27814289
H        2.18636349       0.99025600      -1.61320438
H        3.37115114      -0.18907688      -1.07022821
H        3.37543775       1.45687125      -0.39362904
19
Frame=1 idx=007692 GeodesicLength=0.04389278875133694 rxn_smarts="[C:1]([C:2]([C:3]([H:12])([H:13])[H:14])([C@@:4]1([H:15])[O:5][C@:6]1([C:7]([H:17])([H:18])[H:19])[H:16])[H:11])([H:8])([H:9])[H:10]>>[C:1]([C:2]([C:3]([H:12])([H:13])[H:14])([C:4](=[O+:5][C-:6]([C:7]([H:17])([H:18])[H:19])[H:16])[H:15])[H:11])([H:8])([H:9])[H:10]"
C       -2.00033154      -1.00944156      -0.63821078
C       -0.88543856      -0.13000326      -0.05606922
C       -1.49470694       0.96955582       0.82000781
C        0.11960773      -0.99131775       0.64469510
O        1.39924158      -1.10266345       0.25431946
C        1.85582290       0.15245804       0.35213853
C        2.74396968       0.63622000      -0.72756488
H       -2.73483805      -0.40615393      -1.17726048
H       -1.59804238      -1.75530053      -1.32548208
H       -2.53125699      -1.53736336       0.15932930
H       -0.34616620       0.36021815      -0.87699997
H       -1.98508072       0.53695835       1.69637529
H       -2.24415909       1.54276317       0.26776686
H       -0.72489109       1.65583968       1.17425997
H       -0.21809808      -1.85556292       1.21033921
H        1.67835876       0.67668907       1.27651724
H        2.20621470       0.91807362      -1.64071237
H        3.43780720      -0.16431678      -1.00763186
H        3.32198710       1.50334764      -0.40581713
19
Frame=2 idx=007692 GeodesicLength=0.08742280722259514 rxn_smarts="[C:1]([C:2]([C:3]([H:12])([H:13])[H:14])([C@@:4]1([H:15])[O:5][C@:6]1([C:7]([H:17])([H:18])[H:19])[H:16])[H:11])([H:8])([H:9])[H:10]>>[C:1]([C:2]([C:3]([H:12])([H:13])[H:14])([C:4](=[O+:5][C-:6]([C:7]([H:17])([H:18])[H:19])[H:16])[H:15])[H:11])([H:8])([H:9])[H:10]"
C       -2.00711773      -1.00558983      -0.63753599
C       -0.89001361      -0.12550792      -0.06239588
C       -1.49179424       0.96845427       0.82569225
C        0.12130315      -0.98415228       0.63101934
O        1.39523774      -1.11284775       0.22853657
C        1.84751512       0.14285603       0.34511239
C        2.74812401       0.63248930      -0.72291562
H       -2.74721987      -0.40235364      -1.16880291
H       -1.60814348      -1.74870998      -1.32962305
H       -2.53092443      -1.53687907       0.16239149
H       -0.36038560       0.36844765      -0.88724365
H       -1.98236575       0.53044404       1.69918101
H       -2.23992676       1.55018461       0.28080816
H       -0.71823207       1.64749749       1.18591487
H       -0.21425509      -1.84202498       1.20772817
H        1.68612704       0.66312813       1.27502853
H        2.22837242       0.84558592      -1.66430418
H        3.49714908      -0.13554180      -0.94487412
H        3.26655008       1.54451982      -0.42371738
19
Frame=3 idx=007692 GeodesicLength=0.13028678708001679 rxn_smarts="[C:1]([C:2]([C:3]([H:12])([H:13])[H:14])([C@@:4]1([H:15])[O:5][C@:6]1([C:7]([H:17])([H:18])[H:19])[H:16])[H:11])([H:8])([H:9])[H:10]>>[C:1]([C:2]([C:3]([H:12])([H:13])[H:14])([C:4](=[O+:5][C-:6]([C:7]([H:17])([H:18])[H:19])[H:16])[H:15])[H:11])([H:8])([H:9])[H:10]"
C       -2.01292323      -1.00180868      -0.63726225
C       -0.89388455      -0.12108889      -0.06853514
C       -1.48848669       0.96750495       0.83105776
C        0.12313227      -0.97723720       0.61815462
O        1.39140361      -1.12313596       0.20449018
C        1.83986678       0.13285517       0.33941976
C        2.75078634       0.62884984      -0.71846713
H       -2.75815651      -0.39855586      -1.16122159
H       -1.61697487      -1.74236470      -1.33390234
H       -2.53017434      -1.53634729       0.16481081
H       -0.37338631       0.37650195      -0.89701861
H       -1.97981494       0.52429609       1.70153597
H       -2.23485970       1.55777942       0.29311959
H       -0.71129182       1.63924335       1.19743382
H       -0.21049750      -1.82885832       1.20551716
H        1.69393641       0.64992112       1.27415344
H        2.25185670       0.77556715      -1.68318556
H        3.54858293      -0.10302728      -0.88478648
H        3.21088542       1.57990515      -0.44531402
19
Frame=4 idx=007692 GeodesicLength=0.17324115188157913 rxn_smarts="[C:1]([C:2]([C:3]([H:12])([H:13])[H:14])([C@@:4]1([H:15])[O:5][C@:6]1([C:7]([H:17])([H:18])[H:19])[H:16])[H:11])([H:8])([H:9])[H:10]>>[C:1]([C:2]([C:3]([H:12])([H:13])[H:14])([C:4](=[O+:5][C-:6]([C:7]([H:17])([H:18])[H:19])[H:16])[H:15])[H:11])([H:8])([H:9])[H:10]"
C       -2.01805584      -0.99783346      -0.63725806
C       -0.89716360      -0.11672397      -0.07454891
C       -1.48458523       0.96646109       0.83611405
C        0.12510758      -0.97049245       0.60568492
O        1.38767965      -1.13334269       0.18177772
C        1.83273012       0.12244141       0.33474245
C        2.75205706       0.62524887      -0.71404116
H       -2.76809714      -0.39453957      -1.15408670
H       -1.62509523      -1.73578759      -1.33824690
H       -2.52908022      -1.53549191       0.16662857
H       -0.38547753       0.38436578      -0.90629125
H       -1.97701029       0.51827911       1.70333077
H       -2.22884778       1.56527934       0.30497006
H       -0.70376899       1.63065140       1.20873937
H       -0.20671229      -1.81578024       1.20329390
H        1.70183312       0.63680462       1.27354051
H        2.27698849       0.70623757      -1.69791005
H        3.59375352      -0.06623805      -0.82600141
H        3.15374461       1.61046072      -0.47043789
19
Frame=5 idx=007692 GeodesicLength=0.21612761953893064 rxn_smarts="[C:1]([C:2]([C:3]([H:12])([H:13])[H:14])([C@@:4]1([H:15])[O:5][C@:6]1([C:7]([H:17])([H:18])[H:19])[H:16])[H:11])([H:8])([H:9])[H:10]>>[C:1]([C:2]([C:3]([H:12])([H:13])[H:14])([C:4](=[O+:5][C-:6]([C:7]([H:17])([H:18])[H:19])[H:16])[H:15])[H:11])([H:8])([H:9])[H:10]"
C       -2.02239259      -0.99368881      -0.63769507
C       -0.89997286      -0.11223608      -0.08026677
C       -1.48060927       0.96539886       0.84132416
C        0.12716436      -0.96382412       0.59387189
O        1.38403661      -1.14353177       0.16049389
C        1.82607167       0.11181235       0.33088021
C        2.75244933       0.62138834      -0.71000937
H       -2.77697436      -0.39025307      -1.14758829
H       -1.63208872      -1.72889948      -1.34304819
H       -2.52755493      -1.53468229       0.16764864
H       -0.39673837       0.39252193      -0.91491322
H       -1.97457185       0.51215044       1.70501571
H       -2.22243453       1.57284970       0.31679007
H       -0.69637092       1.62192305       1.22057391
H       -0.20300418      -1.80299094       1.20122173
H        1.70962814       0.62441625       1.27298552
H        2.30420251       0.63768153      -1.70917361
H        3.63327907      -0.02617733      -0.76865657
H        3.09588089       1.63614143      -0.49945465
19
Frame=6 idx=007692 GeodesicLength=0.2593214689673613 rxn_smarts="[C:1]([C:2]([C:3]([H:12])([H:13])[H:14])([C@@:4]1([H:15])[O:5][C@:6]1([C:7]([H:17])([H:18])[H:19])[H:16])[H:11])([H:8])([H:9])[H:10]>>[C:1]([C:2]([C:3]([H:12])([H:13])[H:14])([C:4](=[O+:5][C-:6]([C:7]([H:17])([H:18])[H:19])[H:16])[H:15])[H:11])([H:8])([H:9])[H:10]"
C       -2.02600502      -0.98917820      -0.63863790
C       -0.90242208      -0.10748280      -0.08563167
C       -1.47673796       0.96419884       0.84699545
C        0.12929045      -0.95715689       0.58259687
O        1.38046137      -1.15366302       0.14047490
C        1.81979732       0.10105644       0.32755371
C        2.75223148       0.61708399      -0.70650716
H       -2.78500171      -0.38545403      -1.14156508
H       -1.63799149      -1.72125687      -1.34859157
H       -2.52552824      -1.53398616       0.16771187
H       -0.40735152       0.40130301      -0.92275845
H       -1.97265070       0.50557214       1.70678149
H       -2.21584881       1.58046477       0.32904041
H       -0.68932296       1.61285183       1.23340936
H       -0.19935186      -1.79040367       1.19923327
H        1.71727752       0.61290123       1.27221408
H        2.33439991       0.56838145      -1.71747889
H        3.66810877       0.01755826      -0.71166343
H        3.03664554       1.65720967      -0.53317725
19
Frame=7 idx=007692 GeodesicLength=0.3028298971523587 rxn_smarts="[C:1]([C:2]([C:3]([H:12])([H:13])[H:14])([C@@:4]1([H:15])[O:5][C@:6]1([C:7]([H:17])([H:18])[H:19])[H:16])[H:11])([H:8])([H:9])[H:10]>>[C:1]([C:2]([C:3]([H:12])([H:13])[H:14])([C:4](=[O+:5][C-:6]([C:7]([H:17])([H:18])[H:19])[H:16])[H:15])[H:11])([H:8])([H:9])[H:10]"
C       -2.02910317      -0.98452643      -0.63975125
C       -0.90425729      -0.10289770      -0.09092623
C       -1.47204342       0.96295696       0.85217668
C        0.13151088      -0.95075840       0.57170070
O        1.37688218      -1.16392510       0.12162444
C        1.81407262       0.08962876       0.32530221
C        2.75059303       0.61297008      -0.70287189
H       -2.79210172      -0.38050100      -1.13598232
H       -1.64350944      -1.71360108      -1.35397076
H       -2.52338102      -1.53278814       0.16736051
H       -0.41701482       0.40960543      -0.93023436
H       -1.97022438       0.49938389       1.70786376
H       -2.20802882       1.58799511       0.34062266
H       -0.68138551       1.60347077       1.24571649
H       -0.19583658      -1.77794403       1.19723935
H        1.72497528       0.60127193       1.27179232
H        2.36539441       0.50100239      -1.72130598
H        3.69697279       0.06535139      -0.65753015
H        2.97648499       1.67330518      -0.56882618
19
Frame=8 idx=007692 GeodesicLength=0.3464983734270228 rxn_smarts="[C:1]([C:2]([C:3]([H:12])([H:13])[H:14])([C@@:4]1([H:15])[O:5][C@:6]1([C:7]([H:17])([H:18])[H:19])[H:16])[H:11])([H:8])([H:9])[H:10]>>[C:1]([C:2]([C:3]([H:12])([H:13])[H:14])([C:4](=[O+:5][C-:6]([C:7]([H:17])([H:18])[H:19])[H:16])[H:15])[H:11])([H:8])([H:9])[H:10]"
C       -2.03169366      -0.97966741      -0.64118633
C       -0.90569042      -0.09825564      -0.09602655
C       -1.46718746       0.96179762       0.85749763
C        0.13376949      -0.94470685       0.56125403
O        1.37340032      -1.17450801       0.10378523
C        1.80882597       0.07770748       0.32376594
C        2.74829524       0.60877643      -0.69955087
H       -2.79846606      -0.37510901      -1.13083808
H       -1.64833087      -1.70571226      -1.35975109
H       -2.52109021      -1.53153151       0.16649693
H       -0.42589061       0.41807140      -0.93731616
H       -1.96805825       0.49326904       1.70895322
H       -2.19972884       1.59582878       0.35224083
H       -0.67338357       1.59397465       1.25839665
H       -0.19251414      -1.76599952       1.19540319
H        1.73247578       0.58996037       1.27153037
H        2.39886274       0.43441885      -1.72172720
H        3.72108025       0.11693570      -0.60530615
H        2.91532430       1.68474990      -0.60762158
19
Frame=9 idx=007692 GeodesicLength=0.39066386303684997 rxn_smarts="[C:1]([C:2]([C:3]([H:12])([H:13])[H:14])([C@@:4]1([H:15])[O:5][C@:6]1([C:7]([H:17])([H:18])[H:19])[H:16])[H:11])([H:8])([H:9])[H:10]>>[C:1]([C:2]([C:3]([H:12])([H:13])[H:14])([C:4](=[O+:5][C-:6]([C:7]([H:17])([H:18])[H:19])[H:16])[H:15])[H:11])([H:8])([H:9])[H:10]"
C       -2.03370513      -0.97438623      -0.64305121
C       -0.90688941      -0.09328760      -0.10074312
C       -1.46252536       0.96035832       0.86334928
C        0.13608697      -0.93845135       0.55124753
O        1.36985620      -1.18486233       0.08690844
C        1.80387956       0.06578442       0.32249853
C        2.74570529       0.60402358      -0.69669863
H       -2.80425033      -0.36926569      -1.12594329
H       -1.65225707      -1.69683581      -1.36624842
H       -2.51827390      -1.53040642       0.16468577
H       -0.43437302       0.42726029      -0.94354279
H       -1.96636285       0.48652894       1.71010486
H       -2.19142642       1.60346051       0.36449481
H       -0.66585080       1.58396235       1.27213382
H       -0.18919532      -1.75401562       1.19354131
H        1.73973469       0.57976726       1.27071932
H        2.43561258       0.36755556      -1.71879459
H        3.74049275       0.17203805      -0.55393789
H        2.85374158       1.69077177      -0.65072371
19
Frame=10 idx=007692 GeodesicLength=0.43543010604553567 rxn_smarts="[C:1]([C:2]([C:3]([H:12])([H:13])[H:14])([C@@:4]1([H:15])[O:5][C@:6]1([C:7]([H:17])([H:18])[H:19])[H:16])[H:11])([H:8])([H:9])[H:10]>>[C:1]([C:2]([C:3]([H:12])([H:13])[H:14])([C:4](=[O+:5][C-:6]([C:7]([H:17])([H:18])[H:19])[H:16])[H:15])[H:11])([H:8])([H:9])[H:10]"
C       -2.03522297      -0.96881624      -0.64516653
C       -0.90740273      -0.08846705      -0.10539294
C       -1.45695631       0.95898565       0.86884585
C        0.13849896      -0.93270104       0.54162656
O        1.36632230      -1.19572469       0.07106067
C        1.79956737       0.05284685       0.32240341
C        2.74159308       0.59951894      -0.69379082
H       -2.80906401      -0.36293296      -1.12160807
H       -1.65583767      -1.68787930      -1.37273344
H       -2.51547289      -1.52864545       0.16243831
H       -0.44173834       0.43603207      -0.94946958
H       -1.96418925       0.48027474       1.71073535
H       -2.18171211       1.61130095       0.37620912
H       -0.65732783       1.57364142       1.28556739
H       -0.18614482      -1.74244952       1.19173019
H        1.74705836       0.56911557       1.27050990
H        2.47350731       0.30235056      -1.71149241
H        3.75424766       0.23177605      -0.50592385
H        2.79027390       1.69177345      -0.69554909
19
Frame=11 idx=007692 GeodesicLength=0.4805176680343796 rxn_smarts="[C:1]([C:2]([C:3]([H:12])([H:13])[H:14])([C@@:4]1([H:15])[O:5][C@:6]1([C:7]([H:17])([H:18])[H:19])[H:16])[H:11])([H:8])([H:9])[H:10]>>[C:1]([C:2]([C:3]([H:12])([H:13])[H:14])([C:4](=[O+:5][C-:6]([C:7]([H:17])([H:18])[H:19])[H:16])[H:15])[H:11])([H:8])([H:9])[H:10]"
C       -2.03629655      -0.96296880      -0.64757818
C       -0.90766654      -0.08345206      -0.10977336
C       -1.45142518       0.95751168       0.87468063
C        0.14095119      -0.92696225       0.53235217
O        1.36271700      -1.20654124       0.05586720
C        1.79556941       0.03974309       0.32267035
C        2.73719928       0.59470760      -0.69119034
H       -2.81333293      -0.35624164      -1.11753123
H       -1.65876765      -1.67838562      -1.37967088
H       -2.51239258      -1.52690693       0.15958575
H       -0.44864875       0.44524127      -0.95483131
H       -1.96228836       0.47377326       1.71144750
H       -2.17184315       1.61911067       0.38834153
H       -0.64903901       1.56303938       1.29961334
H       -0.18315478      -1.73110682       1.18987349
H        1.75406974       0.55923327       1.27003761
H        2.51437229       0.23836540      -1.70042243
H        3.76288852       0.29478086      -0.46006451
H        2.72708806       1.68705890      -0.74340732
19
Frame=12 idx=007692 GeodesicLength=0.526334736703115 rxn_smarts="[C:1]([C:2]([C:3]([H:12])([H:13])[H:14])([C@@:4]1([H:15])[O:5][C@:6]1([C:7]([H:17])([H:18])[H:19])[H:16])[H:11])([H:8])([H:9])[H:10]>>[C:1]([C:2]([C:3]([H:12])([H:13])[H:14])([C:4](=[O+:5][C-:6]([C:7]([H:17])([H:18])[H:19])[H:16])[H:15])[H:11])([H:8])([H:9])[H:10]"
C       -2.03681508      -0.95659005      -0.65042470
C       -0.90746987      -0.07823060      -0.11384276
C       -1.44567347       0.95592176       0.88087490
C        0.14348566      -0.92141743       0.52351508
O        1.35910200      -1.21763032       0.04155144
C        1.79209617       0.02604742       0.32361488
C        2.73199527       0.58966043      -0.68896231
H       -2.81681952      -0.34878929      -1.11389541
H       -1.66096338      -1.66807363      -1.38718857
H       -2.50909572      -1.52491860       0.15587915
H       -0.45473814       0.45489315      -0.95948751
H       -1.96060880       0.46703685       1.71211791
H       -2.16138159       1.62704152       0.40087446
H       -0.64067265       1.55192749       1.31445725
H       -0.18037492      -1.72011103       1.18802570
H        1.76097495       0.54971128       1.26956139
H        2.55836184       0.17471904      -1.68502466
H        3.76599728       0.36252799      -0.41672365
H        2.66259996       1.67627402      -0.79492259
19
Frame=13 idx=007692 GeodesicLength=0.5728874479783064 rxn_smarts="[C:1]([C:2]([C:3]([H:12])([H:13])[H:14])([C@@:4]1([H:15])[O:5][C@:6]1([C:7]([H:17])([H:18])[H:19])[H:16])[H:11])([H:8])([H:9])[H:10]>>[C:1]([C:2]([C:3]([H:12])([H:13])[H:14])([C:4](=[O+:5][C-:6]([C:7]([H:17])([H:18])[H:19])[H:16])[H:15])[H:11])([H:8])([H:9])[H:10]"
C       -2.03683439      -0.94972582      -0.65364808
C       -0.90683039      -0.07282797      -0.11764651
C       -1.43964674       0.95422990       0.88736652
C        0.14611040      -0.91605551       0.51502943
O        1.35544204      -1.22891103       0.02791262
C        1.78909795       0.01180990       0.32521579
C        2.72601840       0.58444000      -0.68700904
H       -2.81958735      -0.34065739      -1.11063990
H       -1.66253939      -1.65703757      -1.39520020
H       -2.50559982      -1.52266283       0.15142699
H       -0.46006752       0.46492089      -0.96352214
H       -1.95900752       0.46014034       1.71274386
H       -2.15031171       1.63504633       0.41378063
H       -0.63216095       1.54035816       1.32991881
H       -0.17775290      -1.70945875       1.18610921
H        1.76774048       0.54051002       1.26911528
H        2.60546909       0.11227796      -1.66490729
H        3.76306118       0.43468023      -0.37647601
H        2.59739914       1.65892314      -0.84956997
19
Frame=14 idx=007692 GeodesicLength=0.6201178886405803 rxn_smarts="[C:1]([C:2]([C:3]([H:12])([H:13])[H:14])([C@@:4]1([H:15])[O:5][C@:6]1([C:7]([H:17])([H:18])[H:19])[H:16])[H:11])([H:8])([H:9])[H:10]>>[C:1]([C:2]([C:3]([H:12])([H:13])[H:14])([C:4](=[O+:5][C-:6]([C:7]([H:17])([H:18])[H:19])[H:16])[H:15])[H:11])([H:8])([H:9])[H:10]"
C       -2.03635834      -0.94239633      -0.65723051
C       -0.90578363      -0.06722194      -0.12117455
C       -1.43342247       0.95241691       0.89417364
C        0.14884541      -0.91080453       0.50688180
O        1.35173120      -1.24026094       0.01484403
C        1.78653833      -0.00284870       0.32742916
C        2.71934505       0.57904096      -0.68533343
H       -2.82166743      -0.33190349      -1.10775112
H       -1.66347064      -1.64527813      -1.40368146
H       -2.50187894      -1.52017513       0.14624737
H       -0.46471505       0.47537926      -0.96692630
H       -1.95751634       0.45304471       1.71334205
H       -2.13875666       1.64305853       0.42710312
H       -0.62361127       1.52834132       1.34598907
H       -0.17522647      -1.69911939       1.18409462
H        1.77435713       0.53173201       1.26866502
H        2.65553108       0.05176412      -1.63977778
H        3.75365560       0.51066648      -0.33994502
H        2.53240342       1.63456427      -0.90694972
19
Frame=15 idx=007692 GeodesicLength=0.6678959211973817 rxn_smarts="[C:1]([C:2]([C:3]([H:12])([H:13])[H:14])([C@@:4]1([H:15])[O:5][C@:6]1([C:7]([H:17])([H:18])[H:19])[H:16])[H:11])([H:8])([H:9])[H:10]>>[C:1]([C:2]([C:3]([H:12])([H:13])[H:14])([C:4](=[O+:5][C-:6]([C:7]([H:17])([H:18])[H:19])[H:16])[H:15])[H:11])([H:8])([H:9])[H:10]"
C       -2.03544348      -0.93465390      -0.66112526
C       -0.90442207      -0.06138942      -0.12442943
C       -1.42712533       0.95045203       0.90132777
C        0.15169930      -0.90556570       0.49900427
O        1.34796681      -1.25147890       0.00217373
C        1.78432368      -0.01769970       0.33012792
C        2.71216929       0.57345872      -0.68393300
H       -2.82317666      -0.32263551      -1.10515456
H       -1.66379459      -1.63282108      -1.41259662
H       -2.49791706      -1.51753687       0.14040582
H       -0.46885822       0.48633637      -0.96971984
H       -1.95616950       0.44568007       1.71396494
H       -2.12692621       1.65098428       0.44092808
H       -0.61517447       1.51590031       1.36264262
H       -0.17270263      -1.68905015       1.18190829
H        1.78078597       0.52354579       1.26811618
H        2.70838129      -0.00608382      -1.60940639
H        3.73752466       0.58963223      -0.30764320
H        2.46885921       1.60292525      -0.96659131
19
Frame=16 idx=007692 GeodesicLength=0.7160456283464613 rxn_smarts="[C:1]([C:2]([C:3]([H:12])([H:13])[H:14])([C@@:4]1([H:15])[O:5][C@:6]1([C:7]([H:17])([H:18])[H:19])[H:16])[H:11])([H:8])([H:9])[H:10]>>[C:1]([C:2]([C:3]([H:12])([H:13])[H:14])([C:4](=[O+:5][C-:6]([C:7]([H:17])([H:18])[H:19])[H:16])[H:15])[H:11])([H:8])([H:9])[H:10]"
C       -2.03418916      -0.92656437      -0.66526598
C       -0.90287682      -0.05531028      -0.12742301
C       -1.42089689       0.94829013       0.90886616
C        0.15467048      -0.90022894       0.49128623
O        1.34415346      -1.26231388      -0.01030531
C        1.78231752      -0.03244641       0.33313227
C        2.70475240       0.56769621      -0.68279876
H       -2.82429340      -0.31298419      -1.10273277
H       -1.66360667      -1.61969835      -1.42190071
H       -2.49371217      -1.51484623       0.13399707
H       -0.47274492       0.49786157      -0.97193938
H       -1.95498343       0.43795224       1.71468667
H       -2.11507426       1.65870638       0.45537023
H       -0.60700759       1.50305617       1.37983566
H       -0.17007056      -1.67920164       1.17943982
H        1.78697133       0.51615240       1.26733590
H        2.76383764      -0.06057582      -1.57359946
H        3.71459638       0.67054382      -0.27995764
H        2.40815666       1.56391119      -1.02802700
