13
Frame=0 idx=006086 GeodesicLength=0.0 rxn_smarts="[C:1]([C@@:2]1([H:10])[N:3]([H:11])[C@:4]1([C:5](=[O:6])[H:13])[H:12])([H:7])([H:8])[H:9]>>[C:1]([C@@:2]1([H:10])[N+:3]([H:11])([H:12])[C:4]1=[C:5]([O-:6])[H:13])([H:7])([H:8])[H:9]"
C       -1.04297702      -0.20229413       1.07821938
C       -0.26475571      -0.79444575      -0.06926458
N       -0.48356268      -0.09676203      -1.36159154
C        1.03520144      -0.24125336      -0.47415650
C        1.42061675       1.06878910       0.05025688
O        1.43201123       2.13132522      -0.52113046
H       -1.01649148       0.88742723       1.04320962
H       -0.62228206      -0.53666192       2.02834550
H       -2.08448246      -0.52373282       1.03977192
H       -0.36269017      -1.87722908      -0.13576094
H       -0.54645156      -0.83986171      -2.06179048
H        0.68344464       0.06389994      -1.68851834
H        1.85241908       0.96079930       1.07240957
13
Frame=1 idx=006086 GeodesicLength=0.06516056336387611 rxn_smarts="[C:1]([C@@:2]1([H:10])[N:3]([H:11])[C@:4]1([C:5](=[O:6])[H:13])[H:12])([H:7])([H:8])[H:9]>>[C:1]([C@@:2]1([H:10])[N+:3]([H:11])([H:12])[C:4]1=[C:5]([O-:6])[H:13])([H:7])([H:8])[H:9]"
C       -1.04754863      -0.20854821       1.08300460
C       -0.26521703      -0.79649082      -0.06347361
N       -0.47920358      -0.10023397      -1.35500630
C        1.02476872      -0.23202454      -0.48205648
C        1.42271400       1.07090333       0.04696096
O        1.47968821       2.12331260      -0.54139389
H       -1.02316722       0.88129295       1.05069570
H       -0.62702943      -0.54324655       2.03310813
H       -2.08814923      -0.53296414       1.04349111
H       -0.35553605      -1.87985981      -0.13042681
H       -0.55367614      -0.83671984      -2.05974929
H        0.68594345       0.08134350      -1.70605610
H        1.82641294       0.97323549       1.08090199
13
Frame=2 idx=006086 GeodesicLength=0.13000105655494165 rxn_smarts="[C:1]([C@@:2]1([H:10])[N:3]([H:11])[C@:4]1([C:5](=[O:6])[H:13])[H:12])([H:7])([H:8])[H:9]>>[C:1]([C@@:2]1([H:10])[N+:3]([H:11])([H:12])[C:4]1=[C:5]([O-:6])[H:13])([H:7])([H:8])[H:9]"
C       -1.05210482      -0.21482483       1.08770540
C       -0.26553302      -0.79848747      -0.05769043
N       -0.47500973      -0.10383158      -1.34856813
C        1.01425790      -0.22270713      -0.48995888
C        1.42486336       1.07298851       0.04352302
O        1.52829139       2.11356841      -0.56052694
H       -1.03005214       0.87512640       1.05792568
H       -0.63165748      -0.54960997       2.03782564
H       -2.09171503      -0.54245635       1.04716947
H       -0.34802780      -1.88241027      -0.12499978
H       -0.56089388      -0.83361097      -2.05769480
H        0.68765694       0.09952179      -1.72326500
H        1.79992433       0.98673346       1.08855474
13
Frame=3 idx=006086 GeodesicLength=0.19455935751176845 rxn_smarts="[C:1]([C@@:2]1([H:10])[N:3]([H:11])[C@:4]1([C:5](=[O:6])[H:13])[H:12])([H:7])([H:8])[H:9]>>[C:1]([C@@:2]1([H:10])[N+:3]([H:11])([H:12])[C:4]1=[C:5]([O-:6])[H:13])([H:7])([H:8])[H:9]"
C       -1.05663782      -0.22113318       1.09233562
C       -0.26570563      -0.80044216      -0.05192742
N       -0.47098858      -0.10754547      -1.34229933
C        1.00367151      -0.21330960      -0.49785399
C        1.42707238       1.07505772       0.03995085
O        1.57785930       2.10201208      -0.57850940
H       -1.03714876       0.86893640       1.06491272
H       -0.63614842      -0.55575922       2.04252399
H       -2.09516804      -0.55223311       1.05082747
H       -0.34017813      -1.88490006      -0.11949787
H       -0.56810938      -0.83054319      -2.05566473
H        0.68855989       0.11847259      -1.74015173
H        1.77292169       1.00138721       1.09535382
13
Frame=4 idx=006086 GeodesicLength=0.258757915158068 rxn_smarts="[C:1]([C@@:2]1([H:10])[N:3]([H:11])[C@:4]1([C:5](=[O:6])[H:13])[H:12])([H:7])([H:8])[H:9]>>[C:1]([C@@:2]1([H:10])[N+:3]([H:11])([H:12])[C:4]1=[C:5]([O-:6])[H:13])([H:7])([H:8])[H:9]"
C       -1.06111895      -0.22747209       1.09685187
C       -0.26572152      -0.80232357      -0.04619181
N       -0.46713884      -0.11136728      -1.33615286
C        0.99302703      -0.20383421      -0.50570139
C        1.42936757       1.07705794       0.03623837
O        1.62822588       2.08847733      -0.59525801
H       -1.04443435       0.86268138       1.07161938
H       -0.64045936      -0.56168744       2.04712060
H       -2.09848275      -0.56227452       1.05442466
H       -0.33198158      -1.88725032      -0.11393095
H       -0.57532736      -0.82747992      -2.05358971
H        0.68863677       0.13821269      -1.75662519
H        1.74540745       1.01726000       1.10119503
13
Frame=5 idx=006086 GeodesicLength=0.32262295450669964 rxn_smarts="[C:1]([C@@:2]1([H:10])[N:3]([H:11])[C@:4]1([C:5](=[O:6])[H:13])[H:12])([H:7])([H:8])[H:9]>>[C:1]([C@@:2]1([H:10])[N+:3]([H:11])([H:12])[C:4]1=[C:5]([O-:6])[H:13])([H:7])([H:8])[H:9]"
C       -1.06553079      -0.23379914       1.10127077
C       -0.26557793      -0.80415827      -0.04050499
N       -0.46345633      -0.11533209      -1.33019293
C        0.98232987      -0.19433047      -0.51354937
C        1.43178822       1.07894304       0.03240041
O        1.67918670       2.07300090      -0.61058238
H       -1.05189826       0.85643887       1.07802385
H       -0.64455865      -0.56731267       2.05166469
H       -2.10163687      -0.57253555       1.05801291
H       -0.32345338      -1.88952015      -0.10829791
H       -0.58247720      -0.82450769      -2.05155411
H        0.68784564       0.15883085      -1.77273319
H        1.71743900       1.03428237       1.10604224
13
Frame=6 idx=006086 GeodesicLength=0.38620422001238747 rxn_smarts="[C:1]([C@@:2]1([H:10])[N:3]([H:11])[C@:4]1([C:5](=[O:6])[H:13])[H:12])([H:7])([H:8])[H:9]>>[C:1]([C@@:2]1([H:10])[N+:3]([H:11])([H:12])[C:4]1=[C:5]([O-:6])[H:13])([H:7])([H:8])[H:9]"
C       -1.06986718      -0.24013482       1.10559692
C       -0.26528761      -0.80594683      -0.03487001
N       -0.45993474      -0.11943877      -1.32443401
C        0.97157904      -0.18479232      -0.52139063
C        1.43435660       1.08070205       0.02844219
O        1.73075694       2.05547725      -0.62446832
H       -1.05953983       0.85018535       1.08410503
H       -0.64842917      -0.57262562       2.05617461
H       -2.10462026      -0.58306448       1.06161280
H       -0.31461957      -1.89170264      -0.10258899
H       -0.58955203      -0.82162097      -2.04958079
H        0.68615675       0.18041681      -1.78845414
H        1.68900106       1.05254498       1.10985535
13
Frame=7 idx=006086 GeodesicLength=0.44947144290352004 rxn_smarts="[C:1]([C@@:2]1([H:10])[N:3]([H:11])[C@:4]1([C:5](=[O:6])[H:13])[H:12])([H:7])([H:8])[H:9]>>[C:1]([C@@:2]1([H:10])[N+:3]([H:11])([H:12])[C:4]1=[C:5]([O-:6])[H:13])([H:7])([H:8])[H:9]"
C       -1.07408686      -0.24642218       1.10984099
C       -0.26482670      -0.80770451      -0.02930393
N       -0.45648287      -0.12367679      -1.31886587
C        0.96083954      -0.17533780      -0.52921796
C        1.43722501       1.08217199       0.02437022
O        1.78232070       2.03595010      -0.63680579
H       -1.06721008       0.84398059       1.08995400
H       -0.65210354      -0.57768950       2.06062806
H       -2.10742526      -0.59364200       1.06520626
H       -0.30553850      -1.89381172      -0.09687208
H       -0.59646682      -0.81879790      -2.04769016
H        0.68364487       0.20291798      -1.80375445
H        1.66011051       1.07206175       1.11251073
13
Frame=8 idx=006086 GeodesicLength=0.5122019316940172 rxn_smarts="[C:1]([C@@:2]1([H:10])[N:3]([H:11])[C@:4]1([C:5](=[O:6])[H:13])[H:12])([H:7])([H:8])[H:9]>>[C:1]([C@@:2]1([H:10])[N+:3]([H:11])([H:12])[C:4]1=[C:5]([O-:6])[H:13])([H:7])([H:8])[H:9]"
C       -1.07813703      -0.25264940       1.11384489
C       -0.26418436      -0.80936824      -0.02380954
N       -0.45319902      -0.12812453      -1.31341646
C        0.95007523      -0.16590735      -0.53699993
C        1.44035279       1.08325762       0.02022983
O        1.83381145       2.01428277      -0.64736116
H       -1.07497604       0.83773505       1.09527506
H       -0.65539882      -0.58227800       2.06482743
H       -2.10997019      -0.60436926       1.06869466
H       -0.29614123      -1.89568468      -0.09104702
H       -0.60323536      -0.81610732      -2.04571595
H        0.68009055       0.22654166      -1.81840215
H        1.63091204       1.09267169       1.11388032
13
Frame=9 idx=006086 GeodesicLength=0.5747984054701861 rxn_smarts="[C:1]([C@@:2]1([H:10])[N:3]([H:11])[C@:4]1([C:5](=[O:6])[H:13])[H:12])([H:7])([H:8])[H:9]>>[C:1]([C@@:2]1([H:10])[N+:3]([H:11])([H:12])[C:4]1=[C:5]([O-:6])[H:13])([H:7])([H:8])[H:9]"
C       -1.08208397      -0.25885346       1.11786333
C       -0.26342299      -0.81109564      -0.01840683
N       -0.44998440      -0.13271735      -1.30832613
C        0.93932205      -0.15661462      -0.54481339
C        1.44386052       1.08406312       0.01605783
O        1.88549495       1.99060078      -0.65637939
H       -1.08280784       0.83163439       1.10038743
H       -0.65846788      -0.58658857       2.06919502
H       -2.11234715      -0.61526790       1.07230712
H       -0.28659172      -1.89769455      -0.08521847
H       -0.60980783      -0.81357706      -2.04409616
H        0.67560595       0.25134928      -1.83270231
H        1.60123029       1.11476159       1.11413195
13
Frame=10 idx=006086 GeodesicLength=0.6369150987618195 rxn_smarts="[C:1]([C@@:2]1([H:10])[N:3]([H:11])[C@:4]1([C:5](=[O:6])[H:13])[H:12])([H:7])([H:8])[H:9]>>[C:1]([C@@:2]1([H:10])[N+:3]([H:11])([H:12])[C:4]1=[C:5]([O-:6])[H:13])([H:7])([H:8])[H:9]"
C       -1.08582553      -0.26504882       1.12164131
C       -0.26246468      -0.81270427      -0.01308364
N       -0.44683898      -0.13742960      -1.30322082
C        0.92860429      -0.14741269      -0.55249636
C        1.44772303       1.08428766       0.01185655
O        1.93697503       1.96440341      -0.66371479
H       -1.09067989       0.82536933       1.10506810
H       -0.66114280      -0.59056213       2.07319407
H       -2.11443227      -0.62628310       1.07582050
H       -0.27675749      -1.89936740      -0.07938939
H       -0.61616444      -0.81098380      -2.04228722
H        0.67008549       0.27737380      -1.84608611
H        1.57091824       1.13835761       1.11269781
13
Frame=11 idx=006086 GeodesicLength=0.6988415448668089 rxn_smarts="[C:1]([C@@:2]1([H:10])[N:3]([H:11])[C@:4]1([C:5](=[O:6])[H:13])[H:12])([H:7])([H:8])[H:9]>>[C:1]([C@@:2]1([H:10])[N+:3]([H:11])([H:12])[C:4]1=[C:5]([O-:6])[H:13])([H:7])([H:8])[H:9]"
C       -1.08940345      -0.27120732       1.12538983
C       -0.26139066      -0.81438239      -0.00787182
N       -0.44369863      -0.14229785      -1.29843411
C        0.91794818      -0.13844699      -0.56018071
C        1.45213412       1.08395073       0.00771423
O        1.98822271       1.93606761      -0.66937769
H       -1.09853593       0.81921340       1.10947446
H       -0.66350954      -0.59420532       2.07727767
H       -2.11629357      -0.63741861       1.07945073
H       -0.26684572      -1.90113305      -0.07358416
H       -0.62222961      -0.80851304      -2.04080997
H        0.66355057       0.30478615      -1.85886555
H        1.54005152       1.16358668       1.10981709
13
Frame=12 idx=006086 GeodesicLength=0.7604406461222898 rxn_smarts="[C:1]([C@@:2]1([H:10])[N:3]([H:11])[C@:4]1([C:5](=[O:6])[H:13])[H:12])([H:7])([H:8])[H:9]>>[C:1]([C@@:2]1([H:10])[N+:3]([H:11])([H:12])[C:4]1=[C:5]([O-:6])[H:13])([H:7])([H:8])[H:9]"
C       -1.09275018      -0.27735283       1.12899849
C       -0.26016876      -0.81607007      -0.00277819
N       -0.44056978      -0.14729060      -1.29380499
C        0.90736295      -0.12972774      -0.56778809
C        1.45709638       1.08284790       0.00368214
O        2.03922568       1.90520959      -0.67328016
H       -1.10641262       0.81302248       1.11347281
H       -0.66540600      -0.59745836       2.08121381
H       -2.11783073      -0.64871333       1.08314318
H       -0.25678911      -1.90281349      -0.06782517
H       -0.62799016      -0.80602798      -2.03945648
H        0.65586306       0.33373031      -1.87068817
H        1.50836927       1.19064413       1.10511084
13
Frame=13 idx=006086 GeodesicLength=0.8219023487833613 rxn_smarts="[C:1]([C@@:2]1([H:10])[N:3]([H:11])[C@:4]1([C:5](=[O:6])[H:13])[H:12])([H:7])([H:8])[H:9]>>[C:1]([C@@:2]1([H:10])[N+:3]([H:11])([H:12])[C:4]1=[C:5]([O-:6])[H:13])([H:7])([H:8])[H:9]"
C       -1.09591582      -0.28357995       1.13257579
C       -0.25886484      -0.81784137       0.00218977
N       -0.43744405      -0.15238543      -1.28942212
C        0.89688073      -0.12126152      -0.57533280
C        1.46270904       1.08100224      -0.00017465
O        2.09046173       1.87158925      -0.67544587
H       -1.11439614       0.80676038       1.11712982
H       -0.66681810      -0.60035979       2.08517389
H       -2.11911086      -0.66038355       1.08706234
H       -0.24669851      -1.90454402      -0.06214604
H       -0.63344546      -0.80350202      -2.03841824
H        0.64697985       0.36445944      -1.88151431
H        1.47566243       1.22004634       1.09832244
13
Frame=14 idx=006086 GeodesicLength=0.8830576023472603 rxn_smarts="[C:1]([C@@:2]1([H:10])[N:3]([H:11])[C@:4]1([C:5](=[O:6])[H:13])[H:12])([H:7])([H:8])[H:9]>>[C:1]([C@@:2]1([H:10])[N+:3]([H:11])([H:12])[C:4]1=[C:5]([O-:6])[H:13])([H:7])([H:8])[H:9]"
C       -1.09874676      -0.28970486       1.13599758
C       -0.25742107      -0.81969619       0.00698072
N       -0.43409192      -0.15758572      -1.28513340
C        0.88660885      -0.11336538      -0.58275358
C        1.46925271       1.07770383      -0.00362244
O        2.14022012       1.83568546      -0.67574169
H       -1.12214635       0.80053125       1.12042587
H       -0.66772649      -0.60284764       2.08888734
H       -2.11997379      -0.67190977       1.09105455
H       -0.23669102      -1.90624817      -0.05668248
H       -0.63835575      -0.80082538      -2.03752896
H        0.63701640       0.39683762      -1.89091743
H        1.44205508       1.25142495       1.08903392
13
Frame=15 idx=006086 GeodesicLength=0.9439597612053362 rxn_smarts="[C:1]([C@@:2]1([H:10])[N:3]([H:11])[C@:4]1([C:5](=[O:6])[H:13])[H:12])([H:7])([H:8])[H:9]>>[C:1]([C@@:2]1([H:10])[N+:3]([H:11])([H:12])[C:4]1=[C:5]([O-:6])[H:13])([H:7])([H:8])[H:9]"
C       -1.10129113      -0.29581280       1.13931457
C       -0.25593435      -0.82171642       0.01161597
N       -0.43053208      -0.16288780      -1.28107156
C        0.87659767      -0.10604238      -0.58999483
C        1.47681143       1.07294136      -0.00648346
O        2.18882606       1.79760167      -0.67417234
H       -1.12974861       0.79430408       1.12326841
H       -0.66805427      -0.60489927       2.09252037
H       -2.12050964      -0.68350969       1.09522278
H       -0.22693386      -1.90806935      -0.05134734
H       -0.64275918      -0.79799828      -2.03698046
H        0.62593817       0.43108437      -1.89878945
H        1.40758977       1.28500451       1.07689733
13
Frame=16 idx=006086 GeodesicLength=1.0046783603037923 rxn_smarts="[C:1]([C@@:2]1([H:10])[N:3]([H:11])[C@:4]1([C:5](=[O:6])[H:13])[H:12])([H:7])([H:8])[H:9]>>[C:1]([C@@:2]1([H:10])[N+:3]([H:11])([H:12])[C:4]1=[C:5]([O-:6])[H:13])([H:7])([H:8])[H:9]"
C       -1.10352888      -0.30193086       1.14256087
C       -0.25443435      -0.82395671       0.01606256
N       -0.42665961      -0.16824052      -1.27717550
C        0.86693081      -0.09943014      -0.59699752
C        1.48554883       1.06636983      -0.00849756
O        2.23610199       1.75729032      -0.67078489
H       -1.13716937       0.78803797       1.12573831
H       -0.66776217      -0.60654206       2.09604934
H       -2.12069732      -0.69518011       1.09963878
H       -0.21756119      -1.91005720      -0.04628861
H       -0.64655876      -0.79486060      -2.03679814
H        0.61378358       0.46733203      -1.90475337
H        1.37200643       1.32116806       1.06124571
