13
Frame=0 idx=010019 GeodesicLength=0.0 rxn_smarts="[N:1]([c:2]1[c:3]([H:10])[c:4]([H:11])[c:5]([O:6][H:12])[n:7]1[H:13])([H:8])[H:9]>>[N:1]([C@:2]1([H:13])[C:3]([H:10])=[C:4]([H:11])[C:5]([O:6][H:12])=[N:7]1)([H:8])[H:9]"
N       -2.30044627      -0.24823236       0.07151197
C       -0.91529370      -0.01109699       0.17418334
C       -0.25185883       1.18753110      -0.08414748
C        1.09181605       0.89540834      -0.27918868
C        1.23006272      -0.48257206      -0.12181838
O        2.36223559      -1.22022903      -0.09927619
N        0.06749858      -1.10592575       0.09708805
H       -2.55226703      -0.54474211      -0.86250907
H       -2.62596567      -0.94797915       0.72195632
H       -0.73072235       2.15383442      -0.13073381
H        1.88976001       1.60319878      -0.45442580
H        3.11789912      -0.63923489      -0.20228192
H       -0.38271828      -0.63996031       1.16964168
13
Frame=1 idx=010019 GeodesicLength=0.0423995151762921 rxn_smarts="[N:1]([c:2]1[c:3]([H:10])[c:4]([H:11])[c:5]([O:6][H:12])[n:7]1[H:13])([H:8])[H:9]>>[N:1]([C@:2]1([H:13])[C:3]([H:10])=[C:4]([H:11])[C:5]([O:6][H:12])=[N:7]1)([H:8])[H:9]"
N       -2.29618182      -0.25411745       0.06377602
C       -0.91300210      -0.01402176       0.18469672
C       -0.25143342       1.18713988      -0.07864474
C        1.09092924       0.89700941      -0.28128539
C        1.23098706      -0.48245583      -0.12240876
O        2.36426113      -1.21787595      -0.09550784
N        0.07021139      -1.10304573       0.10350671
H       -2.54295389      -0.53731773      -0.87519547
H       -2.63832740      -0.93874392       0.72104039
H       -0.73141076       2.15296805      -0.12496167
H        1.88619915       1.60358424      -0.47257427
H        3.11848493      -0.63707300      -0.20967407
H       -0.38776349      -0.65605019       1.18723236
13
Frame=2 idx=010019 GeodesicLength=0.08467558217362767 rxn_smarts="[N:1]([c:2]1[c:3]([H:10])[c:4]([H:11])[c:5]([O:6][H:12])[n:7]1[H:13])([H:8])[H:9]>>[N:1]([C@:2]1([H:13])[C:3]([H:10])=[C:4]([H:11])[C:5]([O:6][H:12])=[N:7]1)([H:8])[H:9]"
N       -2.29160483      -0.26028541       0.05621687
C       -0.91064209      -0.01705431       0.19503846
C       -0.25106194       1.18658603      -0.07367067
C        1.08985448       0.89848230      -0.28422293
C        1.23183895      -0.48238603      -0.12356337
O        2.36628437      -1.21533922      -0.09192777
N        0.07302433      -1.10018245       0.10988099
H       -2.53358693      -0.52995859      -0.88744958
H       -2.65065135      -0.92846124       0.72063874
H       -0.73218422       2.15187843      -0.11965525
H        1.88256692       1.60405837      -0.48896791
H        3.11898252      -0.63478355      -0.21675491
H       -0.39282021      -0.67255432       1.20443734
13
Frame=3 idx=010019 GeodesicLength=0.12702323303197008 rxn_smarts="[N:1]([c:2]1[c:3]([H:10])[c:4]([H:11])[c:5]([O:6][H:12])[n:7]1[H:13])([H:8])[H:9]>>[N:1]([C@:2]1([H:13])[C:3]([H:10])=[C:4]([H:11])[C:5]([O:6][H:12])=[N:7]1)([H:8])[H:9]"
N       -2.28681797      -0.26676816       0.04879933
C       -0.90826095      -0.02021590       0.20532166
C       -0.25075189       1.18594064      -0.06892718
C        1.08864791       0.89987874      -0.28778235
C        1.23272282      -0.48237996      -0.12504729
O        2.36848769      -1.21264924      -0.08826659
N        0.07597597      -1.09740364       0.11630398
H       -2.52415311      -0.52242144      -0.89943119
H       -2.66311282      -0.91723934       0.72053402
H       -0.73312531       2.15067236      -0.11467779
H        1.87886204       1.60464391      -0.50441998
H        3.11956079      -0.63237236      -0.22377218
H       -0.39803518      -0.68968561       1.22136555
13
Frame=4 idx=010019 GeodesicLength=0.16935786222335616 rxn_smarts="[N:1]([c:2]1[c:3]([H:10])[c:4]([H:11])[c:5]([O:6][H:12])[n:7]1[H:13])([H:8])[H:9]>>[N:1]([C@:2]1([H:13])[C:3]([H:10])=[C:4]([H:11])[C:5]([O:6][H:12])=[N:7]1)([H:8])[H:9]"
N       -2.28171834      -0.27358855       0.04134653
C       -0.90581669      -0.02353685       0.21565059
C       -0.25043908       1.18519839      -0.06392857
C        1.08730907       0.90122413      -0.29147421
C        1.23363842      -0.48237565      -0.12653594
O        2.37084548      -1.20967048      -0.08419558
N        0.07908021      -1.09467815       0.12281294
H       -2.51441428      -0.51449240      -0.91138672
H       -2.67570544      -0.90505318       0.72035985
H       -0.73413491       2.14932514      -0.10931547
H        1.87474119       1.60508985      -0.52068408
H        3.12014622      -0.62977538      -0.23067726
H       -0.40353185      -0.70766686       1.23802792
13
Frame=5 idx=010019 GeodesicLength=0.21168563573795365 rxn_smarts="[N:1]([c:2]1[c:3]([H:10])[c:4]([H:11])[c:5]([O:6][H:12])[n:7]1[H:13])([H:8])[H:9]>>[N:1]([C@:2]1([H:13])[C:3]([H:10])=[C:4]([H:11])[C:5]([O:6][H:12])=[N:7]1)([H:8])[H:9]"
N       -2.27641721      -0.28082419       0.03450547
C       -0.90330086      -0.02701380       0.22566998
C       -0.25026200       1.18421741      -0.06008536
C        1.08561042       0.90226098      -0.29721009
C        1.23441990      -0.48258414      -0.12941188
O        2.37315882      -1.20671911      -0.08140966
N        0.08229060      -1.09207445       0.12900300
H       -2.50511481      -0.50669366      -0.92238115
H       -2.68819696      -0.89146162       0.72133512
H       -0.73538384       2.14766935      -0.10528278
H        1.87109998       1.60602474      -0.53301640
H        3.12081815      -0.62678029      -0.23581388
H       -0.40872219      -0.72602121       1.25409763
13
Frame=6 idx=010019 GeodesicLength=0.25399053451759734 rxn_smarts="[N:1]([c:2]1[c:3]([H:10])[c:4]([H:11])[c:5]([O:6][H:12])[n:7]1[H:13])([H:8])[H:9]>>[N:1]([C@:2]1([H:13])[C:3]([H:10])=[C:4]([H:11])[C:5]([O:6][H:12])=[N:7]1)([H:8])[H:9]"
N       -2.27090079      -0.28849922       0.02809881
C       -0.90070046      -0.03068151       0.23556086
C       -0.25016327       1.18302161      -0.05671825
C        1.08360564       0.90304992      -0.30428349
C        1.23513042      -0.48296230      -0.13320338
O        2.37550514      -1.20372764      -0.07949071
N        0.08564145      -1.08959771       0.13497074
H       -2.49605109      -0.49864079      -0.93272327
H       -2.70067688      -0.87652491       0.72295779
H       -0.73685717       2.14572078      -0.10196806
H        1.86761756       1.60722763      -0.54353919
H        3.12163657      -0.62329788      -0.23931717
H       -0.41378713      -0.74508797       1.26965533
13
Frame=7 idx=010019 GeodesicLength=0.2963319332050323 rxn_smarts="[N:1]([c:2]1[c:3]([H:10])[c:4]([H:11])[c:5]([O:6][H:12])[n:7]1[H:13])([H:8])[H:9]>>[N:1]([C@:2]1([H:13])[C:3]([H:10])=[C:4]([H:11])[C:5]([O:6][H:12])=[N:7]1)([H:8])[H:9]"
N       -2.26511341      -0.29668025       0.02191998
C       -0.89800216      -0.03458990       0.24543393
C       -0.25008287       1.18165342      -0.05336763
C        1.08133668       0.90365983      -0.31217211
C        1.23583448      -0.48345650      -0.13751207
O        2.37797849      -1.20057947      -0.07787086
N        0.08917518      -1.08726994       0.14082684
H       -2.48700549      -0.49015939      -0.94268459
H       -2.71327528      -0.86014521       0.72488454
H       -0.73851862       2.14350194      -0.09883707
H        1.86399503       1.60849959      -0.55370160
H        3.12259674      -0.61931469      -0.24168258
H       -0.41891879      -0.76511944       1.28476321
13
Frame=8 idx=010019 GeodesicLength=0.33872077344672336 rxn_smarts="[N:1]([c:2]1[c:3]([H:10])[c:4]([H:11])[c:5]([O:6][H:12])[n:7]1[H:13])([H:8])[H:9]>>[N:1]([C@:2]1([H:13])[C:3]([H:10])=[C:4]([H:11])[C:5]([O:6][H:12])=[N:7]1)([H:8])[H:9]"
N       -2.25896206      -0.30545062       0.01557650
C       -0.89521770      -0.03877858       0.25549795
C       -0.24997706       1.18015177      -0.04931294
C        1.07890463       0.90421563      -0.31986686
C        1.23667031      -0.48393885      -0.14140869
O        2.38077949      -1.19699366      -0.07527161
N        0.09297442      -1.08505573       0.14699441
H       -2.47750638      -0.48101514      -0.95275847
H       -2.72618255      -0.84229150       0.72639047
H       -0.74038418       2.14101449      -0.09532874
H        1.85979873       1.60959733      -0.56532544
H        3.12361922      -0.61510922      -0.24483815
H       -0.42451688      -0.78634590       1.29965158
13
Frame=9 idx=010019 GeodesicLength=0.3814589687457779 rxn_smarts="[N:1]([c:2]1[c:3]([H:10])[c:4]([H:11])[c:5]([O:6][H:12])[n:7]1[H:13])([H:8])[H:9]>>[N:1]([C@:2]1([H:13])[C:3]([H:10])=[C:4]([H:11])[C:5]([O:6][H:12])=[N:7]1)([H:8])[H:9]"
N       -2.25239059      -0.31488525       0.00887895
C       -0.89237427      -0.04327654       0.26596230
C       -0.24981151       1.17858985      -0.04389922
C        1.07636048       0.90479049      -0.32675803
C        1.23777119      -0.48434439      -0.14422667
O        2.38413688      -1.19269577      -0.07061916
N        0.09710632      -1.08296831       0.15376419
H       -2.46720426      -0.47075943      -0.96331439
H       -2.73949515      -0.82306388       0.72677761
H       -0.74250455       2.13831967      -0.09096170
H        1.85462535       1.61026618      -0.58006542
H        3.12470746      -0.61089390      -0.25010063
H       -0.43092736      -0.80907872       1.31456216
13
Frame=10 idx=010019 GeodesicLength=0.4238817197725746 rxn_smarts="[N:1]([c:2]1[c:3]([H:10])[c:4]([H:11])[c:5]([O:6][H:12])[n:7]1[H:13])([H:8])[H:9]>>[N:1]([C@:2]1([H:13])[C:3]([H:10])=[C:4]([H:11])[C:5]([O:6][H:12])=[N:7]1)([H:8])[H:9]"
N       -2.24529800      -0.32506399       0.00185279
C       -0.88938222      -0.04823023       0.27666048
C       -0.24953853       1.17677142      -0.03743256
C        1.07356518       0.90524426      -0.33344977
C        1.23902513      -0.48470500      -0.14655234
O        2.38788034      -1.18774554      -0.06486362
N        0.10156917      -1.08104438       0.16085974
H       -2.45633910      -0.45957801      -0.97390625
H       -2.75316528      -0.80176461       0.72647593
H       -0.74471593       2.13518665      -0.08541550
H        1.84834307       1.61047408      -0.59765172
H        3.12585521      -0.60621607      -0.25550942
H       -0.43779903      -0.83332859       1.32893222
13
Frame=11 idx=010019 GeodesicLength=0.46643849675449073 rxn_smarts="[N:1]([c:2]1[c:3]([H:10])[c:4]([H:11])[c:5]([O:6][H:12])[n:7]1[H:13])([H:8])[H:9]>>[N:1]([C@:2]1([H:13])[C:3]([H:10])=[C:4]([H:11])[C:5]([O:6][H:12])=[N:7]1)([H:8])[H:9]"
N       -2.23777101      -0.33605791      -0.00520787
C       -0.88626680      -0.05367334       0.28761060
C       -0.24919408       1.17472979      -0.02992670
C        1.07046690       0.90553510      -0.34029273
C        1.24047258      -0.48513627      -0.14867821
O        2.39210644      -1.18222141      -0.05835057
N        0.10638968      -1.07940726       0.16812626
H       -2.44508028      -0.44707697      -0.98430875
H       -2.76703781      -0.77835001       0.72547630
H       -0.74718406       2.13167390      -0.07901834
H        1.84095464       1.61023453      -0.61792344
H        3.12725776      -0.60092403      -0.26026917
H       -0.44511396      -0.85932614       1.34276262
13
Frame=12 idx=010019 GeodesicLength=0.509037578123101 rxn_smarts="[N:1]([c:2]1[c:3]([H:10])[c:4]([H:11])[c:5]([O:6][H:12])[n:7]1[H:13])([H:8])[H:9]>>[N:1]([C@:2]1([H:13])[C:3]([H:10])=[C:4]([H:11])[C:5]([O:6][H:12])=[N:7]1)([H:8])[H:9]"
N       -2.22978819      -0.34796920      -0.01222095
C       -0.88301261      -0.05964737       0.29881540
C       -0.24877210       1.17239414      -0.02149601
C        1.06698300       0.90558209      -0.34750954
C        1.24209886      -0.48566175      -0.15065896
O        2.39680703      -1.17605351      -0.05109582
N        0.11159104      -1.07806434       0.17564043
H       -2.43350134      -0.43317236      -0.99427577
H       -2.78097693      -0.75258737       0.72364680
H       -0.74995342       2.12765103      -0.07205925
H        1.83245574       1.60954645      -0.64026936
H        3.12887841      -0.59496851      -0.26449484
H       -0.45280950      -0.88704929       1.35597786
13
Frame=13 idx=010019 GeodesicLength=0.5517562350730336 rxn_smarts="[N:1]([c:2]1[c:3]([H:10])[c:4]([H:11])[c:5]([O:6][H:12])[n:7]1[H:13])([H:8])[H:9]>>[N:1]([C@:2]1([H:13])[C:3]([H:10])=[C:4]([H:11])[C:5]([O:6][H:12])=[N:7]1)([H:8])[H:9]"
N       -2.22130570      -0.36085611      -0.01924331
C       -0.87960757      -0.06615118       0.31028805
C       -0.24826622       1.16975548      -0.01212632
C        1.06310206       0.90540407      -0.35486664
C        1.24390172      -0.48623589      -0.15226743
O        2.40198749      -1.16912290      -0.04282176
N        0.11720738      -1.07697073       0.18362705
H       -2.42147823      -0.41793445      -1.00374163
H       -2.79487625      -0.72437585       0.72064174
H       -0.75304009       2.12306647      -0.06463263
H        1.82273897       1.60836933      -0.66452148
H        3.13060249      -0.58852912      -0.26899883
H       -0.46096605      -0.91641912       1.36866321
13
Frame=14 idx=010019 GeodesicLength=0.5945575466004325 rxn_smarts="[N:1]([c:2]1[c:3]([H:10])[c:4]([H:11])[c:5]([O:6][H:12])[n:7]1[H:13])([H:8])[H:9]>>[N:1]([C@:2]1([H:13])[C:3]([H:10])=[C:4]([H:11])[C:5]([O:6][H:12])=[N:7]1)([H:8])[H:9]"
N       -2.21246436      -0.37469922      -0.02594676
C       -0.87607569      -0.07316010       0.32190443
C       -0.24773230       1.16675984      -0.00236696
C        1.05873969       0.90488544      -0.36294790
C        1.24579951      -0.48696366      -0.15402998
O        2.40751406      -1.16163587      -0.03436017
N        0.12319539      -1.07613916       0.19194841
H       -2.40936783      -0.40157819      -1.01213331
H       -2.80841104      -0.69357903       0.71661337
H       -0.75650733       2.11786641      -0.05730436
H        1.81218250       1.60689850      -0.68924642
H        3.13249256      -0.58139041      -0.27278829
H       -0.46936515      -0.94726454       1.38065795
13
Frame=15 idx=010019 GeodesicLength=0.6374348664265456 rxn_smarts="[N:1]([c:2]1[c:3]([H:10])[c:4]([H:11])[c:5]([O:6][H:12])[n:7]1[H:13])([H:8])[H:9]>>[N:1]([C@:2]1([H:13])[C:3]([H:10])=[C:4]([H:11])[C:5]([O:6][H:12])=[N:7]1)([H:8])[H:9]"
N       -2.20334381      -0.38926490      -0.03228726
C       -0.87245413      -0.08054529       0.33370279
C       -0.24715334       1.16348224       0.00771249
C        1.05389043       0.90403368      -0.37164746
C        1.24772838      -0.48782959      -0.15584461
O        2.41328701      -1.15360201      -0.02566531
N        0.12949885      -1.07546770       0.20080221
H       -2.39706141      -0.38440001      -1.01927509
H       -2.82127993      -0.66058660       0.71109036
H       -0.76024752       2.11217294      -0.04996371
H        1.80080667       1.60508582      -0.71441657
H        3.13443518      -0.57369522      -0.27623088
H       -0.47810639      -0.97938337       1.39202303
13
Frame=16 idx=010019 GeodesicLength=0.6803868684988098 rxn_smarts="[N:1]([c:2]1[c:3]([H:10])[c:4]([H:11])[c:5]([O:6][H:12])[n:7]1[H:13])([H:8])[H:9]>>[N:1]([C@:2]1([H:13])[C:3]([H:10])=[C:4]([H:11])[C:5]([O:6][H:12])=[N:7]1)([H:8])[H:9]"
N       -2.19408163      -0.40413175      -0.03816360
C       -0.86879800      -0.08809038       0.34570278
C       -0.24651085       1.16004714       0.01791302
C        1.04855785       0.90285418      -0.38098286
C        1.24957717      -0.48883272      -0.15774268
O        2.41912683      -1.14513188      -0.01693387
N        0.13600815      -1.07480842       0.21033632
H       -2.38446661      -0.36696143      -1.02501824
H       -2.83314499      -0.62604095       0.70375965
H       -0.76407831       2.10621069      -0.04250272
H        1.78876860       1.60293104      -0.73974433
H        3.13630561      -0.56557876      -0.27943266
H       -0.48726382      -1.01246676       1.40280920
