11
Frame=0 idx=004500 GeodesicLength=0.0 rxn_smarts="[C:1]([C@@:2]([C:3](=[O:4])[H:11])([C:5]#[N:6])[H:10])([H:7])([H:8])[H:9]>>[C:1]([C:2](=[C:5]=[N:6][C:3](=[O:4])[H:11])[H:10])([H:7])([H:8])[H:9]"
C       -1.07783408      -0.73528243       0.66471531
C       -0.01213530       0.31500139       0.72497159
C        1.15459749       0.11543121      -1.08292273
O        0.70014652      -0.66304030      -1.83457686
C        0.09185999       1.30805952      -0.20492395
N        0.49736606       1.89371559      -1.16293700
H       -2.07382083      -0.33420901       0.86187491
H       -1.09320525      -1.20188608      -0.32551098
H       -0.87351905      -1.50923027       1.40341444
H        0.55577329       0.46642040       1.63534690
H        2.13077113       0.34501995      -0.67945159
11
Frame=1 idx=004500 GeodesicLength=0.06567086694160465 rxn_smarts="[C:1]([C@@:2]([C:3](=[O:4])[H:11])([C:5]#[N:6])[H:10])([H:7])([H:8])[H:9]>>[C:1]([C:2](=[C:5]=[N:6][C:3](=[O:4])[H:11])[H:10])([H:7])([H:8])[H:9]"
C       -1.08571200      -0.73331812       0.66614428
C       -0.01260529       0.31091176       0.71869056
C        1.16962936       0.11194500      -1.08082970
O        0.73788365      -0.68345637      -1.83022116
C        0.07648110       1.31327150      -0.20441705
N        0.48706781       1.88933337      -1.16561978
H       -2.07215796      -0.33013976       0.90260861
H       -1.13403574      -1.17753991      -0.33289212
H       -0.86316580      -1.52489682       1.38057570
H        0.54861681       0.46948766       1.63230230
H        2.14799806       0.35440168      -0.68634165
11
Frame=2 idx=004500 GeodesicLength=0.1311214744883163 rxn_smarts="[C:1]([C@@:2]([C:3](=[O:4])[H:11])([C:5]#[N:6])[H:10])([H:7])([H:8])[H:9]>>[C:1]([C:2](=[C:5]=[N:6][C:3](=[O:4])[H:11])[H:10])([H:7])([H:8])[H:9]"
C       -1.09348682      -0.73132872       0.66750612
C       -0.01324532       0.30704380       0.71231486
C        1.18445198       0.10848962      -1.07883886
O        0.77520877      -0.70350908      -1.82517537
C        0.06087701       1.31874648      -0.20365103
N        0.47689222       1.88489995      -1.16797484
H       -2.06941278      -0.32697548       0.94213667
H       -1.17405698      -1.15324353      -0.33871311
H       -0.85395495      -1.53974162       1.35724759
H        0.54165679       0.47218656       1.62895852
H        2.16507009       0.36343203      -0.69381054
11
Frame=3 idx=004500 GeodesicLength=0.19638324021120906 rxn_smarts="[C:1]([C@@:2]([C:3](=[O:4])[H:11])([C:5]#[N:6])[H:10])([H:7])([H:8])[H:9]>>[C:1]([C:2](=[C:5]=[N:6][C:3](=[O:4])[H:11])[H:10])([H:7])([H:8])[H:9]"
C       -1.10118422      -0.72934076       0.66885542
C       -0.01403858       0.30333138       0.70579828
C        1.19910260       0.10506587      -1.07698835
O        0.81223580      -0.72305833      -1.81970657
C        0.04499778       1.32444646      -0.20264811
N        0.46689711       1.88047276      -1.16991495
H       -2.06571416      -0.32462132       0.98039743
H       -1.21324679      -1.12921009      -0.34297047
H       -0.84594110      -1.55368871       1.33374307
H        0.53488454       0.47449901       1.62528651
H        2.18200702       0.37210374      -0.70185225
11
Frame=4 idx=004500 GeodesicLength=0.26204798386842565 rxn_smarts="[C:1]([C@@:2]([C:3](=[O:4])[H:11])([C:5]#[N:6])[H:10])([H:7])([H:8])[H:9]>>[C:1]([C:2](=[C:5]=[N:6][C:3](=[O:4])[H:11])[H:10])([H:7])([H:8])[H:9]"
C       -1.10892464      -0.72732288       0.67024608
C       -0.01503471       0.29974858       0.69916925
C        1.21382417       0.10163030      -1.07529405
O        0.84942264      -0.74225714      -1.81388628
C        0.02874442       1.33038105      -0.20147742
N        0.45690188       1.87599302      -1.17167427
H       -2.06122862      -0.32298573       1.01792146
H       -1.25205393      -1.10514048      -0.34585753
H       -0.83897000      -1.56700385       1.30990009
H        0.52824840       0.47641270       1.62143099
H        2.19907040       0.38054442      -0.71047830
11
Frame=5 idx=004500 GeodesicLength=0.32657319147829433 rxn_smarts="[C:1]([C@@:2]([C:3](=[O:4])[H:11])([C:5]#[N:6])[H:10])([H:7])([H:8])[H:9]>>[C:1]([C:2](=[C:5]=[N:6][C:3](=[O:4])[H:11])[H:10])([H:7])([H:8])[H:9]"
C       -1.11657253      -0.72522874       0.67145734
C       -0.01627356       0.29648634       0.69213614
C        1.22840185       0.09808998      -1.07327741
O        0.88651410      -0.76133782      -1.80690671
C        0.01229086       1.33641865      -0.20027577
N        0.44714058       1.87108599      -1.17315340
H       -2.05533376      -0.32241110       1.05520029
H       -1.29104067      -1.08051273      -0.34740300
H       -0.83253299      -1.57982871       1.28463363
H        0.52158577       0.47836829       1.61687316
H        2.21582036       0.38886985      -0.71928428
11
Frame=6 idx=004500 GeodesicLength=0.39178636443146586 rxn_smarts="[C:1]([C@@:2]([C:3](=[O:4])[H:11])([C:5]#[N:6])[H:10])([H:7])([H:8])[H:9]>>[C:1]([C:2](=[C:5]=[N:6][C:3](=[O:4])[H:11])[H:10])([H:7])([H:8])[H:9]"
C       -1.12436193      -0.72310155       0.67277081
C       -0.01778071       0.29333901       0.68494182
C        1.24325892       0.09449488      -1.07139937
O        0.92414132      -0.78011012      -1.79964391
C       -0.00460951       1.34268562      -0.19900672
N        0.43733765       1.86608495      -1.17461979
H       -2.04874782      -0.32254711       1.09216619
H       -1.33005303      -1.05562599      -0.34764979
H       -0.82701818      -1.59221222       1.25891830
H        0.51497071       0.47994270       1.61216741
H        2.23286259       0.39704981      -0.72864497
11
Frame=7 idx=004500 GeodesicLength=0.4565956097980649 rxn_smarts="[C:1]([C@@:2]([C:3](=[O:4])[H:11])([C:5]#[N:6])[H:10])([H:7])([H:8])[H:9]>>[C:1]([C:2](=[C:5]=[N:6][C:3](=[O:4])[H:11])[H:10])([H:7])([H:8])[H:9]"
C       -1.13216596      -0.72091722       0.67405826
C       -0.01940513       0.29022129       0.67742239
C        1.25814852       0.09087450      -1.06945891
O        0.96207018      -0.79851689      -1.79188223
C       -0.02182006       1.34901478      -0.19755068
N        0.42745747       1.86079434      -1.17568185
H       -2.04108328      -0.32327780       1.12827113
H       -1.36893689      -1.03081524      -0.34637610
H       -0.82268100      -1.60379257       1.23273258
H        0.50859783       0.48115137       1.60692582
H        2.24981831       0.40526346      -0.73846041
11
Frame=8 idx=004500 GeodesicLength=0.5213184634370113 rxn_smarts="[C:1]([C@@:2]([C:3](=[O:4])[H:11])([C:5]#[N:6])[H:10])([H:7])([H:8])[H:9]>>[C:1]([C:2](=[C:5]=[N:6][C:3](=[O:4])[H:11])[H:10])([H:7])([H:8])[H:9]"
C       -1.14008693      -0.71870914       0.67541396
C       -0.02124263       0.28715043       0.66955469
C        1.27324908       0.08723451      -1.06752075
O        1.00051279      -0.81649241      -1.78371645
C       -0.03939258       1.35543506      -0.19604822
N        0.41763265       1.85529557      -1.17653165
H       -2.03252516      -0.32472601       1.16385881
H       -1.40790786      -1.00588749      -0.34355629
H       -0.81943333      -1.61476943       1.20610305
H        0.50232197       0.48199833       1.60117960
H        2.26687200       0.41347059      -0.74873674
11
Frame=9 idx=004500 GeodesicLength=0.5861240632105004 rxn_smarts="[C:1]([C@@:2]([C:3](=[O:4])[H:11])([C:5]#[N:6])[H:10])([H:7])([H:8])[H:9]>>[C:1]([C:2](=[C:5]=[N:6][C:3](=[O:4])[H:11])[H:10])([H:7])([H:8])[H:9]"
C       -1.14814104      -0.71643615       0.67679832
C       -0.02333977       0.28416810       0.66132082
C        1.28865742       0.08349862      -1.06550127
O        1.03966547      -0.83420919      -1.77500481
C       -0.05736660       1.36195713      -0.19453215
N        0.40771854       1.84945394      -1.17730527
H       -2.02297451      -0.32689903       1.19929522
H       -1.44730395      -0.98052778      -0.33932172
H       -0.81709431      -1.62530576       1.17866267
H        0.49610515       0.48255735       1.59500030
H        2.28407359       0.42174278      -0.75941211
11
Frame=10 idx=004500 GeodesicLength=0.6508835867818373 rxn_smarts="[C:1]([C@@:2]([C:3](=[O:4])[H:11])([C:5]#[N:6])[H:10])([H:7])([H:8])[H:9]>>[C:1]([C:2](=[C:5]=[N:6][C:3](=[O:4])[H:11])[H:10])([H:7])([H:8])[H:9]"
C       -1.15633817      -0.71410600       0.67822260
C       -0.02567502       0.28121976       0.65267194
C        1.30438150       0.07969849      -1.06340463
O        1.07955954      -0.85158742      -1.76577525
C       -0.07572079       1.36854302      -0.19299884
N        0.39773102       1.84326695      -1.17793524
H       -2.01240621      -0.32977103       1.23440998
H       -1.48708380      -0.95485583      -0.33352017
H       -0.81583050      -1.63531504       1.15053315
H        0.48998744       0.48278020       1.58829567
H        2.30139498       0.43012691      -0.77049920
11
Frame=11 idx=004500 GeodesicLength=0.7155658691894559 rxn_smarts="[C:1]([C@@:2]([C:3](=[O:4])[H:11])([C:5]#[N:6])[H:10])([H:7])([H:8])[H:9]>>[C:1]([C:2](=[C:5]=[N:6][C:3](=[O:4])[H:11])[H:10])([H:7])([H:8])[H:9]"
C       -1.16468562      -0.71172056       0.67970352
C       -0.02823894       0.27826704       0.64357249
C        1.32044416       0.07585394      -1.06125630
O        1.12022663      -0.86854597      -1.75611167
C       -0.09445157       1.37516302      -0.19144249
N        0.38769136       1.83675480      -1.17836197
H       -2.00085530      -0.33331000       1.26904175
H       -1.52719173      -0.92899935      -0.32602887
H       -0.81577130      -1.64472006       1.12187346
H        0.48399824       0.48262259       1.58101469
H        2.31883407       0.43863455      -0.78200461
11
Frame=12 idx=004500 GeodesicLength=0.7801726150131922 rxn_smarts="[C:1]([C@@:2]([C:3](=[O:4])[H:11])([C:5]#[N:6])[H:10])([H:7])([H:8])[H:9]>>[C:1]([C:2](=[C:5]=[N:6][C:3](=[O:4])[H:11])[H:10])([H:7])([H:8])[H:9]"
C       -1.17323320      -0.70933522       0.68127761
C       -0.03104084       0.27521282       0.63397103
C        1.33689969       0.07197568      -1.05907193
O        1.16173574      -0.88494318      -1.74618405
C       -0.11357813       1.38176161      -0.18987589
N        0.37761009       1.82993716      -1.17854701
H       -1.98836965      -0.33731421       1.30314037
H       -1.56754206      -0.90308017      -0.31690491
H       -0.81702665      -1.65351472       1.09299870
H        0.47813875       0.48199938       1.57312125
H        2.33640626       0.44730085      -0.79392517
11
Frame=13 idx=004500 GeodesicLength=0.8447282866936952 rxn_smarts="[C:1]([C@@:2]([C:3](=[O:4])[H:11])([C:5]#[N:6])[H:10])([H:7])([H:8])[H:9]>>[C:1]([C:2](=[C:5]=[N:6][C:3](=[O:4])[H:11])[H:10])([H:7])([H:8])[H:9]"
C       -1.18195607      -0.70685875       0.68287354
C       -0.03410458       0.27215889       0.62383318
C        1.35380526       0.06805530      -1.05677684
O        1.20416734      -0.90101275      -1.73559892
C       -0.13307249       1.38836903      -0.18834179
N        0.36741066       1.82269392      -1.17861691
H       -1.97479571      -0.34207919       1.33692194
H       -1.60852216      -0.87678746      -0.30593783
H       -0.81947849      -1.66173942       1.06327341
H        0.47240402       0.48101347       1.56458723
H        2.35414222       0.45618696      -0.80621702
11
Frame=14 idx=004500 GeodesicLength=0.9091513914842992 rxn_smarts="[C:1]([C@@:2]([C:3](=[O:4])[H:11])([C:5]#[N:6])[H:10])([H:7])([H:8])[H:9]>>[C:1]([C:2](=[C:5]=[N:6][C:3](=[O:4])[H:11])[H:10])([H:7])([H:8])[H:9]"
C       -1.19088580      -0.70435723       0.68455447
C       -0.03746327       0.26897517       0.61311657
C        1.37115090       0.06408377      -1.05440055
O        1.24756298      -0.91650693      -1.72465112
C       -0.15296175       1.39491240      -0.18684799
N        0.35713694       1.81508893      -1.17845153
H       -1.96016799      -0.34733540       1.37012694
H       -1.64974472      -0.85024945      -0.29315249
H       -0.82332652      -1.66940571       1.03326560
H        0.46675206       0.47954081       1.55532666
H        2.37194717       0.46525365      -0.81888655
11
Frame=15 idx=004500 GeodesicLength=0.973545333062678 rxn_smarts="[C:1]([C@@:2]([C:3](=[O:4])[H:11])([C:5]#[N:6])[H:10])([H:7])([H:8])[H:9]>>[C:1]([C:2](=[C:5]=[N:6][C:3](=[O:4])[H:11])[H:10])([H:7])([H:8])[H:9]"
C       -1.20006063      -0.70178678       0.68627012
C       -0.04112265       0.26571637       0.60179116
C        1.38904338       0.06008471      -1.05188940
O        1.29204641      -0.93161662      -1.71297777
C       -0.17319454       1.40141189      -0.18543939
N        0.34671055       1.80700913      -1.17823064
H       -1.94436241      -0.35332032       1.40302534
H       -1.69161372      -0.82323808      -0.27838838
H       -0.82859421      -1.67656245       1.00244101
H        0.46122120       0.47764806       1.54535984
H        2.38992661       0.47465410      -0.83196189
11
Frame=16 idx=004500 GeodesicLength=1.0378708279274398 rxn_smarts="[C:1]([C@@:2]([C:3](=[O:4])[H:11])([C:5]#[N:6])[H:10])([H:7])([H:8])[H:9]>>[C:1]([C:2](=[C:5]=[N:6][C:3](=[O:4])[H:11])[H:10])([H:7])([H:8])[H:9]"
C       -1.20948211      -0.69913371       0.68800451
C       -0.04513318       0.26239165       0.58981305
C        1.40750487       0.05604506      -1.04918572
O        1.33767939      -0.94638492      -1.70039387
C       -0.19377035       1.40784527      -0.18419419
N        0.33612514       1.79840454      -1.17801805
H       -1.92719627      -0.36019098       1.43568941
H       -1.73418331      -0.79553481      -0.26146934
H       -0.83531764      -1.68320696       0.97054720
H        0.45574003       0.47536219       1.53461851
H        2.40803342       0.48440268      -0.84541153
