11
Frame=0 idx=002842 GeodesicLength=0.0 rxn_smarts="[C:1]([c:2]1[n:3][o:4][c:5]([H:10])[c:6]1[H:11])([H:7])([H:8])[H:9]>>[C:1]([C:2]([N:3]=[O:4])=[C:6]=[C:5]([H:10])[H:11])([H:7])([H:8])[H:9]"
C       -1.80511809      -0.08547247       0.15565601
C       -0.31675969      -0.12586961       0.09699392
N        0.31472883      -1.25890268       0.19327412
O        1.64214839      -1.03388329       0.12052973
C        1.79752090       0.34004203      -0.06763515
C        0.56387646       1.03966867       0.00098169
H       -2.21526575      -1.08222272       0.31024333
H       -2.12724242       0.56779714       0.96734322
H       -2.20472912       0.32836154      -0.77122726
H        2.79326566       0.69582264       0.16476712
H        1.55757485       0.61465878      -1.17092669
11
Frame=1 idx=002842 GeodesicLength=0.10820120310935881 rxn_smarts="[C:1]([c:2]1[n:3][o:4][c:5]([H:10])[c:6]1[H:11])([H:7])([H:8])[H:9]>>[C:1]([C:2]([N:3]=[O:4])=[C:6]=[C:5]([H:10])[H:11])([H:7])([H:8])[H:9]"
C       -1.80419395      -0.08426220       0.15697459
C       -0.31582162      -0.13028793       0.10610334
N        0.31058489      -1.27308730       0.18724694
O        1.63476145      -1.05650834       0.10137276
C        1.80497811       0.34404653      -0.06951903
C        0.56873115       1.02435324       0.00945863
H       -2.21819614      -1.07439839       0.34140791
H       -2.12929378       0.59331259       0.94718204
H       -2.19945534       0.30003231      -0.78440464
H        2.79695131       0.69851152       0.17906480
H        1.55095392       0.65828797      -1.17488733
11
Frame=2 idx=002842 GeodesicLength=0.2163932312596946 rxn_smarts="[C:1]([c:2]1[n:3][o:4][c:5]([H:10])[c:6]1[H:11])([H:7])([H:8])[H:9]>>[C:1]([C:2]([N:3]=[O:4])=[C:6]=[C:5]([H:10])[H:11])([H:7])([H:8])[H:9]"
C       -1.80310559      -0.08306249       0.15817067
C       -0.31478133      -0.13504624       0.11464845
N        0.30620031      -1.28749634       0.18165626
O        1.62696329      -1.07946332       0.08258899
C        1.81255804       0.34805631      -0.07189884
C        0.57374900       1.00859771       0.01720017
H       -2.22104848      -1.06556076       0.37256764
H       -2.13053732       0.61846389       0.92611459
H       -2.19434723       0.27113082      -0.79662513
H        2.80042249       0.70106390       0.19335276
H        1.54392681       0.70331652      -1.17777557
11
Frame=3 idx=002842 GeodesicLength=0.32457377111955105 rxn_smarts="[C:1]([c:2]1[n:3][o:4][c:5]([H:10])[c:6]1[H:11])([H:7])([H:8])[H:9]>>[C:1]([C:2]([N:3]=[O:4])=[C:6]=[C:5]([H:10])[H:11])([H:7])([H:8])[H:9]"
C       -1.80185131      -0.08187147       0.15923293
C       -0.31364090      -0.14014549       0.12249996
N        0.30157377      -1.30215394       0.17656065
O        1.61876375      -1.10280876       0.06438216
C        1.82027324       0.35207920      -0.07483758
C        0.57893678       0.99238197       0.02403976
H       -2.22379313      -1.05571203       0.40359936
H       -2.13090355       0.64314344       0.90423608
H       -2.18951328       0.24178568      -0.80781057
H        2.80364730       0.70351095       0.20760041
H        1.53650732       0.74979045      -1.17950317
11
Frame=4 idx=002842 GeodesicLength=0.43273988030091154 rxn_smarts="[C:1]([c:2]1[n:3][o:4][c:5]([H:10])[c:6]1[H:11])([H:7])([H:8])[H:9]>>[C:1]([C:2]([N:3]=[O:4])=[C:6]=[C:5]([H:10])[H:11])([H:7])([H:8])[H:9]"
C       -1.80042864      -0.08068667       0.16014838
C       -0.31240028      -0.14558593       0.12954898
N        0.29670381      -1.31708878       0.17200846
O        1.61017962      -1.12661976       0.04696282
C        1.82813743       0.35612106      -0.07840851
C        0.58430448       0.97568453       0.02982535
H       -2.22639743      -1.04486162       0.43439122
H       -2.13034025       0.66726116       0.88163735
H       -2.18504770       0.21211897      -0.81790762
H        2.80659579       0.70587887       0.22175417
H        1.52869316       0.79777817      -1.17996061
11
Frame=5 idx=002842 GeodesicLength=0.5408910227217999 rxn_smarts="[C:1]([c:2]1[n:3][o:4][c:5]([H:10])[c:6]1[H:11])([H:7])([H:8])[H:9]>>[C:1]([C:2]([N:3]=[O:4])=[C:6]=[C:5]([H:10])[H:11])([H:7])([H:8])[H:9]"
C       -1.79883195      -0.07950621       0.16090028
C       -0.31105456      -0.15136868       0.13572881
N        0.29158566      -1.33233719       0.16804091
O        1.60122854      -1.15099090       0.03048313
C        1.83616608       0.36018310      -0.08269778
C        0.58986924       0.95847912       0.03445446
H       -2.22882277      -1.03301127       0.46489533
H       -2.12882113       0.69078375       0.85835088
H       -2.18101797       0.18218928      -0.82690846
H        2.80924697       0.70816783       0.23574004
H        1.52045189       0.84741116      -1.17898760
11
Frame=6 idx=002842 GeodesicLength=0.6490219307631033 rxn_smarts="[C:1]([c:2]1[n:3][o:4][c:5]([H:10])[c:6]1[H:11])([H:7])([H:8])[H:9]>>[C:1]([C:2]([N:3]=[O:4])=[C:6]=[C:5]([H:10])[H:11])([H:7])([H:8])[H:9]"
C       -1.79705534      -0.07832676       0.16147324
C       -0.30959987      -0.15749839       0.14096026
N        0.28621341      -1.34793406       0.16467635
O        1.59193591      -1.17601861       0.01516838
C        1.84437188       0.36426827      -0.08780274
C        0.59564433       0.94073643       0.03778076
H       -2.23103008      -1.02016968       0.49503338
H       -2.12631617       0.71365654       0.83444232
H       -2.17749231       0.15209089      -0.83479310
H        2.81157322       0.71038959       0.24946076
H        1.51175500       0.89880576      -1.17639961
11
Frame=7 idx=002842 GeodesicLength=0.7571312150384295 rxn_smarts="[C:1]([c:2]1[n:3][o:4][c:5]([H:10])[c:6]1[H:11])([H:7])([H:8])[H:9]>>[C:1]([C:2]([N:3]=[O:4])=[C:6]=[C:5]([H:10])[H:11])([H:7])([H:8])[H:9]"
C       -1.79508918      -0.07714632       0.16184757
C       -0.30802750      -0.16398340       0.14519561
N        0.28057454      -1.36391926       0.16193418
O        1.58232502      -1.20181318       0.00117968
C        1.85276947       0.36837590      -0.09383874
C        0.60164746       0.92242037       0.03969047
H       -2.23297296      -1.00632884       0.52479693
H       -2.12281055       0.73588065       0.80990648
H       -2.17452141       0.12184496      -0.84157708
H        2.81355728       0.71252494       0.26280289
H        1.50254781       0.95214417      -1.17193799
11
Frame=8 idx=002842 GeodesicLength=0.8652367873162967 rxn_smarts="[C:1]([c:2]1[n:3][o:4][c:5]([H:10])[c:6]1[H:11])([H:7])([H:8])[H:9]>>[C:1]([C:2]([N:3]=[O:4])=[C:6]=[C:5]([H:10])[H:11])([H:7])([H:8])[H:9]"
C       -1.79292903      -0.07596660       0.16199666
C       -0.30633472      -0.17083993       0.14839718
N        0.27466245      -1.38033146       0.15985245
O        1.57240384      -1.22849713      -0.01135379
C        1.86137024       0.37250360      -0.10093836
C        0.60791457       0.90349453       0.04007087
H       -2.23460755      -0.99145368       0.55422049
H       -2.11831522       0.75747734       0.78468841
H       -2.17213868       0.09141587      -0.84728969
H        2.81519660       0.71452840       0.27560397
H        1.49277750       1.00766904      -1.16524819
11
Frame=9 idx=002842 GeodesicLength=0.9732799122925422 rxn_smarts="[C:1]([c:2]1[n:3][o:4][c:5]([H:10])[c:6]1[H:11])([H:7])([H:8])[H:9]>>[C:1]([C:2]([N:3]=[O:4])=[C:6]=[C:5]([H:10])[H:11])([H:7])([H:8])[H:9]"
C       -1.79053488      -0.07477656       0.16190101
C       -0.30449151      -0.17807103       0.15047750
N        0.26844650      -1.39721492       0.15841423
O        1.56221742      -1.25616124      -0.02227710
C        1.87017574       0.37666191      -0.10925067
C        0.61441167       0.88388804       0.03871201
H       -2.23584143      -0.97551718       0.58334075
H       -2.11274918       0.77849331       0.75874285
H       -2.17040993       0.06079706      -0.85193240
H        2.81642794       0.71637897       0.28778610
H        1.48234765       1.06552165      -1.15591427
11
Frame=10 idx=002842 GeodesicLength=1.081304100123951 rxn_smarts="[C:1]([c:2]1[n:3][o:4][c:5]([H:10])[c:6]1[H:11])([H:7])([H:8])[H:9]>>[C:1]([C:2]([N:3]=[O:4])=[C:6]=[C:5]([H:10])[H:11])([H:7])([H:8])[H:9]"
C       -1.78792024      -0.07358175       0.16153770
C       -0.30251077      -0.18570598       0.15134051
N        0.26191239      -1.41460323       0.15762180
O        1.55177902      -1.28491781      -0.03128607
C        1.87920228       0.38085942      -0.11894560
C        0.62118350       0.86356482       0.03532102
H       -2.23663382      -0.95849605       0.61214208
H       -2.10612652       0.79889029       0.73208377
H       -2.16941796       0.03001792      -0.85549191
H        2.81725647       0.71805976       0.29912072
H        1.47127566       1.12591262      -1.14344401
11
Frame=11 idx=002842 GeodesicLength=1.1892939185695846 rxn_smarts="[C:1]([c:2]1[n:3][o:4][c:5]([H:10])[c:6]1[H:11])([H:7])([H:8])[H:9]>>[C:1]([C:2]([N:3]=[O:4])=[C:6]=[C:5]([H:10])[H:11])([H:7])([H:8])[H:9]"
C       -1.78505768      -0.07237467       0.16088867
C       -0.30037862      -0.19376663       0.15084009
N        0.25503791      -1.43252273       0.15744090
O        1.54112981      -1.31486048      -0.03810914
C        1.88844953       0.38510772      -0.13022847
C        0.62820737       0.84246106       0.02949500
H       -2.23686781      -0.94033719       0.64066596
H       -2.09838649       0.81868031       0.70467956
H       -2.16926606      -0.00092705      -0.85792496
H        2.81759912       0.71954231       0.30948733
H        1.45953292       1.18899734      -1.12723493
11
Frame=12 idx=002842 GeodesicLength=1.2972741111647645 rxn_smarts="[C:1]([c:2]1[n:3][o:4][c:5]([H:10])[c:6]1[H:11])([H:7])([H:8])[H:9]>>[C:1]([C:2]([N:3]=[O:4])=[C:6]=[C:5]([H:10])[H:11])([H:7])([H:8])[H:9]"
C       -1.78195392      -0.07115499       0.15991908
C       -0.29809030      -0.20227904       0.14884961
N        0.24784421      -1.45098036       0.15791788
O        1.53027467      -1.34608439      -0.04261091
C        1.89793822       0.38941835      -0.14334787
C        0.63549656       0.82050321       0.02080386
H       -2.23643560      -0.92089777       0.66907817
H       -2.08957246       0.83791984       0.67634855
H       -2.17006164      -0.03221170      -0.85921033
H        2.81744218       0.72073001       0.31867339
H        1.44711808       1.25503683      -1.10642144
11
Frame=13 idx=002842 GeodesicLength=1.4051542120174707 rxn_smarts="[C:1]([c:2]1[n:3][o:4][c:5]([H:10])[c:6]1[H:11])([H:7])([H:8])[H:9]>>[C:1]([C:2]([N:3]=[O:4])=[C:6]=[C:5]([H:10])[H:11])([H:7])([H:8])[H:9]"
C       -1.77848475      -0.06989904       0.15863019
C       -0.29559997      -0.21125354       0.14515942
N        0.24020018      -1.47002494       0.15892471
O        1.51930157      -1.37858188      -0.04438413
C        1.90764175       0.39386863      -0.15856194
C        0.64294384       0.79760420       0.00845513
H       -2.23511954      -0.90020365       0.69735043
H       -2.07935276       0.85663169       0.64716622
H       -2.17193061      -0.06368746      -0.85924187
H        2.81648997       0.72172716       0.32674948
H        1.43391031       1.32381884      -1.08024765
11
Frame=14 idx=002842 GeodesicLength=1.5130193256258415 rxn_smarts="[C:1]([c:2]1[n:3][o:4][c:5]([H:10])[c:6]1[H:11])([H:7])([H:8])[H:9]>>[C:1]([C:2]([N:3]=[O:4])=[C:6]=[C:5]([H:10])[H:11])([H:7])([H:8])[H:9]"
C       -1.77470653      -0.06859443       0.15703423
C       -0.29292468      -0.22072823       0.13947163
N        0.23218711      -1.48961603       0.16027992
O        1.50824953      -1.41239605      -0.04296410
C        1.91762837       0.39849772      -0.17612746
C        0.65053939       0.77365563      -0.00863289
H       -2.23274704      -0.87808855       0.72563903
H       -2.06785495       0.87476664       0.61712525
H       -2.17513887      -0.09540902      -0.85783591
H        2.81463935       0.72256369       0.33360494
H        1.42012831       1.39534864      -1.04759465
11
Frame=15 idx=002842 GeodesicLength=1.6207521332975465 rxn_smarts="[C:1]([c:2]1[n:3][o:4][c:5]([H:10])[c:6]1[H:11])([H:7])([H:8])[H:9]>>[C:1]([C:2]([N:3]=[O:4])=[C:6]=[C:5]([H:10])[H:11])([H:7])([H:8])[H:9]"
C       -1.77051345      -0.06718101       0.15522433
C       -0.29002647      -0.23073038       0.13116515
N        0.22378640      -1.50971246       0.16137058
O        1.49726788      -1.44741522      -0.03781694
C        1.92794577       0.40341246      -0.19620069
C        0.65811392       0.74844097      -0.03230750
H       -2.22882020      -0.85436070       0.75426497
H       -2.05476392       0.89236624       0.58632435
H       -2.18014371      -0.12734524      -0.85455206
H        2.81121853       0.72346737       0.33990947
H        1.40593525       1.46905796      -1.00738166
11
Frame=16 idx=002842 GeodesicLength=1.7282907047676368 rxn_smarts="[C:1]([c:2]1[n:3][o:4][c:5]([H:10])[c:6]1[H:11])([H:7])([H:8])[H:9]>>[C:1]([C:2]([N:3]=[O:4])=[C:6]=[C:5]([H:10])[H:11])([H:7])([H:8])[H:9]"
C       -1.76575050      -0.06553433       0.15343478
C       -0.28686282      -0.24134834       0.11904360
N        0.21495559      -1.53037459       0.16076646
O        1.48657467      -1.48343394      -0.02820831
C        1.93877287       0.40880362      -0.21859945
C        0.66545967       0.72153823      -0.06566703
H       -2.22248117      -0.82867295       0.78402748
H       -2.03951968       0.90961195       0.55504032
H       -2.18782538      -0.15951724      -0.84858197
H        2.80497070       0.72503375       0.34738268
H        1.39170604       1.54389384      -0.95863856
