11
Frame=0 idx=002694 GeodesicLength=0.0 rxn_smarts="[C:1]([C:2]([C:3](=[O:4])[C:5]#[N:6])([H:10])[H:11])([H:7])([H:8])[H:9]>>[C-:3]#[O+:4].[C:1]([C:2]([C:5]#[N:6])([H:10])[H:11])([H:7])([H:8])[H:9]"
C       -1.58013209       0.25008490      -0.27594846
C       -0.18593702      -0.10521923      -0.56987370
C        0.45264994       0.21568719       1.57469746
O        1.01863624       0.30009138       2.54205367
C        2.26334354      -0.43854463      -0.14147665
N        3.35124277      -0.65278581      -0.48198702
H       -2.06985978      -0.43077712       0.41544703
H       -2.05793512       0.13009959      -1.26364950
H       -1.71153537       1.28609082       0.02640346
H        0.43449652       0.58759840      -1.11925658
H        0.08503035      -1.14232552      -0.70640971
11
Frame=1 idx=002694 GeodesicLength=0.08201020921819145 rxn_smarts="[C:1]([C:2]([C:3](=[O:4])[C:5]#[N:6])([H:10])[H:11])([H:7])([H:8])[H:9]>>[C-:3]#[O+:4].[C:1]([C:2]([C:5]#[N:6])([H:10])[H:11])([H:7])([H:8])[H:9]"
C       -1.56779397       0.25861241      -0.27671324
C       -0.17207783      -0.11474637      -0.56087479
C        0.46783464       0.16030089       1.57801310
O        1.01601526       0.29598940       2.55198116
C        2.23537475      -0.40890167      -0.14118016
N        3.32966238      -0.61479473      -0.46349781
H       -2.06412012      -0.40445818       0.42731667
H       -2.05330648       0.12842741      -1.25836366
H       -1.68676337       1.29971720       0.01362608
H        0.42089166       0.55755894      -1.16531217
H        0.07428308      -1.15770532      -0.70499519
11
Frame=2 idx=002694 GeodesicLength=0.16390513056060568 rxn_smarts="[C:1]([C:2]([C:3](=[O:4])[C:5]#[N:6])([H:10])[H:11])([H:7])([H:8])[H:9]>>[C-:3]#[O+:4].[C:1]([C:2]([C:5]#[N:6])([H:10])[H:11])([H:7])([H:8])[H:9]"
C       -1.55465558       0.26752306      -0.27680740
C       -0.15818648      -0.12477007      -0.55292327
C        0.48213570       0.09733521       1.58168719
O        1.01039038       0.29939752       2.55763576
C        2.20761998      -0.38219104      -0.14058828
N        3.30906032      -0.57298060      -0.44510180
H       -2.05794965      -0.37844102       0.43832959
H       -2.04898338       0.13023613      -1.25217019
H       -1.65955927       1.31297752       0.00369057
H        0.40736653       0.52404793      -1.20915743
H        0.06276144      -1.17313463      -0.70459473
11
Frame=3 idx=002694 GeodesicLength=0.24628866068193472 rxn_smarts="[C:1]([C:2]([C:3](=[O:4])[C:5]#[N:6])([H:10])[H:11])([H:7])([H:8])[H:9]>>[C-:3]#[O+:4].[C:1]([C:2]([C:5]#[N:6])([H:10])[H:11])([H:7])([H:8])[H:9]"
C       -1.54047865       0.27746098      -0.27684711
C       -0.14411707      -0.13475171      -0.54561234
C        0.49745187       0.04042278       1.58345849
O        0.99987311       0.29169262       2.56369858
C        2.18042950      -0.35234676      -0.14017988
N        3.28802875      -0.52779001      -0.42835946
H       -2.04972974      -0.34903125       0.45142922
H       -2.04511355       0.13058746      -1.24447775
H       -1.63075530       1.32795991      -0.00948836
H        0.39260889       0.48457200      -1.25442917
H        0.05180219      -1.18877601      -0.69919222
11
Frame=4 idx=002694 GeodesicLength=0.32895887671385765 rxn_smarts="[C:1]([C:2]([C:3](=[O:4])[C:5]#[N:6])([H:10])[H:11])([H:7])([H:8])[H:9]>>[C-:3]#[O+:4].[C:1]([C:2]([C:5]#[N:6])([H:10])[H:11])([H:7])([H:8])[H:9]"
C       -1.52542678       0.28786980      -0.27655140
C       -0.13012189      -0.14545685      -0.53925440
C        0.51304019      -0.01878812       1.58428957
O        0.98569956       0.28481475       2.56682599
C        2.15340495      -0.32399659      -0.13937762
N        3.26723842      -0.47822692      -0.41237232
H       -2.04044675      -0.31841745       0.46468473
H       -2.04172476       0.13270614      -1.23569913
H       -1.59951249       1.34295144      -0.02229773
H        0.37769729       0.44126025      -1.29722903
H        0.04015226      -1.20471643      -0.69301866
11
Frame=5 idx=002694 GeodesicLength=0.4118096834524523 rxn_smarts="[C:1]([C:2]([C:3](=[O:4])[C:5]#[N:6])([H:10])[H:11])([H:7])([H:8])[H:9]>>[C-:3]#[O+:4].[C:1]([C:2]([C:5]#[N:6])([H:10])[H:11])([H:7])([H:8])[H:9]"
C       -1.50977032       0.29889529      -0.27651054
C       -0.11619811      -0.15630326      -0.53374678
C        0.52921144      -0.07420101       1.58368353
O        0.96892418       0.27108275       2.57011798
C        2.12663230      -0.29380019      -0.13855404
N        3.24587547      -0.42623589      -0.39764633
H       -2.02951419      -0.28546156       0.47901819
H       -2.03891544       0.13426242      -1.22606121
H       -1.56723150       1.35873223      -0.03754425
H        0.36213603       0.39379155      -1.33878688
H        0.02885015      -1.22076232      -0.68396967
11
Frame=6 idx=002694 GeodesicLength=0.49483118113609237 rxn_smarts="[C:1]([C:2]([C:3](=[O:4])[C:5]#[N:6])([H:10])[H:11])([H:7])([H:8])[H:9]>>[C-:3]#[O+:4].[C:1]([C:2]([C:5]#[N:6])([H:10])[H:11])([H:7])([H:8])[H:9]"
C       -1.49349571       0.31011225      -0.27647704
C       -0.10243885      -0.16769924      -0.52911068
C        0.54594737      -0.12886523       1.58187062
O        0.94938521       0.25590538       2.57158573
C        2.09987647      -0.26425725      -0.13746440
N        3.22396224      -0.37182710      -0.38393684
H       -2.01710141      -0.25151080       0.49364992
H       -2.03648531       0.13657282      -1.21563391
H       -1.53367271       1.37438086      -0.05348589
H        0.34661352       0.34417622      -1.37697308
H        0.01740917      -1.23698792      -0.67402443
11
Frame=7 idx=002694 GeodesicLength=0.5782908784996167 rxn_smarts="[C:1]([C:2]([C:3](=[O:4])[C:5]#[N:6])([H:10])[H:11])([H:7])([H:8])[H:9]>>[C-:3]#[O+:4].[C:1]([C:2]([C:5]#[N:6])([H:10])[H:11])([H:7])([H:8])[H:9]"
C       -1.47688351       0.32147157      -0.27700560
C       -0.08891951      -0.17909403      -0.52516887
C        0.56324982      -0.17947555       1.57863087
O        0.92891668       0.23517948       2.57344460
C        2.07293913      -0.23298845      -0.13612104
N        3.20072668      -0.31698597      -0.37133599
H       -2.00293823      -0.21595322       0.50868352
H       -2.03450280       0.13805229      -1.20469493
H       -1.49988085       1.39003173      -0.07191530
H        0.33085786       0.29263076      -1.41221931
H        0.00643472      -1.25286860      -0.66229794
11
Frame=8 idx=002694 GeodesicLength=0.6616843814986088 rxn_smarts="[C:1]([C:2]([C:3](=[O:4])[C:5]#[N:6])([H:10])[H:11])([H:7])([H:8])[H:9]>>[C-:3]#[O+:4].[C:1]([C:2]([C:5]#[N:6])([H:10])[H:11])([H:7])([H:8])[H:9]"
C       -1.46009125       0.33297633      -0.27804676
C       -0.07585840      -0.19109832      -0.52182912
C        0.58103819      -0.22783037       1.57428214
O        0.90803434       0.21101116       2.57461215
C        2.04581594      -0.20240034      -0.13445730
N        3.17679334      -0.25963708      -0.35934364
H       -1.98754484      -0.17887503       0.52384220
H       -2.03313278       0.13961590      -1.19334261
H       -1.46551126       1.40544861      -0.09236722
H        0.31535162       0.23966378      -1.44392077
H       -0.00489491      -1.26887464      -0.64942908
11
Frame=9 idx=002694 GeodesicLength=0.7461081373857735 rxn_smarts="[C:1]([C:2]([C:3](=[O:4])[C:5]#[N:6])([H:10])[H:11])([H:7])([H:8])[H:9]>>[C-:3]#[O+:4].[C:1]([C:2]([C:5]#[N:6])([H:10])[H:11])([H:7])([H:8])[H:9]"
C       -1.44275361       0.34438577      -0.27939964
C       -0.06315711      -0.20377495      -0.51894801
C        0.59930712      -0.27423691       1.56865573
O        0.88593893       0.18469789       2.57468956
C        2.01802853      -0.17260297      -0.13245090
N        3.15112303      -0.20069300      -0.34823084
H       -1.97023672      -0.14070956       0.53895729
H       -2.03171909       0.14122921      -1.18131513
H       -1.43044249       1.42031840      -0.11429738
H        0.30018918       0.18638570      -1.47161072
H       -0.01627776      -1.28499959      -0.63604997
11
Frame=10 idx=002694 GeodesicLength=0.8306291196039081 rxn_smarts="[C:1]([C:2]([C:3](=[O:4])[C:5]#[N:6])([H:10])[H:11])([H:7])([H:8])[H:9]>>[C-:3]#[O+:4].[C:1]([C:2]([C:5]#[N:6])([H:10])[H:11])([H:7])([H:8])[H:9]"
C       -1.42541487       0.35573934      -0.28146347
C       -0.05099134      -0.21687775      -0.51645371
C        0.61801283      -0.31798389       1.56219098
O        0.86456032       0.15485555       2.57483969
C        1.98986675      -0.14296863      -0.13003645
N        3.12418351      -0.14066197      -0.33754977
H       -1.95154038      -0.10119604       0.55394215
H       -2.03087777       0.14247180      -1.16904530
H       -1.39537809       1.43466556      -0.13862091
H        0.28542312       0.13295723      -1.49594181
H       -0.02784409      -1.30100119      -0.62186139
11
Frame=11 idx=002694 GeodesicLength=0.915777335781673 rxn_smarts="[C:1]([C:2]([C:3](=[O:4])[C:5]#[N:6])([H:10])[H:11])([H:7])([H:8])[H:9]>>[C-:3]#[O+:4].[C:1]([C:2]([C:5]#[N:6])([H:10])[H:11])([H:7])([H:8])[H:9]"
C       -1.40784928       0.36703729      -0.28414037
C       -0.03938602      -0.23067130      -0.51422054
C        0.63708639      -0.35970681       1.55484274
O        0.84374061       0.12211373       2.57460260
C        1.96105995      -0.11431653      -0.12725262
N        3.09550623      -0.07864133      -0.32706704
H       -1.93117158      -0.06020279       0.56867976
H       -2.03033548       0.14356862      -1.15630824
H       -1.35995780       1.44837639      -0.16514873
H        0.27114077       0.07954097      -1.51690458
H       -0.03983379      -1.31709824      -0.60708297
11
Frame=12 idx=002694 GeodesicLength=1.001387922125269 rxn_smarts="[C:1]([C:2]([C:3](=[O:4])[C:5]#[N:6])([H:10])[H:11])([H:7])([H:8])[H:9]>>[C-:3]#[O+:4].[C:1]([C:2]([C:5]#[N:6])([H:10])[H:11])([H:7])([H:8])[H:9]"
C       -1.39022791       0.37809078      -0.28738364
C       -0.02825493      -0.24484520      -0.51215988
C        0.65663739      -0.39937012       1.54678884
O        0.82343062       0.08715075       2.57404778
C        1.93173581      -0.08612668      -0.12399785
N        3.06512170      -0.01636446      -0.31689174
H       -1.90912687      -0.01825305       0.58303095
H       -2.03013655       0.14440126      -1.14311813
H       -1.32475301       1.46116105      -0.19364579
H        0.25746232       0.02709412      -1.53467544
H       -0.05188857      -1.33293844      -0.59199510
11
Frame=13 idx=002694 GeodesicLength=1.0876755134818659 rxn_smarts="[C:1]([C:2]([C:3](=[O:4])[C:5]#[N:6])([H:10])[H:11])([H:7])([H:8])[H:9]>>[C-:3]#[O+:4].[C:1]([C:2]([C:5]#[N:6])([H:10])[H:11])([H:7])([H:8])[H:9]"
C       -1.37252739       0.38883833      -0.29115632
C       -0.01757668      -0.25930200      -0.51016926
C        0.67667768      -0.43704551       1.53805320
O        0.80362026       0.05016235       2.57309846
C        1.90179299      -0.05825861      -0.12020136
N        3.03289040       0.04574927      -0.30695753
H       -1.88527510       0.02455547       0.59686911
H       -2.03020642       0.14493195      -1.12936243
H       -1.28983302       1.47286829      -0.22404288
H        0.24442115      -0.02409084      -1.54946606
H       -0.06398387      -1.34840869      -0.57666492
11
Frame=14 idx=002694 GeodesicLength=1.1746227871644281 rxn_smarts="[C:1]([C:2]([C:3](=[O:4])[C:5]#[N:6])([H:10])[H:11])([H:7])([H:8])[H:9]>>[C-:3]#[O+:4].[C:1]([C:2]([C:5]#[N:6])([H:10])[H:11])([H:7])([H:8])[H:9]"
C       -1.35482183       0.39928985      -0.29546314
C       -0.00733546      -0.27395336      -0.50819861
C        0.69719836      -0.47287419       1.52876508
O        0.78456277       0.01126130       2.57176331
C        1.87120183      -0.03073322      -0.11583664
N        2.99884548       0.10748303      -0.29703969
H       -1.85960235       0.06822879       0.61011226
H       -2.03059953       0.14513974      -1.11498383
H       -1.25543813       1.48345931      -0.25635115
H        0.23206746      -0.07384734      -1.56161697
H       -0.07607861      -1.36345391      -0.56115061
11
Frame=15 idx=002694 GeodesicLength=1.2623613549948598 rxn_smarts="[C:1]([C:2]([C:3](=[O:4])[C:5]#[N:6])([H:10])[H:11])([H:7])([H:8])[H:9]>>[C-:3]#[O+:4].[C:1]([C:2]([C:5]#[N:6])([H:10])[H:11])([H:7])([H:8])[H:9]"
C       -1.33709125       0.40943367      -0.30026266
C        0.00250252      -0.28875394      -0.50618680
C        0.71825615      -0.50695746       1.51895943
O        0.76611303      -0.02949433       2.57000464
C        1.83990181      -0.00346574      -0.11084392
N        2.96295277       0.16869844      -0.28711873
H       -1.83199292       0.11278643       0.62268312
H       -2.03129798       0.14506218      -1.09984248
H       -1.22159011       1.49283734      -0.29055736
H        0.22041207      -0.12211156      -1.57138915
H       -0.08816608      -1.37803504      -0.54544609
11
Frame=16 idx=002694 GeodesicLength=1.3510131547904165 rxn_smarts="[C:1]([C:2]([C:3](=[O:4])[C:5]#[N:6])([H:10])[H:11])([H:7])([H:8])[H:9]>>[C-:3]#[O+:4].[C:1]([C:2]([C:5]#[N:6])([H:10])[H:11])([H:7])([H:8])[H:9]"
C       -1.31933014       0.41927690      -0.30552891
C        0.01196973      -0.30364634      -0.50409028
C        0.73988517      -0.53938922       1.50868136
O        0.74822422      -0.07209195       2.56775868
C        1.80781740       0.02361875      -0.10516407
N        2.92519517       0.22927325      -0.27710645
H       -1.80233104       0.15827790       0.63449651
H       -2.03230319       0.14472121      -1.08379100
H       -1.18836942       1.50092936      -0.32667865
H        0.20946853      -0.16885659      -1.57903959
H       -0.10022642      -1.39211327      -0.52953759
