12
Frame=0 idx=007309 GeodesicLength=0.0 rxn_smarts="[O:1]([C:2]([c:3]1[n:4][n:5]([H:11])[c:6]([H:12])[n:7]1)([H:9])[H:10])[H:8]>>[H:9][H:12].[O:1]([C:2](=[C:3]1[N-:4][N+:5]([H:11])=[C:6]=[N:7]1)[H:10])[H:8]"
O       -2.14164359       0.49598343      -0.62178885
C       -1.29709363      -0.12217046       0.21329430
C       -0.11446297       0.50291265       0.78569447
N        0.56656339       1.13007893      -0.24083791
N        1.62939412       0.43125588      -0.30674191
C        1.72439362      -0.63842787       0.66601157
N        0.61789777      -0.41023089       1.41769873
H       -1.68431497       1.22064926      -1.06332968
H       -0.42292609      -1.03168606      -0.47780993
H       -1.79227059      -0.87135681       0.82254448
H        2.31312359       0.62268612      -1.02638901
H        0.60133940      -1.32969418      -0.16834621
12
Frame=1 idx=007309 GeodesicLength=0.09457315464288392 rxn_smarts="[O:1]([C:2]([c:3]1[n:4][n:5]([H:11])[c:6]([H:12])[n:7]1)([H:9])[H:10])[H:8]>>[H:9][H:12].[O:1]([C:2](=[C:3]1[N-:4][N+:5]([H:11])=[C:6]=[N:7]1)[H:10])[H:8]"
O       -2.14286590       0.50339873      -0.61422354
C       -1.30244723      -0.12419717       0.21872150
C       -0.11601834       0.50059484       0.78398127
N        0.56445804       1.13388512      -0.23551117
N        1.63284729       0.43855400      -0.30325426
C        1.72338367      -0.63463001       0.65960569
N        0.62593125      -0.40489032       1.42113541
H       -1.66827509       1.20388617      -1.07679811
H       -0.43649181      -1.05072267      -0.49493629
H       -1.80643434      -0.85274045       0.84577229
H        2.32073633       0.64087540      -1.01545641
H        0.60517613      -1.35401362      -0.18903638
12
Frame=2 idx=007309 GeodesicLength=0.1890921816547962 rxn_smarts="[O:1]([C:2]([c:3]1[n:4][n:5]([H:11])[c:6]([H:12])[n:7]1)([H:9])[H:10])[H:8]>>[H:9][H:12].[O:1]([C:2](=[C:3]1[N-:4][N+:5]([H:11])=[C:6]=[N:7]1)[H:10])[H:8]"
O       -2.14346748       0.51065134      -0.60708641
C       -1.30773283      -0.12632544       0.22427177
C       -0.11757539       0.49834213       0.78234298
N        0.56236143       1.13782115      -0.23002709
N        1.63637796       0.44608463      -0.29944914
C        1.72196223      -0.63104548       0.65302605
N        0.63412418      -0.39907324       1.42484786
H       -1.65256622       1.18638554      -1.08975694
H       -0.45053894      -1.07005775      -0.51244012
H       -1.82042825      -0.83314117       0.86916314
H        2.32822607       0.65899492      -1.00422170
H        0.60925725      -1.37863663      -0.21067038
12
Frame=3 idx=007309 GeodesicLength=0.28358253274397743 rxn_smarts="[O:1]([C:2]([c:3]1[n:4][n:5]([H:11])[c:6]([H:12])[n:7]1)([H:9])[H:10])[H:8]>>[H:9][H:12].[O:1]([C:2](=[C:3]1[N-:4][N+:5]([H:11])=[C:6]=[N:7]1)[H:10])[H:8]"
O       -2.14345666       0.51764497      -0.60041288
C       -1.31294883      -0.12856877       0.22995701
C       -0.11914015       0.49616912       0.78077770
N        0.56026355       1.14187310      -0.22441025
N        1.63998814       0.45384672      -0.29530289
C        1.72008962      -0.62767182       0.64628095
N        0.64248615      -0.39271581       1.42886235
H       -1.63718936       1.16822147      -1.10213023
H       -0.46509668      -1.08973031      -0.53032114
H       -1.83422269      -0.81251537       0.89270065
H        2.33561362       0.67702169      -0.99266639
H        0.61361330      -1.40357499      -0.23333487
12
Frame=4 idx=007309 GeodesicLength=0.37806083069054375 rxn_smarts="[O:1]([C:2]([c:3]1[n:4][n:5]([H:11])[c:6]([H:12])[n:7]1)([H:9])[H:10])[H:8]>>[H:9][H:12].[O:1]([C:2](=[C:3]1[N-:4][N+:5]([H:11])=[C:6]=[N:7]1)[H:10])[H:8]"
O       -2.14284507       0.52427017      -0.59425062
C       -1.31809242      -0.13094336       0.23578880
C       -0.12072015       0.49409306       0.77928609
N        0.55815632       1.14602756      -0.21868243
N        1.64368182       0.46183752      -0.29078449
C        1.71772784      -0.62449631       0.63939811
N        0.65102451      -0.38574522       1.43321290
H       -1.62215314       1.14951622      -1.11382747
H       -0.48018174      -1.10976983      -0.54858495
H       -1.84778514      -0.79084822       0.91635098
H        2.34289475       0.69489256      -0.98080436
H        0.61829242      -1.42883416      -0.25710258
12
Frame=5 idx=007309 GeodesicLength=0.472548817171038 rxn_smarts="[O:1]([C:2]([c:3]1[n:4][n:5]([H:11])[c:6]([H:12])[n:7]1)([H:9])[H:10])[H:8]>>[H:9][H:12].[O:1]([C:2](=[C:3]1[N-:4][N+:5]([H:11])=[C:6]=[N:7]1)[H:10])[H:8]"
O       -2.14166290       0.53043450      -0.58860613
C       -1.32316422      -0.13345605       0.24179179
C       -0.12232208       0.49213286       0.77788101
N        0.55603026       1.15027579      -0.21285449
N        1.64745684       0.47005461      -0.28586104
C        1.71483573      -0.62151043       0.63239494
N        0.65974607      -0.37810092       1.43792997
H       -1.60742855       1.13034238      -1.12480805
H       -0.49582592      -1.13020867      -0.56722686
H       -1.86108129      -0.76811251       0.94007254
H        2.35006792       0.71255834      -0.96864412
H        0.62334814      -1.45440991      -0.28206956
12
Frame=6 idx=007309 GeodesicLength=0.5670521706646526 rxn_smarts="[O:1]([C:2]([c:3]1[n:4][n:5]([H:11])[c:6]([H:12])[n:7]1)([H:9])[H:10])[H:8]>>[H:9][H:12].[O:1]([C:2](=[C:3]1[N-:4][N+:5]([H:11])=[C:6]=[N:7]1)[H:10])[H:8]"
O       -2.13993118       0.53607534      -0.58347522
C       -1.32816089      -0.13610598       0.24799925
C       -0.12394948       0.49031458       0.77658676
N        0.55388098       1.15461593      -0.20692683
N        1.65130906       0.47848965      -0.28050308
C        1.71136713      -0.61870176       0.62529579
N        0.66866180      -0.36971803       1.44304488
H       -1.59298426       1.11074823      -1.13505911
H       -0.51206423      -1.15107022      -0.58623662
H       -1.87406867      -0.74432162       0.96381149
H        2.35711994       0.72995841      -0.95620210
H        0.62881980      -1.48028452      -0.30833522
12
Frame=7 idx=007309 GeodesicLength=0.6615795238222383 rxn_smarts="[O:1]([C:2]([c:3]1[n:4][n:5]([H:11])[c:6]([H:12])[n:7]1)([H:9])[H:10])[H:8]>>[H:9][H:12].[O:1]([C:2](=[C:3]1[N-:4][N+:5]([H:11])=[C:6]=[N:7]1)[H:10])[H:8]"
O       -2.13766637       0.54115641      -0.57884555
C       -1.33307922      -0.13887521       0.25445341
C       -0.12560259       0.48866793       0.77543698
N        0.55170638       1.15905223      -0.20089427
N        1.65523276       0.48713606      -0.27468038
C        1.70726312      -0.61606237       0.61811927
N        0.67778898      -0.36053644       1.44857450
H       -1.57878283       1.09070482      -1.14457163
H       -0.52896942      -1.17238956      -0.60555798
H       -1.88670273      -0.71947335       0.98748802
H        2.36406184       0.74705329      -0.94347934
H        0.63475007      -1.50643383      -0.33604302
12
Frame=8 idx=007309 GeodesicLength=0.7561282218161957 rxn_smarts="[O:1]([C:2]([c:3]1[n:4][n:5]([H:11])[c:6]([H:12])[n:7]1)([H:9])[H:10])[H:8]>>[H:9][H:12].[O:1]([C:2](=[C:3]1[N-:4][N+:5]([H:11])=[C:6]=[N:7]1)[H:10])[H:8]"
O       -2.13488837       0.54562320      -0.57470134
C       -1.33791462      -0.14174752       0.26119769
C       -0.12728354       0.48722835       0.77447505
N        0.54950577       1.16359388      -0.19474017
N        1.65921765       0.49597909      -0.26836651
C        1.70246617      -0.61357522       0.61089495
N        0.68713964      -0.35050069       1.45453808
H       -1.56475836       1.07021613      -1.15335495
H       -0.54658380      -1.19421131      -0.62513448
H       -1.89895305      -0.69358204       1.01103344
H        2.37087577       0.76377999      -0.93049806
H        0.64117673      -1.53280387      -0.36534369
12
Frame=9 idx=007309 GeodesicLength=0.8506420785763291 rxn_smarts="[O:1]([C:2]([c:3]1[n:4][n:5]([H:11])[c:6]([H:12])[n:7]1)([H:9])[H:10])[H:8]>>[H:9][H:12].[O:1]([C:2](=[C:3]1[N-:4][N+:5]([H:11])=[C:6]=[N:7]1)[H:10])[H:8]"
O       -2.13163435       0.54937048      -0.57097996
C       -1.34264962      -0.14470985       0.26826729
C       -0.12900064       0.48608941       0.77371727
N        0.54729307       1.16820636      -0.18853257
N        1.66323820       0.50490794      -0.26156726
C        1.69680055      -0.61125952       0.60362275
N        0.69673749      -0.33944233       1.46098348
H       -1.55086489       1.04939068      -1.16142810
H       -0.56498624      -1.21664256      -0.64484869
H       -1.91077918      -0.66675598       1.03441731
H        2.37762386       0.78004631      -0.91716220
H        0.64822173      -1.55920095      -0.39648931
12
Frame=10 idx=007309 GeodesicLength=0.9451512840321451 rxn_smarts="[O:1]([C:2]([c:3]1[n:4][n:5]([H:11])[c:6]([H:12])[n:7]1)([H:9])[H:10])[H:8]>>[H:9][H:12].[O:1]([C:2](=[C:3]1[N-:4][N+:5]([H:11])=[C:6]=[N:7]1)[H:10])[H:8]"
O       -2.12788505       0.55242888      -0.56771303
C       -1.34729604      -0.14771380       0.27572060
C       -0.13075071       0.48522926       0.77325718
N        0.54505431       1.17296093      -0.18213721
N        1.66727241       0.51398203      -0.25425339
C        1.69033804      -0.60904923       0.59636113
N        0.70657334      -0.32747224       1.46786603
H       -1.53698733       1.02808164      -1.16883385
H       -0.58418850      -1.23965339      -0.66469332
H       -1.92218979      -0.63894047       1.05755077
H        2.38419531       0.79582327      -0.90363110
H        0.65586401      -1.58567689      -0.42949380
12
Frame=11 idx=007309 GeodesicLength=1.0396587385949014 rxn_smarts="[O:1]([C:2]([c:3]1[n:4][n:5]([H:11])[c:6]([H:12])[n:7]1)([H:9])[H:10])[H:8]>>[H:9][H:12].[O:1]([C:2](=[C:3]1[N-:4][N+:5]([H:11])=[C:6]=[N:7]1)[H:10])[H:8]"
O       -2.12364239       0.55478341      -0.56488672
C       -1.35185031      -0.15073252       0.28359190
C       -0.13253855       0.48468142       0.77314974
N        0.54278793       1.17787772      -0.17551499
N        1.67128806       0.52316787      -0.24642568
C        1.68305009      -0.60690285       0.58915200
N        0.71664361      -0.31458404       1.47518236
H       -1.52304890       1.00628156      -1.17559457
H       -0.60424060      -1.26327112      -0.68461707
H       -1.93318240      -0.61017036       1.08037034
H        2.39054918       0.81104377      -0.88995920
H        0.66418429      -1.61217486      -0.46444813
12
Frame=12 idx=007309 GeodesicLength=1.1341631789896298 rxn_smarts="[O:1]([C:2]([c:3]1[n:4][n:5]([H:11])[c:6]([H:12])[n:7]1)([H:9])[H:10])[H:8]>>[H:9][H:12].[O:1]([C:2](=[C:3]1[N-:4][N+:5]([H:11])=[C:6]=[N:7]1)[H:10])[H:8]"
O       -2.11888868       0.55640846      -0.56250348
C       -1.35631083      -0.15371875       0.29192636
C       -0.13436835       0.48448673       0.77346939
N        0.54049439       1.18299449      -0.16860026
N        1.67524170       0.53242743      -0.23809733
C        1.67489999      -0.60478123       0.58202990
N        0.72694445      -0.30079483       1.48291598
H       -1.50893984       0.98393929      -1.18173740
H       -0.62517896      -1.28755195      -0.70452986
H       -1.94377338      -0.58045896       1.10281610
H        2.39664015       0.82565190      -0.87620364
H        0.67323935      -1.63860256      -0.50148575
12
Frame=13 idx=007309 GeodesicLength=1.2286717088878645 rxn_smarts="[O:1]([C:2]([c:3]1[n:4][n:5]([H:11])[c:6]([H:12])[n:7]1)([H:9])[H:10])[H:8]>>[H:9][H:12].[O:1]([C:2](=[C:3]1[N-:4][N+:5]([H:11])=[C:6]=[N:7]1)[H:10])[H:8]"
O       -2.11361130       0.55730444      -0.56055406
C       -1.36067894      -0.15662547       0.30076328
C       -0.13624541       0.48468153       0.77428441
N        0.53817273       1.18834255      -0.16133220
N        1.67908688       0.54171178      -0.22930121
C        1.66588014      -0.60263507       0.57504265
N        0.73746342      -0.28613493       1.49104712
H       -1.49455517       0.96103648      -1.18730121
H       -0.64704627      -1.31253107      -0.72437082
H       -1.95398234      -0.54985680       1.12482847
H        2.40241018       0.83959285      -0.86243599
H        0.68310609      -1.66488629      -0.54067043
12
Frame=14 idx=007309 GeodesicLength=1.3231830778454972 rxn_smarts="[O:1]([C:2]([c:3]1[n:4][n:5]([H:11])[c:6]([H:12])[n:7]1)([H:9])[H:10])[H:8]>>[H:9][H:12].[O:1]([C:2](=[C:3]1[N-:4][N+:5]([H:11])=[C:6]=[N:7]1)[H:10])[H:8]"
O       -2.10777162       0.55746094      -0.55905225
C       -1.36495426      -0.15939636       0.31014320
C       -0.13817373       0.48530534       0.77567643
N        0.53582269       1.19397264      -0.15362702
N        1.68277153       0.55098234      -0.22007377
C        1.65597981      -0.60042053       0.56823328
N        0.74818940      -0.27065961       1.49954177
H       -1.47977439       0.93748605      -1.19229322
H       -0.66987684      -1.33826829      -0.74403332
H       -1.96385137      -0.51836264       1.14633282
H        2.40780943       0.85282607      -0.84872880
H        0.69382935      -1.69092597      -0.58211910
12
Frame=15 idx=007309 GeodesicLength=1.417708286580771 rxn_smarts="[O:1]([C:2]([c:3]1[n:4][n:5]([H:11])[c:6]([H:12])[n:7]1)([H:9])[H:10])[H:8]>>[H:9][H:12].[O:1]([C:2](=[C:3]1[N-:4][N+:5]([H:11])=[C:6]=[N:7]1)[H:10])[H:8]"
O       -2.10133621       0.55687321      -0.55800019
C       -1.36914144      -0.16197710       0.32010358
C       -0.14015768       0.48639173       0.77771865
N        0.53344133       1.19992783      -0.14540788
N        1.68623910       0.56018765      -0.21047442
C        1.64520824      -0.59808688       0.56164631
N        0.75910611      -0.25444185       1.50836011
H       -1.46447978       0.91324422      -1.19672808
H       -0.69370932      -1.36481226      -0.76343950
H       -1.97343117      -0.48598679       1.16726158
H        2.41278066       0.86532247      -0.83515520
H        0.70548017      -1.71664223      -0.62588496
12
Frame=16 idx=007309 GeodesicLength=1.5122574982168244 rxn_smarts="[O:1]([C:2]([c:3]1[n:4][n:5]([H:11])[c:6]([H:12])[n:7]1)([H:9])[H:10])[H:8]>>[H:9][H:12].[O:1]([C:2](=[C:3]1[N-:4][N+:5]([H:11])=[C:6]=[N:7]1)[H:10])[H:8]"
O       -2.09425969       0.55552860      -0.55741255
C       -1.37324753      -0.16431488       0.33067809
C       -0.14220197       0.48796731       0.78048460
N        0.53102397       1.20625794      -0.13658598
N        1.68943294       0.56928495      -0.20056634
C        1.63358839      -0.59558381       0.55532009
N        0.77019538      -0.23757948       1.51745645
H       -1.44854412       0.88825331      -1.20060976
H       -0.71857763      -1.39221840      -0.78250752
H       -1.98278733      -0.45270765       1.18755499
H        2.41726330       0.87706864      -0.82179230
H        0.71811429      -1.74195652      -0.67201979
