19
Frame=0 idx=008670 GeodesicLength=0.0 rxn_smarts="[C:1]([C:2]1([O:3][H:11])[C:4]([H:12])([H:13])[C:5]([H:14])([H:15])[C:6]([H:16])([H:17])[C:7]1([H:18])[H:19])([H:8])([H:9])[H:10]>>[C:1]([H:8])([H:9])([H:10])[H:13].[C:2]1([O:3][H:11])=[C:4]([H:12])[C:5]([H:14])([H:15])[C:6]([H:16])([H:17])[C:7]1([H:18])[H:19]"
C        1.65358394      -0.65379091      -1.16335541
C        0.51775659      -0.12156763       0.67218987
O        1.46572949      -0.50067028       1.53078555
C        0.12946319       1.23011905       0.38905791
C       -1.36033847       1.27083234       0.12671589
C       -1.66553839      -0.17990091      -0.29034879
C       -0.67054817      -1.02382816       0.50836253
H        2.60526732      -0.11382580      -1.21322761
H        1.15841158      -0.61987810      -2.14072634
H        1.84866317      -1.69203851      -0.89614979
H        1.99373148       0.26300464       1.77982921
H        0.71501802       2.06117725       0.76253850
H        0.82184633       0.51558375      -0.57493980
H       -1.93564073       1.54190359       1.02109683
H       -1.63774784       1.97861085      -0.65661380
H       -1.47672356      -0.30685584      -1.35868720
H       -2.69873705      -0.47148471      -0.10151636
H       -0.42892554      -1.99165337       0.07613139
H       -1.03527135      -1.18573717       1.52885745
19
Frame=1 idx=008670 GeodesicLength=0.09243453378330439 rxn_smarts="[C:1]([C:2]1([O:3][H:11])[C:4]([H:12])([H:13])[C:5]([H:14])([H:15])[C:6]([H:16])([H:17])[C:7]1([H:18])[H:19])([H:8])([H:9])[H:10]>>[C:1]([H:8])([H:9])([H:10])[H:13].[C:2]1([O:3][H:11])=[C:4]([H:12])[C:5]([H:14])([H:15])[C:6]([H:16])([H:17])[C:7]1([H:18])[H:19]"
C        1.67132364      -0.65787837      -1.15420441
C        0.51399203      -0.11902420       0.66276339
O        1.43947861      -0.48615381       1.55424615
C        0.12539466       1.23121360       0.37491153
C       -1.36750947       1.27329071       0.13287434
C       -1.68105403      -0.17662105      -0.28058230
C       -0.67390972      -1.02363491       0.50062878
H        2.62694003      -0.12362222      -1.18108056
H        1.20183574      -0.63059383      -2.14400163
H        1.86191892      -1.69716706      -0.88657951
H        2.02153813       0.25278182       1.74871332
H        0.70694584       2.06409239       0.75164510
H        0.82606997       0.52707222      -0.61147880
H       -1.92843521       1.54506115       1.03586777
H       -1.65441339       1.98251822      -0.64577950
H       -1.51090711      -0.30289705      -1.35215801
H       -2.71168131      -0.46590803      -0.07482321
H       -0.43375204      -1.98391997       0.05033456
H       -1.03377529      -1.20860963       1.51870299
19
Frame=2 idx=008670 GeodesicLength=0.1845261913971655 rxn_smarts="[C:1]([C:2]1([O:3][H:11])[C:4]([H:12])([H:13])[C:5]([H:14])([H:15])[C:6]([H:16])([H:17])[C:7]1([H:18])[H:19])([H:8])([H:9])[H:10]>>[C:1]([H:8])([H:9])([H:10])[H:13].[C:2]1([O:3][H:11])=[C:4]([H:12])[C:5]([H:14])([H:15])[C:6]([H:16])([H:17])[C:7]1([H:18])[H:19]"
C        1.68876359      -0.66117148      -1.14524527
C        0.51038503      -0.11637236       0.65321419
O        1.41304408      -0.46935776       1.57701349
C        0.12161747       1.23222327       0.35947775
C       -1.37427199       1.27572572       0.13868500
C       -1.69650128      -0.17353190      -0.27002953
C       -0.67701855      -1.02341677       0.49302962
H        2.64751497      -0.13227287      -1.14879347
H        1.24618774      -0.64088285      -2.14715019
H        1.87532946      -1.70140797      -0.87725676
H        2.04605965       0.23766605       1.72109257
H        0.69943736       2.06690399       0.73901797
H        0.83025237       0.53838056      -0.64967891
H       -1.92014743       1.54869613       1.05023207
H       -1.67091905       1.98600065      -0.63538828
H       -1.54595891      -0.29957225      -1.34457349
H       -2.72411470      -0.46036335      -0.04647890
H       -0.43821697      -1.97565657       0.02453266
H       -1.03144284      -1.23159023       1.50829951
19
Frame=3 idx=008670 GeodesicLength=0.2762762601210518 rxn_smarts="[C:1]([C:2]1([O:3][H:11])[C:4]([H:12])([H:13])[C:5]([H:14])([H:15])[C:6]([H:16])([H:17])[C:7]1([H:18])[H:19])([H:8])([H:9])[H:10]>>[C:1]([H:8])([H:9])([H:10])[H:13].[C:2]1([O:3][H:11])=[C:4]([H:12])[C:5]([H:14])([H:15])[C:6]([H:16])([H:17])[C:7]1([H:18])[H:19]"
C        1.70583583      -0.66362976      -1.13650884
C        0.50691261      -0.11363573       0.64364543
O        1.38642277      -0.45052350       1.59901645
C        0.11809851       1.23308706       0.34280854
C       -1.38060438       1.27812007       0.14411932
C       -1.71182602      -0.17064585      -0.25868773
C       -0.67988938      -1.02319363       0.48558695
H        2.66691888      -0.13976270      -1.11637772
H        1.29142568      -0.65059191      -2.15011331
H        1.88880094      -1.70474655      -0.86829899
H        2.06741062       0.21790234       1.69706425
H        0.69244840       2.06960133       0.72462812
H        0.83443796       0.54946753      -0.68949353
H       -1.91079130       1.55282108       1.06410024
H       -1.68719201       1.98903292      -0.62548275
H       -1.58178653      -0.29690604      -1.33587593
H       -2.73594483      -0.45483745      -0.01651075
H       -0.44238559      -1.96686927      -0.00126614
H       -1.02829217      -1.25468993       1.49764638
19
Frame=4 idx=008670 GeodesicLength=0.36824163473522376 rxn_smarts="[C:1]([C:2]1([O:3][H:11])[C:4]([H:12])([H:13])[C:5]([H:14])([H:15])[C:6]([H:16])([H:17])[C:7]1([H:18])[H:19])([H:8])([H:9])[H:10]>>[C:1]([H:8])([H:9])([H:10])[H:13].[C:2]1([O:3][H:11])=[C:4]([H:12])[C:5]([H:14])([H:15])[C:6]([H:16])([H:17])[C:7]1([H:18])[H:19]"
C        1.72248909      -0.66517082      -1.12806933
C        0.50363908      -0.11085319       0.63423555
O        1.35984768      -0.42993343       1.62044282
C        0.11491768       1.23389358       0.32494129
C       -1.38650017       1.28055969       0.14906897
C       -1.72714477      -0.16805502      -0.24663382
C       -0.68260337      -1.02316694       0.47837300
H        2.68519504      -0.14593465      -1.08385506
H        1.33741397      -0.65951251      -2.15301135
H        1.90223874      -1.70725529      -0.85978113
H        2.08590104       0.19370175       1.67701421
H        0.68617082       2.07243135       0.70848804
H        0.83870493       0.56043812      -0.73097308
H       -1.90032420       1.55753342       1.07738914
H       -1.70323479       1.99179940      -0.61631066
H       -1.61858468      -0.29497217      -1.32620652
H       -2.74731218      -0.44947964       0.01500385
H       -0.44647029      -1.95782875      -0.02702728
H       -1.02434364      -1.27819490       1.48691136
19
Frame=5 idx=008670 GeodesicLength=0.4591277345621343 rxn_smarts="[C:1]([C:2]1([O:3][H:11])[C:4]([H:12])([H:13])[C:5]([H:14])([H:15])[C:6]([H:16])([H:17])[C:7]1([H:18])[H:19])([H:8])([H:9])[H:10]>>[C:1]([H:8])([H:9])([H:10])[H:13].[C:2]1([O:3][H:11])=[C:4]([H:12])[C:5]([H:14])([H:15])[C:6]([H:16])([H:17])[C:7]1([H:18])[H:19]"
C        1.73859062      -0.66583426      -1.11983012
C        0.50036195      -0.10799488       0.62493528
O        1.33293214      -0.40750262       1.64069589
C        0.11175526       1.23428664       0.30604157
C       -1.39195377       1.28282067       0.15364787
C       -1.74199638      -0.16558346      -0.23369659
C       -0.68498034      -1.02292715       0.47135996
H        2.70202471      -0.15116188      -1.05110554
H        1.38425781      -0.66761678      -2.15535840
H        1.91553078      -1.70873608      -0.85185377
H        2.10110421       0.16483855       1.65979556
H        0.67991873       2.07480593       0.69070604
H        0.84303958       0.57105169      -0.77379110
H       -1.88900494       1.56270881       1.08989461
H       -1.71883422       1.99381917      -0.60753518
H       -1.65553376      -0.29370019      -1.31504499
H       -2.75758773      -0.44391719       0.04804241
H       -0.45010972      -1.94793318      -0.05267840
H       -1.01951494      -1.30142377       1.47577492
19
Frame=6 idx=008670 GeodesicLength=0.5500291966655094 rxn_smarts="[C:1]([C:2]1([O:3][H:11])[C:4]([H:12])([H:13])[C:5]([H:14])([H:15])[C:6]([H:16])([H:17])[C:7]1([H:18])[H:19])([H:8])([H:9])[H:10]>>[C:1]([H:8])([H:9])([H:10])[H:13].[C:2]1([O:3][H:11])=[C:4]([H:12])[C:5]([H:14])([H:15])[C:6]([H:16])([H:17])[C:7]1([H:18])[H:19]"
C        1.75413780      -0.66548044      -1.11197647
C        0.49725779      -0.10511284       0.61597122
O        1.30624410      -0.38372030       1.66017389
C        0.10887126       1.23450772       0.28612882
C       -1.39692855       1.28508785       0.15764029
C       -1.75668079      -0.16342582      -0.22006009
C       -0.68720401      -1.02288924       0.46468073
H        2.71753924      -0.15496939      -1.01850404
H        1.43151776      -0.67471227      -2.15745986
H        1.92872365      -1.70929059      -0.84456996
H        2.11332217       0.13157898       1.64666264
H        0.67424760       2.07723555       0.67135043
H        0.84758801       0.58158415      -0.81815724
H       -1.87669681       1.56852270       1.10154743
H       -1.73399756       1.99548212      -0.59967836
H       -1.69314329      -0.29323324      -1.30279901
H       -2.76717778      -0.43847583       0.08248985
H       -0.45372603      -1.93779957      -0.07809226
H       -1.01389456      -1.32488952       1.46465201
19
Frame=7 idx=008670 GeodesicLength=0.6405946790508272 rxn_smarts="[C:1]([C:2]1([O:3][H:11])[C:4]([H:12])([H:13])[C:5]([H:14])([H:15])[C:6]([H:16])([H:17])[C:7]1([H:18])[H:19])([H:8])([H:9])[H:10]>>[C:1]([H:8])([H:9])([H:10])[H:13].[C:2]1([O:3][H:11])=[C:4]([H:12])[C:5]([H:14])([H:15])[C:6]([H:16])([H:17])[C:7]1([H:18])[H:19]"
C        1.76908910      -0.66408307      -1.10449393
C        0.49424986      -0.10218212       0.60734504
O        1.27971652      -0.35858498       1.67866481
C        0.10613382       1.23442031       0.26525094
C       -1.40143972       1.28728731       0.16104881
C       -1.77104729      -0.16152647      -0.20562642
C       -0.68920976      -1.02292112       0.45835263
H        2.73166569      -0.15754883      -0.98587793
H        1.47936812      -0.68059853      -2.15917000
H        1.94170709      -1.70884675      -0.83806062
H        2.12231281       0.09368178       1.63714834
H        0.66889067       2.07952454       0.65043398
H        0.85237280       0.59197114      -0.86398564
H       -1.86350659       1.57497957       1.11221401
H       -1.74868366       1.99660065      -0.59269357
H       -1.73116503      -0.29358382      -1.28922053
H       -2.77583507      -0.43301146       0.11841904
H       -0.45721635      -1.92722336      -0.10322150
H       -1.00740301      -1.34835480       1.45347253
19
Frame=8 idx=008670 GeodesicLength=0.7309116644334192 rxn_smarts="[C:1]([C:2]1([O:3][H:11])[C:4]([H:12])([H:13])[C:5]([H:14])([H:15])[C:6]([H:16])([H:17])[C:7]1([H:18])[H:19])([H:8])([H:9])[H:10]>>[C:1]([H:8])([H:9])([H:10])[H:13].[C:2]1([O:3][H:11])=[C:4]([H:12])[C:5]([H:14])([H:15])[C:6]([H:16])([H:17])[C:7]1([H:18])[H:19]"
C        1.78345105      -0.66157519      -1.09742931
C        0.49134482      -0.09920409       0.59910960
O        1.25355816      -0.33224732       1.69611695
C        0.10353880       1.23400000       0.24343622
C       -1.40549779       1.28942318       0.16380711
C       -1.78510140      -0.15989982      -0.19037421
C       -0.69101594      -1.02305877       0.45243108
H        2.74443096      -0.15889179      -0.95322893
H        1.52780813      -0.68508075      -2.16047006
H        1.95445888      -1.70737568      -0.83242681
H        2.12786755       0.05101926       1.63130261
H        0.66384430       2.08167814       0.62799118
H        0.85747886       0.60226847      -0.91129727
H       -1.84947522       1.58213673       1.12178151
H       -1.76288399       1.99716382      -0.58671360
H       -1.76961554      -0.29479463      -1.27425065
H       -2.78353295      -0.42750786       0.15586770
H       -0.46064657      -1.91625141      -0.12798514
H       -1.00001210      -1.37180229       1.44233200
19
Frame=9 idx=008670 GeodesicLength=0.8207593719558096 rxn_smarts="[C:1]([C:2]1([O:3][H:11])[C:4]([H:12])([H:13])[C:5]([H:14])([H:15])[C:6]([H:16])([H:17])[C:7]1([H:18])[H:19])([H:8])([H:9])[H:10]>>[C:1]([H:8])([H:9])([H:10])[H:13].[C:2]1([O:3][H:11])=[C:4]([H:12])[C:5]([H:14])([H:15])[C:6]([H:16])([H:17])[C:7]1([H:18])[H:19]"
C        1.79710366      -0.65790999      -1.09083262
C        0.48849570      -0.09613251       0.59133968
O        1.22791045      -0.30468669       1.71237292
C        0.10100618       1.23320224       0.22084012
C       -1.40909110       1.29145164       0.16588427
C       -1.79864892      -0.15854819      -0.17429392
C       -0.69255593      -1.02322728       0.44703240
H        2.75569008      -0.15910012      -0.92053691
H        1.57677486      -0.68798974      -2.16130285
H        1.96680627      -1.70483663      -0.82784282
H        2.12957139       0.00319702       1.62870169
H        0.65889199       2.08363955       0.60422839
H        0.86298911       0.61254767      -0.95996295
H       -1.83474922       1.59002640       1.13009023
H       -1.77648991       1.99703656      -0.58180837
H       -1.80811282      -0.29694959      -1.25778581
H       -2.79002895      -0.42192879       0.19468956
H       -0.46391941      -1.90484036      -0.15216566
H       -0.99164343      -1.39495119       1.43135265
19
Frame=10 idx=008670 GeodesicLength=0.910310126951624 rxn_smarts="[C:1]([C:2]1([O:3][H:11])[C:4]([H:12])([H:13])[C:5]([H:14])([H:15])[C:6]([H:16])([H:17])[C:7]1([H:18])[H:19])([H:8])([H:9])[H:10]>>[C:1]([H:8])([H:9])([H:10])[H:13].[C:2]1([O:3][H:11])=[C:4]([H:12])[C:5]([H:14])([H:15])[C:6]([H:16])([H:17])[C:7]1([H:18])[H:19]"
C        1.81013508      -0.65301426      -1.08475198
C        0.48573697      -0.09298920       0.58403774
O        1.20318226      -0.27618014       1.72734064
C        0.09857396       1.23200353       0.19743361
C       -1.41224189       1.29338612       0.16720635
C       -1.81177517      -0.15748015      -0.15735436
C       -0.69387687      -1.02350568       0.44219530
H        2.76555819      -0.15815687      -0.88781564
H        1.62628958      -0.68910661      -2.16165287
H        1.97881236      -1.70120218      -0.82439526
H        2.12698870      -0.04976476       1.62960859
H        0.65412856       2.08541676       0.57912257
H        0.86902242       0.62288184      -1.01007303
H       -1.81932807       1.59870230       1.13705653
H       -1.78955295       1.99624360      -0.57812780
H       -1.84683612      -0.30005801      -1.23977767
H       -2.79538154      -0.41624063       0.23499480
H       -0.46716242      -1.89309010      -0.17570869
H       -0.98227304      -1.41784557       1.42066116
19
Frame=11 idx=008670 GeodesicLength=0.9994932770261631 rxn_smarts="[C:1]([C:2]1([O:3][H:11])[C:4]([H:12])([H:13])[C:5]([H:14])([H:15])[C:6]([H:16])([H:17])[C:7]1([H:18])[H:19])([H:8])([H:9])[H:10]>>[C:1]([H:8])([H:9])([H:10])[H:13].[C:2]1([O:3][H:11])=[C:4]([H:12])[C:5]([H:14])([H:15])[C:6]([H:16])([H:17])[C:7]1([H:18])[H:19]"
C        1.82252198      -0.64683591      -1.07923218
C        0.48304416      -0.08974871       0.57721478
O        1.17971465      -0.24683765       1.74083440
C        0.09620574       1.23035845       0.17328385
C       -1.41494988       1.29519024       0.16774340
C       -1.82438810      -0.15669081      -0.13951986
C       -0.69494917      -1.02386669       0.43800351
H        2.77399746      -0.15618539      -0.85498848
H        1.67641086      -0.68821133      -2.16148108
H        1.99037247      -1.69643935      -0.82224201
H        2.11945452      -0.10804452       1.63380190
H        0.64945083       2.08695802       0.55277257
H        0.87569557       0.63334158      -1.06159201
H       -1.80328441       1.60818918       1.14257444
H       -1.80204637       1.99468334      -0.57574342
H       -1.88562470      -0.30416669      -1.22012233
H       -2.79944433      -0.41038810       0.27676301
H       -0.47035943      -1.88100157      -0.19846571
H       -0.97182188      -1.44030411       1.41039522
19
Frame=12 idx=008670 GeodesicLength=1.088343275336309 rxn_smarts="[C:1]([C:2]1([O:3][H:11])[C:4]([H:12])([H:13])[C:5]([H:14])([H:15])[C:6]([H:16])([H:17])[C:7]1([H:18])[H:19])([H:8])([H:9])[H:10]>>[C:1]([H:8])([H:9])([H:10])[H:13].[C:2]1([O:3][H:11])=[C:4]([H:12])[C:5]([H:14])([H:15])[C:6]([H:16])([H:17])[C:7]1([H:18])[H:19]"
C        1.83431391      -0.63934271      -1.07431353
C        0.48040609      -0.08641448       0.57085337
O        1.15799443      -0.21690212       1.75263760
C        0.09389202       1.22823312       0.14843775
C       -1.41723397       1.29684696       0.16748363
C       -1.83646458      -0.15617079      -0.12075544
C       -0.69577975      -1.02433100       0.43451425
H        2.78105973      -0.15331871      -0.82201440
H        1.72720354      -0.68512926      -2.16073485
H        2.00146693      -1.69054719      -0.82150661
H        2.10620101      -0.17153104       1.64113808
H        0.64482060       2.08823073       0.52526716
H        0.88318286       0.64401274      -1.11450702
H       -1.78668515       1.61851001       1.14658220
H       -1.81399048       1.99231226      -0.57469850
H       -1.92442760      -0.30928582      -1.19873090
H       -2.80216047      -0.40431117       0.31999795
H       -0.47355152      -1.86863277      -0.22033537
H       -0.96024759      -1.46222877       1.40068463
19
Frame=13 idx=008670 GeodesicLength=1.176920937948429 rxn_smarts="[C:1]([C:2]1([O:3][H:11])[C:4]([H:12])([H:13])[C:5]([H:14])([H:15])[C:6]([H:16])([H:17])[C:7]1([H:18])[H:19])([H:8])([H:9])[H:10]>>[C:1]([H:8])([H:9])([H:10])[H:13].[C:2]1([O:3][H:11])=[C:4]([H:12])[C:5]([H:14])([H:15])[C:6]([H:16])([H:17])[C:7]1([H:18])[H:19]"
C        1.84560158      -0.63055668      -1.07001507
C        0.47780477      -0.08303116       0.56490732
O        1.13858860      -0.18676042       1.76247454
C        0.09162605       1.22560307       0.12295719
C       -1.41913224       1.29836345       0.16646231
C       -1.84801577      -0.15590077      -0.10102822
C       -0.69640052      -1.02496652       0.43174638
H        2.78685291      -0.14976090      -0.78885788
H        1.77876179      -0.67976234      -2.15931878
H        2.01211644      -1.68359891      -0.82227150
H        2.08642516      -0.23965661       1.65136913
H        0.64021280       2.08921727       0.49672311
H        0.89171687       0.65499406      -1.16876772
H       -1.76961509       1.62968493       1.14906636
H       -1.82543919       1.98915672      -0.57494670
H       -1.96322260      -0.31537787      -1.17550727
H       -2.80352752      -0.39794335       0.36467810
H       -0.47680803      -1.85609731      -0.24127040
H       -0.94754602      -1.48360665       1.39159912
19
Frame=14 idx=008670 GeodesicLength=1.2652080617375485 rxn_smarts="[C:1]([C:2]1([O:3][H:11])[C:4]([H:12])([H:13])[C:5]([H:14])([H:15])[C:6]([H:16])([H:17])[C:7]1([H:18])[H:19])([H:8])([H:9])[H:10]>>[C:1]([H:8])([H:9])([H:10])[H:13].[C:2]1([O:3][H:11])=[C:4]([H:12])[C:5]([H:14])([H:15])[C:6]([H:16])([H:17])[C:7]1([H:18])[H:19]"
C        1.85639069      -0.62054289      -1.06632936
C        0.47517742      -0.07971326       0.55932654
O        1.12195081      -0.15698487       1.77015854
C        0.08942651       1.22230858       0.09694412
C       -1.42057679       1.29964320       0.16477021
C       -1.85898410      -0.15582710      -0.08035827
C       -0.69686501      -1.02580910       0.42962504
H        2.79133922      -0.14571414      -0.75555947
H        1.83096942      -0.67215469      -2.15711212
H        2.02231350      -1.67559889      -0.82450076
H        2.05939965      -0.31096602       1.66424561
H        0.63564198       2.08967560       0.46735055
H        0.90151582       0.66627232      -1.22430086
H       -1.75200564       1.64155937       1.15011407
H       -1.83630337       1.98514358      -0.57635303
H       -2.00193415      -0.32229369      -1.15043995
H       -2.80342595      -0.39117869       0.41071704
H       -0.48025019      -1.84338618      -0.26138311
H       -0.93377985      -1.50443312       1.38308523
19
Frame=15 idx=008670 GeodesicLength=1.3531878020237724 rxn_smarts="[C:1]([C:2]1([O:3][H:11])[C:4]([H:12])([H:13])[C:5]([H:14])([H:15])[C:6]([H:16])([H:17])[C:7]1([H:18])[H:19])([H:8])([H:9])[H:10]>>[C:1]([H:8])([H:9])([H:10])[H:13].[C:2]1([O:3][H:11])=[C:4]([H:12])[C:5]([H:14])([H:15])[C:6]([H:16])([H:17])[C:7]1([H:18])[H:19]"
C        1.86662760      -0.60943700      -1.06321253
C        0.47242866      -0.07663005       0.55406174
O        1.10835982      -0.12825939       1.77558405
C        0.08730918       1.21815610       0.07056121
C       -1.42146772       1.30056986       0.16255060
C       -1.86928206      -0.15588689      -0.05880680
C       -0.69724385      -1.02691450       0.42799756
H        2.79441329      -0.14142333      -0.72221619
H        1.88358602      -0.66249956      -2.15394798
H        2.03201584      -1.66658671      -0.82805481
H        2.02473165      -0.38333386       1.67934940
H        0.63111449       2.08930029       0.43745337
H        0.91283616       0.67781769      -1.28094065
H       -1.73376347       1.65390562       1.14986815
H       -1.84643554       1.98021354      -0.57868118
H       -2.04042116      -0.32981751      -1.12355712
H       -2.80170277      -0.38391504       0.45794373
H       -0.48402048      -1.83047788      -0.28089045
H       -0.91908566      -1.52478137       1.37493790
19
Frame=16 idx=008670 GeodesicLength=1.4411388013551 rxn_smarts="[C:1]([C:2]1([O:3][H:11])[C:4]([H:12])([H:13])[C:5]([H:14])([H:15])[C:6]([H:16])([H:17])[C:7]1([H:18])[H:19])([H:8])([H:9])[H:10]>>[C:1]([H:8])([H:9])([H:10])[H:13].[C:2]1([O:3][H:11])=[C:4]([H:12])[C:5]([H:14])([H:15])[C:6]([H:16])([H:17])[C:7]1([H:18])[H:19]"
C        1.87642656      -0.59746437      -1.06062425
C        0.46950659      -0.07401998       0.54908274
O        1.09792697      -0.10136174       1.77884060
C        0.08530328       1.21306247       0.04398761
C       -1.42186054       1.30115721       0.15995797
C       -1.87905316      -0.15602300      -0.03644676
C       -0.69771776      -1.02847692       0.42667589
H        2.79626614      -0.13713277      -0.68905177
H        1.93642107      -0.65113657      -2.14968932
H        2.04140360      -1.65678535      -0.83269730
H        1.98291471      -0.45431589       1.69621684
H        0.62673452       2.08795801       0.40734786
H        0.92607987       0.68972297      -1.33849539
H       -1.71498617       1.66659399       1.14850355
H       -1.85587506       1.97456005      -0.58168436
H       -2.07879674      -0.33767977      -1.09491416
H       -2.79854085      -0.37610975       0.50619274
H       -0.48835813      -1.81751453      -0.30006808
H       -0.90379489      -1.54503408       1.36686559
