11
Frame=0 idx=000153 GeodesicLength=0.0 rxn_smarts="[C:1]([N:2]1[C:3]([H:8])([H:9])[C:4]1([H:10])[H:11])([H:5])([H:6])[H:7]>>[C-:1]([N+:2]1=[C:3]([H:8])[C:4]1([H:10])[H:11])([H:6])[H:7].[H:5][H:9]"
C        1.33644555       0.38585103       0.17055719
N        0.36277253      -0.38703403      -0.27739739
C       -0.76595388      -0.85961036       0.26678151
C       -0.85249433      -0.11529356      -1.01441334
H        0.01270144       0.99485446       1.39727776
H        1.74947532       1.12063351      -0.50846104
H        1.96642932      -0.01220663       0.95614321
H       -1.02698543      -1.85578485       0.58676781
H       -0.63292545       0.41422477       1.37514875
H       -0.90923192      -0.58917407      -1.99042366
H       -1.24023318       0.90353974      -0.96198082
11
Frame=1 idx=000153 GeodesicLength=0.0844973231195626 rxn_smarts="[C:1]([N:2]1[C:3]([H:8])([H:9])[C:4]1([H:10])[H:11])([H:5])([H:6])[H:7]>>[C-:1]([N+:2]1=[C:3]([H:8])[C:4]1([H:10])[H:11])([H:6])[H:7].[H:5][H:9]"
C        1.33604391       0.39049407       0.17994441
N        0.35174622      -0.36332356      -0.28042819
C       -0.77802542      -0.83739445       0.26886221
C       -0.85985650      -0.12207818      -1.02862696
H        0.04039865       0.98416060       1.42454173
H        1.74096850       1.14481070      -0.48260014
H        1.98628055      -0.04320921       0.92938770
H       -1.02669802      -1.83637107       0.59083078
H       -0.63807804       0.40940022       1.39482990
H       -0.89633374      -0.62045846      -1.99360568
H       -1.25644612       0.89396935      -1.00313578
11
Frame=2 idx=000153 GeodesicLength=0.16897959112550373 rxn_smarts="[C:1]([N:2]1[C:3]([H:8])([H:9])[C:4]1([H:10])[H:11])([H:5])([H:6])[H:7]>>[C-:1]([N+:2]1=[C:3]([H:8])[C:4]1([H:10])[H:11])([H:6])[H:7].[H:5][H:9]"
C        1.33562973       0.39507896       0.18945168
N        0.34003123      -0.33799211      -0.28319401
C       -0.79091390      -0.81378655       0.27070428
C       -0.86696611      -0.12926543      -1.04326476
H        0.06953367       0.97145364       1.45340901
H        1.73230114       1.16942622      -0.45501681
H        2.00547349      -0.07395803       0.89937518
H       -1.02695661      -1.81530535       0.59526256
H       -0.64331095       0.40403594       1.41539185
H       -0.88205635      -0.65273405      -1.99572447
H       -1.27276535       0.88304675      -1.04639452
11
Frame=3 idx=000153 GeodesicLength=0.25339322063729164 rxn_smarts="[C:1]([N:2]1[C:3]([H:8])([H:9])[C:4]1([H:10])[H:11])([H:5])([H:6])[H:7]>>[C-:1]([N+:2]1=[C:3]([H:8])[C:4]1([H:10])[H:11])([H:6])[H:7].[H:5][H:9]"
C        1.33519229       0.39958707       0.19902973
N        0.32752456      -0.31078517      -0.28571061
C       -0.80467922      -0.78860884       0.27229395
C       -0.87378902      -0.13689554      -1.05830561
H        0.10025733       0.95639301       1.48388232
H        1.72357128       1.19441899      -0.42554386
H        2.02380449      -0.10430456       0.86588440
H       -1.02778904      -1.79239104       0.60005943
H       -0.64862811       0.39809910       1.43684153
H       -0.86626092      -0.68605336      -1.99656832
H       -1.28920364       0.87054034      -1.09186297
11
Frame=4 idx=000153 GeodesicLength=0.33773804416295117 rxn_smarts="[C:1]([N:2]1[C:3]([H:8])([H:9])[C:4]1([H:10])[H:11])([H:5])([H:6])[H:7]>>[C-:1]([N+:2]1=[C:3]([H:8])[C:4]1([H:10])[H:11])([H:6])[H:7].[H:5][H:9]"
C        1.33475136       0.40400151       0.20861411
N        0.31410869      -0.28138257      -0.28800138
C       -0.81940234      -0.76167295       0.27362606
C       -0.88030851      -0.14501408      -1.07373236
H        0.13273596       0.93857238       1.51593524
H        1.71494425       1.21975226      -0.39398791
H        2.04107466      -0.13409619       0.82871496
H       -1.02923598      -1.76743035       0.60524306
H       -0.65404390       0.39155894       1.45917794
H       -0.84880153      -0.72046167      -1.99591103
H       -1.30582266       0.85617275      -1.13967869
11
Frame=5 idx=000153 GeodesicLength=0.42214064578344146 rxn_smarts="[C:1]([N:2]1[C:3]([H:8])([H:9])[C:4]1([H:10])[H:11])([H:5])([H:6])[H:7]>>[C-:1]([N+:2]1=[C:3]([H:8])[C:4]1([H:10])[H:11])([H:6])[H:7].[H:5][H:9]"
C        1.33421034       0.40833933       0.21817350
N        0.29964555      -0.24932211      -0.29007354
C       -0.83510860      -0.73273679       0.27467373
C       -0.88645458      -0.15364471      -1.08947126
H        0.16706762       0.91765917       1.54942132
H        1.70664016       1.24523218      -0.36015301
H        2.05686334      -0.16327471       0.78746319
H       -1.03120889      -1.74022155       0.61084040
H       -0.65960871       0.38429671       1.48243223
H       -0.82938720      -0.75596021      -1.99336624
H       -1.32265904       0.83963271      -1.18994031
11
Frame=6 idx=000153 GeodesicLength=0.5064116297006106 rxn_smarts="[C:1]([N:2]1[C:3]([H:8])([H:9])[C:4]1([H:10])[H:11])([H:5])([H:6])[H:7]>>[C-:1]([N+:2]1=[C:3]([H:8])[C:4]1([H:10])[H:11])([H:6])[H:7].[H:5][H:9]"
C        1.33360401       0.41252660       0.22754553
N        0.28395672      -0.21415691      -0.29197602
C       -0.85188483      -0.70157864       0.27543632
C       -0.89218288      -0.16284771      -1.10544258
H        0.20346359       0.89300789       1.58421604
H        1.69888533       1.27079495      -0.32379812
H        2.07089961      -0.19155925       0.74201923
H       -1.03377650      -1.71048866       0.61682021
H       -0.66533197       0.37636793       1.50649872
H       -0.80781290      -0.79254552      -1.98860617
H       -1.33982016       0.82047932      -1.24271315
11
Frame=7 idx=000153 GeodesicLength=0.5905530007558414 rxn_smarts="[C:1]([N:2]1[C:3]([H:8])([H:9])[C:4]1([H:10])[H:11])([H:5])([H:6])[H:7]>>[C-:1]([N+:2]1=[C:3]([H:8])[C:4]1([H:10])[H:11])([H:6])[H:7].[H:5][H:9]"
C        1.33284160       0.41653240       0.23659761
N        0.26682009      -0.17523677      -0.29372959
C       -0.86977158      -0.66793357       0.27590414
C       -0.89738810      -0.17265699      -1.12149618
H        0.24203912       0.86402869       1.62003306
H        1.69199777       1.29621526      -0.28466229
H        2.08269554      -0.21881910       0.69202760
H       -1.03684859      -1.67797481       0.62318823
H       -0.67129763       0.36777177       1.53128956
H       -0.78367774      -0.83012833      -1.98112665
H       -1.35741047       0.79820144      -1.29802550
11
Frame=8 idx=000153 GeodesicLength=0.6744359104999771 rxn_smarts="[C:1]([N:2]1[C:3]([H:8])([H:9])[C:4]1([H:10])[H:11])([H:5])([H:6])[H:7]>>[C-:1]([N+:2]1=[C:3]([H:8])[C:4]1([H:10])[H:11])([H:6])[H:7].[H:5][H:9]"
C        1.33181006       0.42026421       0.24509267
N        0.24793977      -0.13181413      -0.29533748
C       -0.88881535      -0.63153301       0.27609020
C       -0.90190151      -0.18310983      -1.13740041
H        0.28289950       0.82994964       1.65646381
H        1.68630146       1.32124934      -0.24240843
H        2.09173486      -0.24489179       0.63711715
H       -1.04034428      -1.64237556       0.62991545
H       -0.67761523       0.35865594       1.55658886
H       -0.75645143      -0.86852401      -1.97033114
H       -1.37555785       0.77212920      -1.35579069
11
Frame=9 idx=000153 GeodesicLength=0.7582946028086026 rxn_smarts="[C:1]([N:2]1[C:3]([H:8])([H:9])[C:4]1([H:10])[H:11])([H:5])([H:6])[H:7]>>[C-:1]([N+:2]1=[C:3]([H:8])[C:4]1([H:10])[H:11])([H:6])[H:7].[H:5][H:9]"
C        1.33029070       0.42366119       0.25279208
N        0.22706293      -0.08304183      -0.29675742
C       -0.90899336      -0.59225136       0.27601765
C       -0.90547659      -0.19414010      -1.15281868
H        0.32595695       0.79036920       1.69273808
H        1.68234785       1.34532740      -0.19695055
H        2.09716964      -0.26956399       0.57696999
H       -1.04405773      -1.60365181       0.63698604
H       -0.68448116       0.34892280       1.58228154
H       -0.72552706      -0.90727759      -1.95551324
H       -1.39429217       0.74164610      -1.41574549
11
Frame=10 idx=000153 GeodesicLength=0.8418443685695985 rxn_smarts="[C:1]([N:2]1[C:3]([H:8])([H:9])[C:4]1([H:10])[H:11])([H:5])([H:6])[H:7]>>[C-:1]([N+:2]1=[C:3]([H:8])[C:4]1([H:10])[H:11])([H:6])[H:7].[H:5][H:9]"
C        1.32798442       0.42653427       0.25920127
N        0.20389576      -0.02841811      -0.29790292
C       -0.93029113      -0.55008410       0.27576500
C       -0.90765879      -0.20563181      -1.16721571
H        0.37101187       0.74462451       1.72781648
H        1.68036523       1.36788179      -0.14825093
H        2.09838309      -0.29238329       0.51142532
H       -1.04800473      -1.56172365       0.64429924
H       -0.69209995       0.33881091       1.60796131
H       -0.69022899      -0.94565605      -1.93589607
H       -1.41335678       0.70604551      -1.47720298
11
Frame=11 idx=000153 GeodesicLength=0.9251366682215632 rxn_smarts="[C:1]([N:2]1[C:3]([H:8])([H:9])[C:4]1([H:10])[H:11])([H:5])([H:6])[H:7]>>[C-:1]([N+:2]1=[C:3]([H:8])[C:4]1([H:10])[H:11])([H:6])[H:7].[H:5][H:9]"
C        1.32447054       0.42874272       0.26381472
N        0.17852899       0.03168724      -0.29859370
C       -0.95254370      -0.50550000       0.27545165
C       -0.90783971      -0.21723208      -1.17986884
H        0.41750362       0.69283865       1.76015660
H        1.68037555       1.38799972      -0.09698559
H        2.09480043      -0.31250589       0.44082518
H       -1.05232680      -1.51709075       0.65173692
H       -0.70083499       0.32833252       1.63318291
H       -0.65032713      -0.98249243      -1.91082743
H       -1.43180678       0.66522031      -1.53889241
11
Frame=12 idx=000153 GeodesicLength=1.0082706080500885 rxn_smarts="[C:1]([N:2]1[C:3]([H:8])([H:9])[C:4]1([H:10])[H:11])([H:5])([H:6])[H:7]>>[C-:1]([N+:2]1=[C:3]([H:8])[C:4]1([H:10])[H:11])([H:6])[H:7].[H:5][H:9]"
C        1.31941008       0.43021267       0.26624132
N        0.15173546       0.09516875      -0.29865188
C       -0.97542329      -0.45950283       0.27522214
C       -0.90541234      -0.22841809      -1.18997222
H        0.46461803       0.63560734       1.78809548
H        1.68165454       1.40486808      -0.04445439
H        2.08670702      -0.32848463       0.36616527
H       -1.05756999      -1.47076041       0.65918731
H       -0.71126989       0.31777740       1.65718390
H       -0.60670214      -1.01653827      -1.88008112
H       -1.44774747       0.62007000      -1.59893581
11
Frame=13 idx=000153 GeodesicLength=1.091362174178642 rxn_smarts="[C:1]([N:2]1[C:3]([H:8])([H:9])[C:4]1([H:10])[H:11])([H:5])([H:6])[H:7]>>[C-:1]([N+:2]1=[C:3]([H:8])[C:4]1([H:10])[H:11])([H:6])[H:7].[H:5][H:9]"
C        1.31288234       0.43090589       0.26634710
N        0.12499440       0.15843273      -0.29816847
C       -0.99837095      -0.41346097       0.27517233
C       -0.90025430      -0.23867737      -1.19699414
H        0.51150771       0.57388293       1.81015426
H        1.68290752       1.41818352       0.00795274
H        2.07556404      -0.33870972       0.28953950
H       -1.06428800      -1.42406862       0.66658058
H       -0.72405001       0.30798237       1.67891509
H       -0.56167352      -1.04699399      -1.84429324
H       -1.45921923       0.57252324      -1.65520576
11
Frame=14 idx=000153 GeodesicLength=1.1745995782852325 rxn_smarts="[C:1]([N:2]1[C:3]([H:8])([H:9])[C:4]1([H:10])[H:11])([H:5])([H:6])[H:7]>>[C-:1]([N+:2]1=[C:3]([H:8])[C:4]1([H:10])[H:11])([H:6])[H:7].[H:5][H:9]"
C        1.30536111       0.43092932       0.26453976
N        0.09978356       0.21822929      -0.29750265
C       -1.02074416      -0.36865677       0.27526382
C       -0.89286772      -0.24774052      -1.20087986
H        0.55746084       0.50880760       1.82564071
H        1.68321831       1.42796435       0.05908695
H        2.06323134      -0.34218680       0.21323141
H       -1.07244243      -1.37831121       0.67389904
H       -0.73981864       0.29999744       1.69762634
H       -0.51795954      -1.07371332      -1.80472188
H       -1.46522267       0.52468062      -1.70618363
11
Frame=15 idx=000153 GeodesicLength=1.2580162385756049 rxn_smarts="[C:1]([N:2]1[C:3]([H:8])([H:9])[C:4]1([H:10])[H:11])([H:5])([H:6])[H:7]>>[C-:1]([N+:2]1=[C:3]([H:8])[C:4]1([H:10])[H:11])([H:6])[H:7].[H:5][H:9]"
C        1.29743119       0.43036986       0.26133480
N        0.07692108       0.27304837      -0.29704700
C       -1.04209869      -0.32571101       0.27540604
C       -0.88400706      -0.25567414      -1.20199733
H        0.60221646       0.44088066       1.83458418
H        1.68222205       1.43456827       0.10876558
H        2.05123603      -0.33885205       0.13871029
H       -1.08155085      -1.33410226       0.68123488
H       -0.75896126       0.29488986       1.71306196
H       -0.47728623      -1.09717072      -1.76262019
H       -1.46612272       0.47775318      -1.75143321
11
Frame=16 idx=000153 GeodesicLength=1.3415900651007018 rxn_smarts="[C:1]([N:2]1[C:3]([H:8])([H:9])[C:4]1([H:10])[H:11])([H:5])([H:6])[H:7]>>[C-:1]([N+:2]1=[C:3]([H:8])[C:4]1([H:10])[H:11])([H:6])[H:7].[H:5][H:9]"
C        1.28951475       0.42930380       0.25714265
N        0.05660449       0.32283879      -0.29709206
C       -1.06220523      -0.28470296       0.27549556
C       -0.87430090      -0.26270703      -1.20082904
H        0.64588057       0.37011632       1.83724424
H        1.67992094       1.43831559       0.15741575
H        2.04038171      -0.32909898       0.06659529
H       -1.09100240      -1.29149095       0.68872198
H       -0.78162006       0.29338456       1.72539379
H       -0.44028448      -1.11802611      -1.71883581
H       -1.46288939       0.43206697      -1.79125234
