13
Frame=0 idx=002366 GeodesicLength=0.0 rxn_smarts="[C:1]1([H:6])([H:7])[C@:2]2([H:8])[C:3]([H:9])([H:10])[C:4]([H:11])([H:12])[C@:5]12[H:13]>>[C:1]([C:2][H:8])([C:5]1([H:13])[C:3]([H:9])([H:10])[C:4]1([H:11])[H:12])([H:6])[H:7]"
C        1.39081561      -0.53111255      -0.16080336
C        1.26353088       0.91209363       0.17686012
C       -0.87856969       0.89976066      -0.04408705
C       -1.24029344      -0.45593795      -0.53108576
C       -0.01844264      -0.47853640       0.31846146
H        1.52513358      -0.76857131      -1.21514154
H        1.99902954      -1.16803097       0.47855581
H        1.37639690       1.01058265       1.26755239
H       -0.63690399       1.64354817      -0.77923924
H       -1.39731796       1.27713879       0.82626968
H       -2.10689775      -0.93923098      -0.09860555
H       -1.10669477      -0.64300276      -1.58954335
H       -0.16978625      -0.75870101       1.35080641
13
Frame=1 idx=002366 GeodesicLength=0.04195175512973585 rxn_smarts="[C:1]1([H:6])([H:7])[C@:2]2([H:8])[C:3]([H:9])([H:10])[C:4]([H:11])([H:12])[C@:5]12[H:13]>>[C:1]([C:2][H:8])([C:5]1([H:13])[C:3]([H:9])([H:10])[C:4]1([H:11])[H:12])([H:6])[H:7]"
C        1.38920585      -0.52836005      -0.16357751
C        1.25198596       0.90818386       0.19328314
C       -0.87262460       0.90344847      -0.04952498
C       -1.23674943      -0.45688658      -0.52721235
C       -0.01757157      -0.48336043       0.32774590
H        1.51558130      -0.75153734      -1.22195870
H        2.00473892      -1.16853359       0.46528965
H        1.38342293       1.00660793       1.28127526
H       -0.63530652       1.63973636      -0.79478806
H       -1.40214125       1.29049025       0.81040682
H       -2.10893417      -0.92988264      -0.09403693
H       -1.10422951      -0.65484954      -1.58399405
H       -0.16737790      -0.77505669       1.35709182
13
Frame=2 idx=002366 GeodesicLength=0.08388875770575605 rxn_smarts="[C:1]1([H:6])([H:7])[C@:2]2([H:8])[C:3]([H:9])([H:10])[C:4]([H:11])([H:12])[C@:5]12[H:13]>>[C:1]([C:2][H:8])([C:5]1([H:13])[C:3]([H:9])([H:10])[C:4]1([H:11])[H:12])([H:6])[H:7]"
C        1.38748974      -0.52549524      -0.16625783
C        1.24042078       0.90409634       0.20967309
C       -0.86667716       0.90711759      -0.05492611
C       -1.23327555      -0.45775721      -0.52330688
C       -0.01675221      -0.48823039       0.33699580
H        1.50596110      -0.73455103      -1.22837901
H        2.01031572      -1.16866392       0.45213537
H        1.39048785       1.00290182       1.29460082
H       -0.63345620       1.63580521      -0.81009740
H       -1.40682257       1.30374989       0.79433421
H       -2.11091646      -0.92048462      -0.08952965
H       -1.10194524      -0.66652180      -1.57833311
H       -0.16482981      -0.79196666       1.36309072
13
Frame=3 idx=002366 GeodesicLength=0.12579703927515642 rxn_smarts="[C:1]1([H:6])([H:7])[C@:2]2([H:8])[C:3]([H:9])([H:10])[C:4]([H:11])([H:12])[C@:5]12[H:13]>>[C:1]([C:2][H:8])([C:5]1([H:13])[C:3]([H:9])([H:10])[C:4]1([H:11])[H:12])([H:6])[H:7]"
C        1.38566892      -0.52253198      -0.16883333
C        1.22882903       0.89982992       0.22600200
C       -0.86073302       0.91077004      -0.06027509
C       -1.22986863      -0.45854239      -0.51937753
C       -0.01598681      -0.49315224       0.34620915
H        1.49628291      -0.71766655      -1.23439343
H        2.01575578      -1.16842204       0.43913038
H        1.39759340       0.99949909       1.30748713
H       -0.63137594       1.63177911      -0.82514363
H       -1.41135548       1.31689580       0.77808538
H       -2.11283774      -0.91104938      -0.08509908
H       -1.09983313      -0.67798583      -1.57257498
H       -0.16213928      -0.80942354       1.36878304
13
Frame=4 idx=002366 GeodesicLength=0.1676902244375406 rxn_smarts="[C:1]1([H:6])([H:7])[C@:2]2([H:8])[C:3]([H:9])([H:10])[C:4]([H:11])([H:12])[C@:5]12[H:13]>>[C:1]([C:2][H:8])([C:5]1([H:13])[C:3]([H:9])([H:10])[C:4]1([H:11])[H:12])([H:6])[H:7]"
C        1.38374273      -0.51946670      -0.17130175
C        1.21720342       0.89538532       0.24229268
C       -0.85478684       0.91440724      -0.06557771
C       -1.22653312      -0.45924425      -0.51541900
C       -0.01527730      -0.49813338       0.35538812
H        1.48654726      -0.70086615      -1.24001401
H        2.02106435      -1.16781352       0.42626820
H        1.40473220       0.99640340       1.31995200
H       -0.62905901       1.62765446      -0.83994592
H       -1.41573255       1.32994411       0.76164781
H       -2.11470730      -0.90156404      -0.08072534
H       -1.09789556      -0.68926237      -1.56671383
H       -0.15929830      -0.82744412       1.37414874
13
Frame=5 idx=002366 GeodesicLength=0.2095878709770853 rxn_smarts="[C:1]1([H:6])([H:7])[C@:2]2([H:8])[C:3]([H:9])([H:10])[C:4]([H:11])([H:12])[C@:5]12[H:13]>>[C:1]([C:2][H:8])([C:5]1([H:13])[C:3]([H:9])([H:10])[C:4]1([H:11])[H:12])([H:6])[H:7]"
C        1.38171057      -0.51629537      -0.17366052
C        1.20553522       0.89076212       0.25857163
C       -0.84883328       0.91803237      -0.07084193
C       -1.22327353      -0.45986561      -0.51142430
C       -0.01462553      -0.50318305       0.36453565
H        1.47675801      -0.68412264      -1.24525249
H        2.02624661      -1.16684511       0.41353869
H        1.41189453       0.99361402       1.33201242
H       -0.62649825       1.62342777      -0.85452904
H       -1.41994432       1.34291499       0.74500967
H       -2.11653446      -0.89201267      -0.07638357
H       -1.09613329      -0.70037928      -1.56074047
H       -0.15630227      -0.84604753       1.37916425
13
Frame=6 idx=002366 GeodesicLength=0.25148894571973485 rxn_smarts="[C:1]1([H:6])([H:7])[C@:2]2([H:8])[C:3]([H:9])([H:10])[C:4]([H:11])([H:12])[C@:5]12[H:13]>>[C:1]([C:2][H:8])([C:5]1([H:13])[C:3]([H:9])([H:10])[C:4]1([H:11])[H:12])([H:6])[H:7]"
C        1.37957363      -0.51301204      -0.17590586
C        1.19381902       0.88596400       0.27486749
C       -0.84286656       0.92164408      -0.07607650
C       -1.22009835      -0.46040598      -0.50738508
C       -0.01403374      -0.50830745       0.37365319
H        1.46691861      -0.66741030      -1.25011667
H        2.03130959      -1.16552318       0.40093181
H        1.41907839       0.99112952       1.34368391
H       -0.62368284       1.61908902      -0.86890923
H       -1.42398652       1.35581852       0.72814520
H       -2.11833347      -0.88238036      -0.07205630
H       -1.09455646      -0.71135723      -1.55463754
H       -0.15314132      -0.86524860       1.38380559
13
Frame=7 idx=002366 GeodesicLength=0.29341648134659754 rxn_smarts="[C:1]1([H:6])([H:7])[C@:2]2([H:8])[C:3]([H:9])([H:10])[C:4]([H:11])([H:12])[C@:5]12[H:13]>>[C:1]([C:2][H:8])([C:5]1([H:13])[C:3]([H:9])([H:10])[C:4]1([H:11])[H:12])([H:6])[H:7]"
C        1.37733097      -0.50961135      -0.17803582
C        1.18203821       0.88098449       0.29119354
C       -0.83687537       0.92524375      -0.08128348
C       -1.21700388      -0.46086416      -0.50329106
C       -0.01350417      -0.51351460       0.38274690
H        1.45703829      -0.65071435      -1.25461664
H        2.03625517      -1.16384482       0.38844048
H        1.42626587       0.98895064       1.35497093
H       -0.62061135       1.61462374      -0.88310852
H       -1.42784727       1.36866837       0.71104994
H       -2.12009808      -0.87264605      -0.06771261
H       -1.09315927      -0.72220643      -1.54839724
H       -0.14982912      -0.88506923       1.38804360
13
Frame=8 idx=002366 GeodesicLength=0.33536750985898 rxn_smarts="[C:1]1([H:6])([H:7])[C@:2]2([H:8])[C:3]([H:9])([H:10])[C:4]([H:11])([H:12])[C@:5]12[H:13]>>[C:1]([C:2][H:8])([C:5]1([H:13])[C:3]([H:9])([H:10])[C:4]1([H:11])[H:12])([H:6])[H:7]"
C        1.37497015      -0.50611011      -0.18003144
C        1.17018462       0.87581085       0.30752716
C       -0.83086474       0.92882763      -0.08644487
C       -1.21398447      -0.46123560      -0.49915758
C       -0.01303737      -0.51881348       0.39181444
H        1.44708752      -0.63409482      -1.25873014
H        2.04107108      -1.16180277       0.37611248
H        1.43346413       0.98712457       1.36582546
H       -0.61730054       1.61006134      -0.89709330
H       -1.43150911       1.38143860       0.69375651
H       -2.12181875      -0.86283571      -0.06339241
H       -1.09193646      -0.73288475      -1.54204405
H       -0.14632607      -0.90548576       1.39185775
13
Frame=9 idx=002366 GeodesicLength=0.37734076978158787 rxn_smarts="[C:1]1([H:6])([H:7])[C@:2]2([H:8])[C:3]([H:9])([H:10])[C:4]([H:11])([H:12])[C@:5]12[H:13]>>[C:1]([C:2][H:8])([C:5]1([H:13])[C:3]([H:9])([H:10])[C:4]1([H:11])[H:12])([H:6])[H:7]"
C        1.37250866      -0.50251096      -0.18189209
C        1.15826165       0.87045214       0.32388477
C       -0.82483356       0.93240370      -0.09156060
C       -1.21105224      -0.46152247      -0.49497383
C       -0.01263751      -0.52421767       0.40085957
H        1.43710758      -0.61754249      -1.26247135
H        2.04578036      -1.15941101       0.36393934
H        1.44066686       0.98566803       1.37624938
H       -0.61375032       1.60540293      -0.91087772
H       -1.43497909       1.39415189       0.67625943
H       -2.12351880      -0.85293686      -0.05907162
H       -1.09089730      -0.74341068      -1.53556448
H       -0.14265629      -0.92652657       1.39521919
13
Frame=10 idx=002366 GeodesicLength=0.4193555992969281 rxn_smarts="[C:1]1([H:6])([H:7])[C@:2]2([H:8])[C:3]([H:9])([H:10])[C:4]([H:11])([H:12])[C@:5]12[H:13]>>[C:1]([C:2][H:8])([C:5]1([H:13])[C:3]([H:9])([H:10])[C:4]1([H:11])[H:12])([H:6])[H:7]"
C        1.36993979      -0.49880746      -0.18361136
C        1.14625210       0.86489884       0.34028782
C       -0.81877078       0.93596851      -0.09663506
C       -1.20820827      -0.46172238      -0.49073377
C       -0.01230705      -0.52973567       0.40988469
H        1.42708879      -0.60103918      -1.26584335
H        2.05038492      -1.15666444       0.35191819
H        1.44785948       0.98458673       1.38624710
H       -0.60995088       1.60063307      -0.92447497
H       -1.43823870       1.40681278       0.65854333
H       -2.12519872      -0.84292817      -0.05473276
H       -1.09004446      -0.75379685      -1.52894842
H       -0.13880622      -0.94820579       1.39809855
13
Frame=11 idx=002366 GeodesicLength=0.4614259578633164 rxn_smarts="[C:1]1([H:6])([H:7])[C@:2]2([H:8])[C:3]([H:9])([H:10])[C:4]([H:11])([H:12])[C@:5]12[H:13]>>[C:1]([C:2][H:8])([C:5]1([H:13])[C:3]([H:9])([H:10])[C:4]1([H:11])[H:12])([H:6])[H:7]"
C        1.36726157      -0.49499925      -0.18518289
C        1.13414549       0.85914267       0.35674916
C       -0.81267056       0.93952223      -0.10166665
C       -1.20545704      -0.46183584      -0.48643324
C       -0.01204853      -0.53538117       0.41888784
H        1.41703104      -0.58458196      -1.26884700
H        2.05488706      -1.15356068       0.34005397
H        1.45503037       0.98390114       1.39582147
H       -0.60589663       1.59574901      -0.93788807
H       -1.44127447       1.41943561       0.64059871
H       -2.12686246      -0.83280062      -0.05035972
H       -1.08938347      -0.76405280      -1.52219110
H       -0.13476240      -0.97053833       1.40045753
13
Frame=12 idx=002366 GeodesicLength=0.5035545431979346 rxn_smarts="[C:1]1([H:6])([H:7])[C@:2]2([H:8])[C:3]([H:9])([H:10])[C:4]([H:11])([H:12])[C@:5]12[H:13]>>[C:1]([C:2][H:8])([C:5]1([H:13])[C:3]([H:9])([H:10])[C:4]1([H:11])[H:12])([H:6])[H:7]"
C        1.36447712      -0.49108582      -0.18659477
C        1.12193074       0.85319241       0.37330433
C       -0.80652111       0.94306536      -0.10666140
C       -1.20279419      -0.46186026      -0.48205776
C       -0.01185824      -0.54115908       0.42788325
H        1.40694443      -0.56814180      -1.27148038
H        2.05928192      -1.15011736       0.32833979
H        1.46216862       0.98360296       1.40494600
H       -0.60159036       1.59073709      -0.95113995
H       -1.44408884       1.43202314       0.62241989
H       -2.12851120      -0.82253089      -0.04592847
H       -1.08890928      -0.77419516      -1.51527043
H       -0.13052962      -0.99353058       1.40223990
13
Frame=13 idx=002366 GeodesicLength=0.5457386122610929 rxn_smarts="[C:1]1([H:6])([H:7])[C@:2]2([H:8])[C:3]([H:9])([H:10])[C:4]([H:11])([H:12])[C@:5]12[H:13]>>[C:1]([C:2][H:8])([C:5]1([H:13])[C:3]([H:9])([H:10])[C:4]1([H:11])[H:12])([H:6])[H:7]"
C        1.36158596      -0.48708587      -0.18783873
C        1.10960403       0.84702472       0.38991332
C       -0.80032816       0.94659620      -0.11159166
C       -1.20022285      -0.46179090      -0.47762298
C       -0.01174412      -0.54708963       0.43685739
H        1.39683345      -0.55179547      -1.27373741
H        2.06357806      -1.14631521       0.31682769
H        1.46926808       0.98376406       1.41357809
H       -0.59704393       1.58562503      -0.96418646
H       -1.44665954       1.44455309       0.60404667
H       -2.13014233      -0.81213721      -0.04146581
H       -1.08862593      -0.78417804      -1.50821561
H       -0.12610271      -1.01717076       1.40343549
13
Frame=14 idx=002366 GeodesicLength=0.5879639865314187 rxn_smarts="[C:1]1([H:6])([H:7])[C@:2]2([H:8])[C:3]([H:9])([H:10])[C:4]([H:11])([H:12])[C@:5]12[H:13]>>[C:1]([C:2][H:8])([C:5]1([H:13])[C:3]([H:9])([H:10])[C:4]1([H:11])[H:12])([H:6])[H:7]"
C        1.35859151      -0.48301904      -0.18890227
C        1.09716232       0.84063242       0.40655667
C       -0.79409340       0.95011461      -0.11643808
C       -1.19773728      -0.46162367      -0.47313714
C       -0.01170767      -0.55318485       0.44580877
H        1.38671066      -0.53559471      -1.27561200
H        2.06777061      -1.14216376       0.30555673
H        1.47632055       0.98443366       1.42165829
H       -0.59227918       1.58043441      -0.97699951
H       -1.44897595       1.45699993       0.58552539
H       -2.13174818      -0.80163338      -0.03698836
H       -1.08852484      -0.79396650      -1.50104534
H       -0.12148913      -1.04142913       1.40401686
13
Frame=15 idx=002366 GeodesicLength=0.6302166072033641 rxn_smarts="[C:1]1([H:6])([H:7])[C@:2]2([H:8])[C:3]([H:9])([H:10])[C:4]([H:11])([H:12])[C@:5]12[H:13]>>[C:1]([C:2][H:8])([C:5]1([H:13])[C:3]([H:9])([H:10])[C:4]1([H:11])[H:12])([H:6])[H:7]"
C        1.35549734      -0.47890486      -0.18977409
C        1.08460305       0.83400761       0.42321766
C       -0.78781764       0.95361961      -0.12118175
C       -1.19533156      -0.46135590      -0.46860864
C       -0.01175046      -0.55945783       0.45473467
H        1.37658888      -0.51958679      -1.27710060
H        2.07185542      -1.13767496       0.29456373
H        1.48331683       0.98566119       1.42912849
H       -0.58731636       1.57518537      -0.98955169
H       -1.45102632       1.46933836       0.56690359
H       -2.13332141      -0.79103340      -0.03251227
H       -1.08859807      -0.80352811      -1.49377933
H       -0.11669970      -1.06627026       1.40396024
13
Frame=16 idx=002366 GeodesicLength=0.67248312820847 rxn_smarts="[C:1]1([H:6])([H:7])[C@:2]2([H:8])[C:3]([H:9])([H:10])[C:4]([H:11])([H:12])[C@:5]12[H:13]>>[C:1]([C:2][H:8])([C:5]1([H:13])[C:3]([H:9])([H:10])[C:4]1([H:11])[H:12])([H:6])[H:7]"
C        1.35230689      -0.47476321      -0.19044410
C        1.07192434       0.82714137       0.43988292
C       -0.78150074       0.95710974      -0.12580400
C       -1.19299957      -0.46098647      -0.46404595
C       -0.01187364      -0.56592263       0.46363132
H        1.36648140      -0.50381360      -1.27820205
H        2.07582795      -1.13286437       0.28388248
H        1.49024480       0.98749596       1.43593085
H       -0.58217337       1.56989748      -1.00181622
H       -1.45279859       1.48154408       0.54823005
H       -2.13485532      -0.78035180      -0.02805331
H       -1.08883746      -0.81283394      -1.48643803
H       -0.11174670      -1.09165262       1.40324603
