17
Frame=0 idx=010915 GeodesicLength=0.0 rxn_smarts="[O:1]([C:2]([C@@:3]1([H:11])[C:4]([H:12])([H:13])[C:5]([H:14])([H:15])[C:6]([H:16])([H:17])[O:7]1)([H:9])[H:10])[H:8]>>[O:1]([C:2]([C:3]([O:7][C:6]1([H:17])[C:4]([H:12])([H:13])[C:5]1([H:14])[H:15])([H:11])[H:16])([H:9])[H:10])[H:8]"
O        2.89120943      -0.09526373      -0.93950995
C        2.04262108      -0.13072819       0.18044488
C        0.59778715      -0.39969134      -0.22590841
C       -1.59427416      -1.06607819       0.12375479
C       -1.91794521       0.31857805       0.40246465
C       -0.66940947       1.19997003       0.16961651
O        0.08420838       0.73472581      -0.89524515
H        2.58482417       0.61051972      -1.51454801
H        2.07803284       0.80659927       0.75012242
H        2.39336877      -0.94319509       0.81918348
H        0.58410021      -1.30148181      -0.83678703
H       -1.80192149      -1.83822869       0.85589301
H       -1.57834669      -1.39412373      -0.90679524
H       -2.32438991       0.51230853       1.39439380
H       -2.63534732       0.67897874      -0.34854452
H        0.08349876       0.02341053       0.85155508
H       -0.81801659       2.28370017       0.11990967
17
Frame=1 idx=010915 GeodesicLength=0.09796035338674662 rxn_smarts="[O:1]([C:2]([C@@:3]1([H:11])[C:4]([H:12])([H:13])[C:5]([H:14])([H:15])[C:6]([H:16])([H:17])[O:7]1)([H:9])[H:10])[H:8]>>[O:1]([C:2]([C:3]([O:7][C:6]1([H:17])[C:4]([H:12])([H:13])[C:5]1([H:14])[H:15])([H:11])[H:16])([H:9])[H:10])[H:8]"
O        2.89336214      -0.10104522      -0.93682491
C        2.04966786      -0.14175694       0.18686103
C        0.60155317      -0.40104069      -0.21137985
C       -1.58128848      -1.04919968       0.10152011
C       -1.93275880       0.32424121       0.40954894
C       -0.69012647       1.19545650       0.14720853
O        0.09464880       0.72843249      -0.89459698
H        2.58050011       0.60446850      -1.50885048
H        2.09309265       0.79161565       0.76256464
H        2.40040227      -0.95950150       0.81901446
H        0.59107718      -1.30209239      -0.82512889
H       -1.75472607      -1.83044379       0.83318262
H       -1.60581062      -1.37515375      -0.92955325
H       -2.30850158       0.49634347       1.41695701
H       -2.67228282       0.68385397      -0.31885899
H        0.08654867       0.05926079       0.87380172
H       -0.84535800       2.27656139       0.07453430
17
Frame=2 idx=010915 GeodesicLength=0.195769597928119 rxn_smarts="[O:1]([C:2]([C@@:3]1([H:11])[C:4]([H:12])([H:13])[C:5]([H:14])([H:15])[C:6]([H:16])([H:17])[O:7]1)([H:9])[H:10])[H:8]>>[O:1]([C:2]([C:3]([O:7][C:6]1([H:17])[C:4]([H:12])([H:13])[C:5]1([H:14])[H:15])([H:11])[H:16])([H:9])[H:10])[H:8]"
O        2.89569448      -0.10655944      -0.93375572
C        2.05650495      -0.15315779       0.19330584
C        0.60526699      -0.40179101      -0.19757393
C       -1.56826888      -1.03199831       0.07970943
C       -1.94697569       0.32930200       0.41707050
C       -0.71089689       1.19031076       0.12431975
O        0.10525554       0.72322976      -0.89372476
H        2.57687894       0.59931648      -1.50222525
H        2.10835453       0.77562787       0.77582181
H        2.40653235      -0.97686783       0.81828036
H        0.59771716      -1.30180519      -0.81463091
H       -1.70910949      -1.82136126       0.80996643
H       -1.63340425      -1.35718344      -0.94990659
H       -2.29139021       0.48055992       1.43845394
H       -2.70830050       0.68709466      -0.28817413
H        0.08976910       0.09717561       0.89453704
H       -0.87362810       2.26810721       0.02852619
17
Frame=3 idx=010915 GeodesicLength=0.2934477907469255 rxn_smarts="[O:1]([C:2]([C@@:3]1([H:11])[C:4]([H:12])([H:13])[C:5]([H:14])([H:15])[C:6]([H:16])([H:17])[O:7]1)([H:9])[H:10])[H:8]>>[O:1]([C:2]([C:3]([O:7][C:6]1([H:17])[C:4]([H:12])([H:13])[C:5]1([H:14])[H:15])([H:11])[H:16])([H:9])[H:10])[H:8]"
O        2.89818614      -0.11171343      -0.93027451
C        2.06308416      -0.16494416       0.19978008
C        0.60890439      -0.40197265      -0.18451723
C       -1.55528492      -1.01453121       0.05828881
C       -1.96049298       0.33378187       0.42496780
C       -0.73164261       1.18453222       0.10104595
O        0.11598486       0.71914987      -0.89260329
H        2.57393039       0.59517597      -1.49460895
H        2.12373324       0.75854091       0.78996379
H        2.41170976      -0.99531853       0.81690645
H        0.60400576      -1.30062285      -0.80534452
H       -1.66502471      -1.81105323       0.78645249
H       -1.66121310      -1.34033443      -0.96784115
H       -2.27309218       0.46503843       1.45883398
H       -2.74319131       0.68879090      -0.25661303
H        0.09317694       0.13717883       0.91368676
H       -0.90277383       2.25830149      -0.01812343
17
Frame=4 idx=010915 GeodesicLength=0.3910158209105369 rxn_smarts="[O:1]([C:2]([C@@:3]1([H:11])[C:4]([H:12])([H:13])[C:5]([H:14])([H:15])[C:6]([H:16])([H:17])[O:7]1)([H:9])[H:10])[H:8]>>[O:1]([C:2]([C:3]([O:7][C:6]1([H:17])[C:4]([H:12])([H:13])[C:5]1([H:14])[H:15])([H:11])[H:16])([H:9])[H:10])[H:8]"
O        2.90081049      -0.11640309      -0.92635440
C        2.06935194      -0.17712839       0.20627635
C        0.61243905      -0.40162309      -0.17223502
C       -1.54239437      -0.99685658       0.03723469
C       -1.97320485       0.33771475       0.43317641
C       -0.75226883       1.17813390       0.07750644
O        0.12678080       0.71621306      -0.89120984
H        2.57161162       0.59216497      -1.48592810
H        2.13912207       0.74025192       0.80505415
H        2.41589132      -1.01487020       0.81480307
H        0.60992761      -1.29855359      -0.79732216
H       -1.62243053      -1.79959071       0.76282804
H       -1.68929674      -1.32473584      -0.98331536
H       -2.25366218       0.44985876       1.47804707
H       -2.77674429       0.68905033      -0.22431338
H        0.09679357       0.17928382       0.93117517
H       -0.93272667       2.24708998      -0.06542313
17
Frame=5 idx=010915 GeodesicLength=0.48851722544954684 rxn_smarts="[O:1]([C:2]([C@@:3]1([H:11])[C:4]([H:12])([H:13])[C:5]([H:14])([H:15])[C:6]([H:16])([H:17])[O:7]1)([H:9])[H:10])[H:8]>>[O:1]([C:2]([C:3]([O:7][C:6]1([H:17])[C:4]([H:12])([H:13])[C:5]1([H:14])[H:15])([H:11])[H:16])([H:9])[H:10])[H:8]"
O        2.90354573      -0.12051331      -0.92195844
C        2.07525174      -0.18971728       0.21279146
C        0.61584721      -0.40079551      -0.16076314
C       -1.52964787      -0.97903355       0.01651677
C       -1.98500917       0.34114186       0.44164497
C       -0.77266370       1.17113894       0.05383724
O        0.13757765       0.71440760      -0.88954091
H        2.56988186       0.59040439      -1.47610604
H        2.15439138       0.72065822       0.82115794
H        2.41903602      -1.03552956       0.81188969
H        0.61547759      -1.29561509      -0.79062051
H       -1.58129221      -1.78704808       0.73924106
H       -1.71770628      -1.31050449      -0.99627417
H       -2.23314134       0.43508206       1.49606704
H       -2.80876752       0.68800772      -0.19137815
H        0.10063257       0.22349924       0.94691818
H       -0.96341366       2.23441685      -0.11342299
17
Frame=6 idx=010915 GeodesicLength=0.585946345658766 rxn_smarts="[O:1]([C:2]([C@@:3]1([H:11])[C:4]([H:12])([H:13])[C:5]([H:14])([H:15])[C:6]([H:16])([H:17])[O:7]1)([H:9])[H:10])[H:8]>>[O:1]([C:2]([C:3]([O:7][C:6]1([H:17])[C:4]([H:12])([H:13])[C:5]1([H:14])[H:15])([H:11])[H:16])([H:9])[H:10])[H:8]"
O        2.90635993      -0.12392299      -0.91705525
C        2.08072699      -0.20270636       0.21931058
C        0.61910054      -0.39954491      -0.15011484
C       -1.51710637      -0.96112486      -0.00389293
C       -1.99581183       0.34411663       0.45029782
C       -0.79270721       1.16359438       0.03017999
O        0.14829994       0.71370798      -0.88759713
H        2.56867456       0.59000361      -1.46506967
H        2.16939095       0.69967194       0.83831015
H        2.42112489      -1.05726586       0.80806974
H        0.62065056      -1.29184117      -0.78526305
H       -1.54159035      -1.77350928       0.71582169
H       -1.74645706      -1.29775991      -1.00664457
H       -2.21157861       0.42076148       1.51286337
H       -2.83907631       0.68582484      -0.15794850
H        0.10471074       0.26978996       0.96084511
H       -0.99471135       2.22020452      -0.16211252
17
Frame=7 idx=010915 GeodesicLength=0.6833254693772651 rxn_smarts="[O:1]([C:2]([C@@:3]1([H:11])[C:4]([H:12])([H:13])[C:5]([H:14])([H:15])[C:6]([H:16])([H:17])[O:7]1)([H:9])[H:10])[H:8]>>[O:1]([C:2]([C:3]([O:7][C:6]1([H:17])[C:4]([H:12])([H:13])[C:5]1([H:14])[H:15])([H:11])[H:16])([H:9])[H:10])[H:8]"
O        2.90922919      -0.12651020      -0.91160026
C        2.08572067      -0.21608407       0.22581896
C        0.62217524      -0.39793751      -0.14031883
C       -1.50482250      -0.94319339      -0.02402840
C       -2.00553124       0.34669975       0.45908036
C       -0.81227546       1.15555368       0.00668368
O        0.15886746       0.71405086      -0.88540380
H        2.56792785       0.59106509      -1.45274221
H        2.18394278       0.67721963       0.85653281
H        2.42214790      -1.08002862       0.80325397
H        0.62545654      -1.28727938      -0.78128054
H       -1.50330886      -1.75905848       0.69266685
H       -1.77556204      -1.28660348      -1.01434345
H       -2.18902256       0.40694650       1.52841563
H       -2.86750531       0.68267148      -0.12414329
H        0.10903493       0.31811297       0.97288330
H       -1.02647458       2.20437518      -0.21147478
17
Frame=8 idx=010915 GeodesicLength=0.780663435089069 rxn_smarts="[O:1]([C:2]([C@@:3]1([H:11])[C:4]([H:12])([H:13])[C:5]([H:14])([H:15])[C:6]([H:16])([H:17])[O:7]1)([H:9])[H:10])[H:8]>>[O:1]([C:2]([C:3]([O:7][C:6]1([H:17])[C:4]([H:12])([H:13])[C:5]1([H:14])[H:15])([H:11])[H:16])([H:9])[H:10])[H:8]"
O        2.91213149      -0.12817035      -0.90553585
C        2.09017619      -0.22982762       0.23229650
C        0.62505014      -0.39603983      -0.13139992
C       -1.49283852      -0.92529665      -0.04393036
C       -2.01410019       0.34895326       0.46792778
C       -0.83125094       1.14708315      -0.01651003
O        0.16920285       0.71535848      -0.88300649
H        2.56757597       0.59365141      -1.43904040
H        2.19784367       0.65324382       0.87581735
H        2.42210636      -1.10373138       0.79735865
H        0.62991096      -1.28198484      -0.77868492
H       -1.46643867      -1.74378173       0.66983849
H       -1.80500034      -1.27711208      -1.01928752
H       -2.16550435       0.39366496       1.54271701
H       -2.89392929       0.67873984      -0.09005872
H        0.11361592       0.36841367       0.98295274
H       -1.05855126       2.18683590      -0.26145431
17
Frame=9 idx=010915 GeodesicLength=0.8777218965047306 rxn_smarts="[O:1]([C:2]([C@@:3]1([H:11])[C:4]([H:12])([H:13])[C:5]([H:14])([H:15])[C:6]([H:16])([H:17])[O:7]1)([H:9])[H:10])[H:8]>>[O:1]([C:2]([C:3]([O:7][C:6]1([H:17])[C:4]([H:12])([H:13])[C:5]1([H:14])[H:15])([H:11])[H:16])([H:9])[H:10])[H:8]"
O        2.91501973      -0.12886591      -0.89883977
C        2.09406968      -0.24392960       0.23868217
C        0.62771102      -0.39387262      -0.12338096
C       -1.48111247      -0.90752673      -0.06347337
C       -2.02156791       0.35091559       0.47662969
C       -0.84960287       1.13825540      -0.03943253
O        0.17924988       0.71752944      -0.88051975
H        2.56751801       0.59781170      -1.42397138
H        2.21090862       0.62772163       0.89605124
H        2.42107952      -1.12830774       0.79030714
H        0.63400797      -1.27601397      -0.77747985
H       -1.43092934      -1.72759211       0.64775282
H       -1.83446776      -1.26921578      -1.02146321
H       -2.14122416       0.38104589       1.55561847
H       -2.91835826       0.67412006      -0.05601267
H        0.11847366       0.42023070       0.99102346
H       -1.09077532       2.16769405      -0.31149149
17
Frame=10 idx=010915 GeodesicLength=0.9747431415870617 rxn_smarts="[O:1]([C:2]([C@@:3]1([H:11])[C:4]([H:12])([H:13])[C:5]([H:14])([H:15])[C:6]([H:16])([H:17])[O:7]1)([H:9])[H:10])[H:8]>>[O:1]([C:2]([C:3]([O:7][C:6]1([H:17])[C:4]([H:12])([H:13])[C:5]1([H:14])[H:15])([H:11])[H:16])([H:9])[H:10])[H:8]"
O        2.91790620      -0.12841515      -0.89139789
C        2.09731646      -0.25833203       0.24501068
C        0.63012652      -0.39159548      -0.11629988
C       -1.46977349      -0.88991045      -0.08286233
C       -2.02779856       0.35268412       0.48529129
C       -0.86716436       1.12913687      -0.06184438
O        0.18890328       0.72042102      -0.87799458
H        2.56771865       0.60360616      -1.40740606
H        2.22286882       0.60064456       0.91727929
H        2.41901987      -1.15361889       0.78207376
H        0.63780533      -1.26950291      -0.77765012
H       -1.39676402      -1.71078166       0.62606190
H       -1.86417574      -1.26300434      -1.02075373
H       -2.11599298       0.36898462       1.56732081
H       -2.94062933       0.66913753      -0.02185208
H        0.12356683       0.47380764       0.99699794
H       -1.12293349       2.14673841      -0.36197461
17
Frame=11 idx=010915 GeodesicLength=1.0717319224048931 rxn_smarts="[O:1]([C:2]([C@@:3]1([H:11])[C:4]([H:12])([H:13])[C:5]([H:14])([H:15])[C:6]([H:16])([H:17])[O:7]1)([H:9])[H:10])[H:8]>>[O:1]([C:2]([C:3]([O:7][C:6]1([H:17])[C:4]([H:12])([H:13])[C:5]1([H:14])[H:15])([H:11])[H:16])([H:9])[H:10])[H:8]"
O        2.92078203      -0.12674112      -0.88313849
C        2.09986469      -0.27299758       0.25126812
C        0.63227651      -0.38930052      -0.11019624
C       -1.45886648      -0.87249715      -0.10214027
C       -2.03277249       0.35432453       0.49389045
C       -0.88387052       1.11979539      -0.08367080
O        0.19809653       0.72389736      -0.87553150
H        2.56812195       0.61103770      -1.38929705
H        2.23348489       0.57203769       0.93943801
H        2.41595374      -1.17952927       0.77264753
H        0.64133803      -1.26255681      -0.77918952
H       -1.36391416      -1.69344234       0.60476092
H       -1.89402264      -1.25840830      -1.01711135
H       -2.08980805       0.35744679       1.57786186
H       -2.96071739       0.66397821       0.01239778
H        0.12887730       0.52901422       1.00082128
H       -1.15482396       2.12394119      -0.41281074
17
Frame=12 idx=010915 GeodesicLength=1.1686975643887432 rxn_smarts="[O:1]([C:2]([C@@:3]1([H:11])[C:4]([H:12])([H:13])[C:5]([H:14])([H:15])[C:6]([H:16])([H:17])[O:7]1)([H:9])[H:10])[H:8]>>[O:1]([C:2]([C:3]([O:7][C:6]1([H:17])[C:4]([H:12])([H:13])[C:5]1([H:14])[H:15])([H:11])[H:16])([H:9])[H:10])[H:8]"
O        2.92363718      -0.12379522      -0.87397451
C        2.10166595      -0.28788606       0.25743747
C        0.63413937      -0.38707084      -0.10510927
C       -1.44842552      -0.85532833      -0.12134925
C       -2.03648472       0.35588988       0.50239684
C       -0.89968240       1.11030245      -0.10487186
O        0.20677661       0.72782923      -0.87323889
H        2.56866598       0.62006048      -1.36959531
H        2.24251445       0.54193857       0.96242824
H        2.41191299      -1.20589316       0.76202074
H        0.64463337      -1.25528018      -0.78208005
H       -1.33234796      -1.67566067       0.58383286
H       -1.92385799      -1.25533313      -1.01050757
H       -2.06264911       0.34641360       1.58727803
H       -2.97861839       0.65879864       0.04671489
H        0.13438204       0.58574588       1.00243076
H       -1.18626186       2.09926886      -0.46381311
17
Frame=13 idx=010915 GeodesicLength=1.2656762025746706 rxn_smarts="[O:1]([C:2]([C@@:3]1([H:11])[C:4]([H:12])([H:13])[C:5]([H:14])([H:15])[C:6]([H:16])([H:17])[O:7]1)([H:9])[H:10])[H:8]>>[O:1]([C:2]([C:3]([O:7][C:6]1([H:17])[C:4]([H:12])([H:13])[C:5]1([H:14])[H:15])([H:11])[H:16])([H:9])[H:10])[H:8]"
O        2.92647471      -0.11954261      -0.86379741
C        2.10267643      -0.30295801       0.26350969
C        0.63569889      -0.38499399      -0.10109207
C       -1.43848334      -0.83843617      -0.14052989
C       -2.03893810       0.35743092       0.51081728
C       -0.91458791       1.10070797      -0.12543125
O        0.21490453       0.73207403      -0.87124355
H        2.56931149       0.63062284      -1.34824183
H        2.24970592       0.51038848       0.98614150
H        2.40692619      -1.23257267       0.75022008
H        0.64772773      -1.24778620      -0.78632137
H       -1.30203881      -1.65752199       0.56324104
H       -1.95352227      -1.25364134      -1.00094938
H       -2.03445883       0.33585740       1.59562169
H       -2.99434358       0.65374281       0.08113615
H        0.14005182       0.64393765       1.00171686
H       -1.21710488       2.07269086      -0.51479754
17
Frame=14 idx=010915 GeodesicLength=1.3626445586809095 rxn_smarts="[O:1]([C:2]([C@@:3]1([H:11])[C:4]([H:12])([H:13])[C:5]([H:14])([H:15])[C:6]([H:16])([H:17])[O:7]1)([H:9])[H:10])[H:8]>>[O:1]([C:2]([C:3]([O:7][C:6]1([H:17])[C:4]([H:12])([H:13])[C:5]1([H:14])[H:15])([H:11])[H:16])([H:9])[H:10])[H:8]"
O        2.92926955      -0.11402992      -0.85254778
C        2.10286921      -0.31817415       0.26947188
C        0.63693782      -0.38313378      -0.09815609
C       -1.42907532      -0.82186439      -0.15971166
C       -2.04016379       0.35897009       0.51912625
C       -0.92859550       1.09106731      -0.14532668
O        0.22245154       0.73651516      -0.86963207
H        2.56997726       0.64258477      -1.32527122
H        2.25487947       0.47750354       1.01043006
H        2.40106154      -1.25939691       0.73728710
H        0.65064491      -1.24017349      -0.79185966
H       -1.27296471      -1.63912144       0.54294672
H       -1.98276159      -1.25319858      -0.98847629
H       -2.00526211       0.32574586       1.60290270
H       -3.00792679       0.64890921       0.11561777
H        0.14584229       0.70348354       0.99864192
H       -1.24718378       2.04431317      -0.56544298
17
Frame=15 idx=010915 GeodesicLength=1.4595941947041717 rxn_smarts="[O:1]([C:2]([C@@:3]1([H:11])[C:4]([H:12])([H:13])[C:5]([H:14])([H:15])[C:6]([H:16])([H:17])[O:7]1)([H:9])[H:10])[H:8]>>[O:1]([C:2]([C:3]([O:7][C:6]1([H:17])[C:4]([H:12])([H:13])[C:5]1([H:14])[H:15])([H:11])[H:16])([H:9])[H:10])[H:8]"
O        2.93200503      -0.10731458      -0.84015664
C        2.10222056      -0.33349272       0.27532074
C        0.63784196      -0.38156125      -0.09632285
C       -1.42023320      -0.80565552      -0.17891693
C       -2.04019822       0.36052207       0.52732307
C       -0.94173615       1.08140954      -0.16456711
O        0.22939881       0.74102493      -0.86850507
H        2.57060272       0.65580243      -1.30072294
H        2.25785749       0.44341575       1.03513927
H        2.39438066      -1.28620896       0.72331750
H        0.65341515      -1.23255135      -0.79865441
H       -1.24510549      -1.62056039       0.52290245
H       -2.01132411      -1.25384263      -0.97318101
H       -1.97505070       0.31604748       1.60914255
H       -3.01941199       0.64438258       0.15016424
H        0.15169974       0.76431057       0.99311714
H       -1.27636227       2.01427205      -0.61540001
17
Frame=16 idx=010915 GeodesicLength=1.5565163776045368 rxn_smarts="[O:1]([C:2]([C@@:3]1([H:11])[C:4]([H:12])([H:13])[C:5]([H:14])([H:15])[C:6]([H:16])([H:17])[O:7]1)([H:9])[H:10])[H:8]>>[O:1]([C:2]([C:3]([O:7][C:6]1([H:17])[C:4]([H:12])([H:13])[C:5]1([H:14])[H:15])([H:11])[H:16])([H:9])[H:10])[H:8]"
O        2.93465421      -0.09946820      -0.82656019
C        2.10071112      -0.34888452       0.28105425
C        0.63839951      -0.38034117      -0.09561038
C       -1.41197428      -0.78985357      -0.19814507
C       -2.03908157       0.36209367       0.53540629
C       -0.95405606       1.07175451      -0.18317650
O        0.23573741       0.74548911      -0.86795449
H        2.57111826       0.67012651      -1.27462924
H        2.25848585       0.40825187       1.06012708
H        2.38695196      -1.31287393       0.70839607
H        0.65606327      -1.22502285      -0.80666641
H       -1.21843383      -1.60193619       0.50308710
H       -2.03893216      -1.25541560      -0.95519664
H       -1.94381663       0.30674962       1.61435896
H       -3.02885071       0.64021949       0.18477950
H        0.15756180       0.82635884       0.98503529
H       -1.30453814       1.98275240      -0.66430563
