13
Frame=0 idx=004570 GeodesicLength=0.0 rxn_smarts="[C:1]([C@@:2]1([H:10])[C:3]([H:11])([H:12])[N:4]1[C:5](=[O:6])[H:13])([H:7])([H:8])[H:9]>>[C-:5]#[O+:6].[C:1]([C@@:2]1([H:10])[C:3]([H:12])=[N:4]1)([H:7])([H:8])[H:9].[H:11][H:13]"
C       -1.83030102      -0.26378544       0.59013837
C       -0.39256350      -0.30085623       0.15363355
C        0.12087137       0.20598967      -1.09861501
N        0.31899612       0.98964454      -0.07255300
C        2.10770346       0.63993868       0.53659747
O        2.67897682       1.29196902       1.27022863
H       -1.90164331      -0.12017869       1.67026144
H       -2.33085421      -1.20256947       0.34251730
H       -2.36391160       0.55140802       0.10104528
H        0.21743084      -1.08234635       0.61976375
H        1.42327910      -0.61923147      -1.28245657
H       -0.08223538       0.38956893      -2.14309185
H        2.03425125      -0.47955126      -0.68746932
13
Frame=1 idx=004570 GeodesicLength=0.07831143871581453 rxn_smarts="[C:1]([C@@:2]1([H:10])[C:3]([H:11])([H:12])[N:4]1[C:5](=[O:6])[H:13])([H:7])([H:8])[H:9]>>[C-:5]#[O+:6].[C:1]([C@@:2]1([H:10])[C:3]([H:12])=[N:4]1)([H:7])([H:8])[H:9].[H:11][H:13]"
C       -1.83727821      -0.26412226       0.58700528
C       -0.39873383      -0.30878737       0.15445287
C        0.12100288       0.20181775      -1.09539240
N        0.32267869       0.97755174      -0.06053657
C        2.11304942       0.63499582       0.55207965
O        2.70106258       1.32967839       1.23418286
H       -1.90996895      -0.13322371       1.66870403
H       -2.34539483      -1.19550786       0.32706692
H       -2.36189470       0.56171743       0.10603493
H        0.20330249      -1.09924366       0.61491006
H        1.43258774      -0.62351585      -1.28292154
H       -0.09678564       0.40352757      -2.13367737
H        2.05637238      -0.48488799      -0.67190872
13
Frame=2 idx=004570 GeodesicLength=0.15582979900377963 rxn_smarts="[C:1]([C@@:2]1([H:10])[C:3]([H:11])([H:12])[N:4]1[C:5](=[O:6])[H:13])([H:7])([H:8])[H:9]>>[C-:5]#[O+:6].[C:1]([C@@:2]1([H:10])[C:3]([H:12])=[N:4]1)([H:7])([H:8])[H:9].[H:11][H:13]"
C       -1.84364658      -0.26417063       0.58422383
C       -0.40450806      -0.31630444       0.15506096
C        0.12096861       0.19731950      -1.09289912
N        0.32620716       0.96579834      -0.04987217
C        2.11856463       0.63215131       0.56611842
O        2.71931054       1.36312092       1.20053847
H       -1.91746299      -0.14553012       1.66730635
H       -2.35909265      -1.18818002       0.31260797
H       -2.35956249       0.57179859       0.11135104
H        0.18991592      -1.11511555       0.61006562
H        1.44208364      -0.62776544      -1.28386980
H       -0.11189958       0.41661539      -2.12446904
H        2.07912183      -0.48973784      -0.65616253
13
Frame=3 idx=004570 GeodesicLength=0.232831120663834 rxn_smarts="[C:1]([C@@:2]1([H:10])[C:3]([H:11])([H:12])[N:4]1[C:5](=[O:6])[H:13])([H:7])([H:8])[H:9]>>[C-:5]#[O+:6].[C:1]([C@@:2]1([H:10])[C:3]([H:12])=[N:4]1)([H:7])([H:8])[H:9].[H:11][H:13]"
C       -1.84957822      -0.26400911       0.58168806
C       -0.41002106      -0.32355597       0.15546850
C        0.12079019       0.19261042      -1.09094381
N        0.32964730       0.95419392      -0.04015679
C        2.12421614       0.63086951       0.57912034
O        2.73477004       1.39360752       1.16841709
H       -1.92436691      -0.15734649       1.66597821
H       -2.37219817      -1.18058894       0.29884670
H       -2.35697182       0.58170311       0.11695968
H        0.17699901      -1.13030936       0.60509038
H        1.45167809      -0.63201921      -1.28524449
H       -0.12739773       0.42920399      -2.11524299
H        2.10243315      -0.49435939      -0.63998089
13
Frame=4 idx=004570 GeodesicLength=0.30953146130466097 rxn_smarts="[C:1]([C@@:2]1([H:10])[C:3]([H:11])([H:12])[N:4]1[C:5](=[O:6])[H:13])([H:7])([H:8])[H:9]>>[C-:5]#[O+:6].[C:1]([C@@:2]1([H:10])[C:3]([H:12])=[N:4]1)([H:7])([H:8])[H:9].[H:11][H:13]"
C       -1.85518479      -0.26369476       0.57933729
C       -0.41535879      -0.33063723       0.15568896
C        0.12048470       0.18776891      -1.08941894
N        0.33304158       0.94263929      -0.03113194
C        2.12997739       0.63085667       0.59135374
O        2.74808411       1.42193545       1.13719469
H       -1.93083687      -0.16887313       1.66469378
H       -2.38488610      -1.17273600       0.28556237
H       -2.35414406       0.59149673       0.12286595
H        0.16437547      -1.14505558       0.59991693
H        1.46131881      -0.63629442      -1.28702911
H       -0.14314511       0.44152238      -2.10588991
H        2.12627366      -0.49892832      -0.62314381
13
Frame=5 idx=004570 GeodesicLength=0.3860693507085227 rxn_smarts="[C:1]([C@@:2]1([H:10])[C:3]([H:11])([H:12])[N:4]1[C:5](=[O:6])[H:13])([H:7])([H:8])[H:9]>>[C-:5]#[O+:6].[C:1]([C@@:2]1([H:10])[C:3]([H:12])=[N:4]1)([H:7])([H:8])[H:9].[H:11][H:13]"
C       -1.86051868      -0.26325343       0.57713979
C       -0.42056977      -0.33760268       0.15571297
C        0.12003507       0.18284327      -1.08828928
N        0.33641339       0.93108297      -0.02267586
C        2.13583283       0.63196471       0.60292553
O        2.75965067       1.44858291       1.10667768
H       -1.93693396      -0.18018572       1.66342763
H       -2.39723787      -1.16462573       0.27267913
H       -2.35110147       0.60118759       0.12905960
H        0.15195501      -1.15949355       0.59448651
H        1.47094277      -0.64059262      -1.28925516
H       -0.15908671       0.45368646      -2.09636968
H        2.15061871      -0.50359418      -0.60551887
13
Frame=6 idx=004570 GeodesicLength=0.4625761789628021 rxn_smarts="[C:1]([C@@:2]1([H:10])[C:3]([H:11])([H:12])[N:4]1[C:5](=[O:6])[H:13])([H:7])([H:8])[H:9]>>[C-:5]#[O+:6].[C:1]([C@@:2]1([H:10])[C:3]([H:12])=[N:4]1)([H:7])([H:8])[H:9].[H:11][H:13]"
C       -1.86562236      -0.26271158       0.57507781
C       -0.42568996      -0.34449299       0.15553781
C        0.11944091       0.17787269      -1.08751953
N        0.33977860       0.91948283      -0.01469050
C        2.14175854       0.63409453       0.61392422
O        2.76972404       1.47386795       1.07660023
H       -1.94271543      -0.19137916       1.66217660
H       -2.40932931      -1.15625267       0.26010855
H       -2.34784268       0.61080829       0.13556324
H        0.13966376      -1.17371934       0.58875354
H        1.48051653      -0.64490158      -1.29196379
H       -0.17515078       0.46578390      -2.08664513
H        2.17546813      -0.50845286      -0.58692303
13
Frame=7 idx=004570 GeodesicLength=0.5390669035818372 rxn_smarts="[C:1]([C@@:2]1([H:10])[C:3]([H:11])([H:12])[N:4]1[C:5](=[O:6])[H:13])([H:7])([H:8])[H:9]>>[C-:5]#[O+:6].[C:1]([C@@:2]1([H:10])[C:3]([H:12])=[N:4]1)([H:7])([H:8])[H:9].[H:11][H:13]"
C       -1.87051239      -0.26207698       0.57315181
C       -0.43073700      -0.35132974       0.15514638
C        0.11868716       0.17288068      -1.08711658
N        0.34315604       0.90781509      -0.00714650
C        2.14774706       0.63719714       0.62435392
O        2.77843286       1.49798440       1.04695435
H       -1.94818634      -0.20246764       1.66094396
H       -2.42119416      -1.14761703       0.24785333
H       -2.34437588       0.62035743       0.14238509
H        0.12746217      -1.18779170       0.58266709
H        1.49001033      -0.64920094      -1.29522766
H       -0.19130631       0.47784283      -2.07672367
H        2.20081647      -0.51359354      -0.56724154
13
Frame=8 idx=004570 GeodesicLength=0.6156713366897312 rxn_smarts="[C:1]([C@@:2]1([H:10])[C:3]([H:11])([H:12])[N:4]1[C:5](=[O:6])[H:13])([H:7])([H:8])[H:9]>>[C-:5]#[O+:6].[C:1]([C@@:2]1([H:10])[C:3]([H:12])=[N:4]1)([H:7])([H:8])[H:9].[H:11][H:13]"
C       -1.87522698      -0.26137801       0.57133664
C       -0.43574500      -0.35814671       0.15453419
C        0.11776626       0.16791662      -1.08703489
N        0.34654779       0.89603778       0.00005628
C        2.15376480       0.64119578       0.63431303
O        2.78604709       1.52119566       1.01739653
H       -1.95340485      -0.21355518       1.65970464
H       -2.43289058      -1.13870931       0.23582391
H       -2.34070396       0.62984555       0.14954943
H        0.11528807      -1.20179151       0.57617265
H        1.49938461      -0.65346029      -1.29907454
H       -0.20748885       0.48995809      -2.06655120
H        2.22666159      -0.51910847      -0.54622667
13
Frame=9 idx=004570 GeodesicLength=0.6929336630352313 rxn_smarts="[C:1]([C@@:2]1([H:10])[C:3]([H:11])([H:12])[N:4]1[C:5](=[O:6])[H:13])([H:7])([H:8])[H:9]>>[C-:5]#[O+:6].[C:1]([C@@:2]1([H:10])[C:3]([H:12])=[N:4]1)([H:7])([H:8])[H:9].[H:11][H:13]"
C       -1.87974692      -0.26062964       0.56963433
C       -0.44072904      -0.36497256       0.15364758
C        0.11663897       0.16302990      -1.08730682
N        0.34998202       0.88410991       0.00691794
C        2.15979771       0.64604589       0.64378232
O        2.79273860       1.54379264       0.98793892
H       -1.95831939      -0.22465471       1.65845715
H       -2.44441522      -1.12953611       0.22406585
H       -2.33680189       0.63924844       0.15706278
H        0.10310085      -1.21579406       0.56915292
H        1.50854387      -0.65759939      -1.30375116
H       -0.22371437       0.50219796      -2.05616803
H        2.25292480      -0.52523828      -0.52343379
13
Frame=10 idx=004570 GeodesicLength=0.7703028315158628 rxn_smarts="[C:1]([C@@:2]1([H:10])[C:3]([H:11])([H:12])[N:4]1[C:5](=[O:6])[H:13])([H:7])([H:8])[H:9]>>[C-:5]#[O+:6].[C:1]([C@@:2]1([H:10])[C:3]([H:12])=[N:4]1)([H:7])([H:8])[H:9].[H:11][H:13]"
C       -1.88410704      -0.25984063       0.56804161
C       -0.44569623      -0.37181437       0.15250115
C        0.11532875       0.15823375      -1.08789569
N        0.35345972       0.87201467       0.01349538
C        2.16583669       0.65174552       0.65281568
O        2.79850029       1.56575065       0.95830281
H       -1.96297601      -0.23583441       1.65720308
H       -2.45582627      -1.12007944       0.21249969
H       -2.33269009       0.64859767       0.16497288
H        0.09087991      -1.22981076       0.56159772
H        1.51753711      -0.66161938      -1.30917138
H       -0.23990870       0.51458970      -2.04551438
H        2.27966187      -0.53193297      -0.49884855
13
Frame=11 idx=004570 GeodesicLength=0.8477009614544724 rxn_smarts="[C:1]([C@@:2]1([H:10])[C:3]([H:11])([H:12])[N:4]1[C:5](=[O:6])[H:13])([H:7])([H:8])[H:9]>>[C-:5]#[O+:6].[C:1]([C@@:2]1([H:10])[C:3]([H:12])=[N:4]1)([H:7])([H:8])[H:9].[H:11][H:13]"
C       -1.88832507      -0.25903854       0.56654501
C       -0.45066973      -0.37869110       0.15108796
C        0.11382599       0.15357842      -1.08877246
N        0.35697545       0.85972762       0.01985077
C        2.17184836       0.65827497       0.66148049
O        2.80350077       1.58715775       0.92816047
H       -1.96741260      -0.24718369       1.65591925
H       -2.46714915      -1.11032502       0.20107322
H       -2.32835432       0.65787963       0.17330824
H        0.07858417      -1.24388678       0.55345424
H        1.52634494      -0.66546847      -1.31535188
H       -0.25601722       0.52720831      -2.03455772
H        2.30684841      -0.53923309      -0.47219759
13
Frame=12 idx=004570 GeodesicLength=0.9250969910496228 rxn_smarts="[C:1]([C@@:2]1([H:10])[C:3]([H:11])([H:12])[N:4]1[C:5](=[O:6])[H:13])([H:7])([H:8])[H:9]>>[C-:5]#[O+:6].[C:1]([C@@:2]1([H:10])[C:3]([H:12])=[N:4]1)([H:7])([H:8])[H:9].[H:11][H:13]"
C       -1.89240034      -0.25823918       0.56514386
C       -0.45565544      -0.38561515       0.14938749
C        0.11212217       0.14910315      -1.08993619
N        0.36053715       0.84722818       0.02600659
C        2.17781470       0.66564452       0.66978756
O        2.80780186       1.60805620       0.89731788
H       -1.97162314      -0.25875421       1.65459854
H       -2.47839165      -1.10026621       0.18977220
H       -2.32378427       0.66708595       0.18210195
H        0.06619525      -1.25805220       0.54465758
H        1.53494154      -0.66909563      -1.32237361
H       -0.27201580       0.54011271      -2.02328761
H        2.33445796      -0.54720814      -0.44317625
13
Frame=13 idx=004570 GeodesicLength=1.0024069433594942 rxn_smarts="[C:1]([C@@:2]1([H:10])[C:3]([H:11])([H:12])[N:4]1[C:5](=[O:6])[H:13])([H:7])([H:8])[H:9]>>[C-:5]#[O+:6].[C:1]([C@@:2]1([H:10])[C:3]([H:12])=[N:4]1)([H:7])([H:8])[H:9].[H:11][H:13]"
C       -1.89632563      -0.25745189       0.56384425
C       -0.46065493      -0.39259731       0.14737119
C        0.11020366       0.14483508      -1.09140308
N        0.36415616       0.83449376       0.03195916
C        2.18371708       0.67386248       0.67772254
O        2.81143343       1.62848076       0.86567458
H       -1.97557573      -0.27056827       1.65324666
H       -2.48956213      -1.08990042       0.17860736
H       -2.31897359       0.67621254       0.19138546
H        0.05370111      -1.27233224       0.53513350
H        1.54331401      -0.67244585      -1.33033313
H       -0.28790478       0.55333999      -2.01170831
H        2.36247133      -0.55592864      -0.41150018
13
Frame=14 idx=004570 GeodesicLength=1.0796379837077075 rxn_smarts="[C:1]([C@@:2]1([H:10])[C:3]([H:11])([H:12])[N:4]1[C:5](=[O:6])[H:13])([H:7])([H:8])[H:9]>>[C-:5]#[O+:6].[C:1]([C@@:2]1([H:10])[C:3]([H:12])=[N:4]1)([H:7])([H:8])[H:9].[H:11][H:13]"
C       -1.90010084      -0.25670636       0.56264031
C       -0.46567609      -0.39965063       0.14501662
C        0.10806116       0.14083426      -1.09316239
N        0.36783526       0.82150355       0.03774606
C        2.18952594       0.68296483       0.68531647
O        2.81450784       1.64842868       0.83286885
H       -1.97927936      -0.28273516       1.65184117
H       -2.50067117      -1.07920923       0.16753087
H       -2.31389847       0.68524254       0.20121989
H        0.04108294      -1.28675587       0.52480251
H        1.55142828      -0.67545176      -1.33932062
H       -0.30365617       0.56698153      -1.99979058
H        2.39084069      -0.56544637      -0.37670917
13
Frame=15 idx=004570 GeodesicLength=1.1566905152750682 rxn_smarts="[C:1]([C@@:2]1([H:10])[C:3]([H:11])([H:12])[N:4]1[C:5](=[O:6])[H:13])([H:7])([H:8])[H:9]>>[C-:5]#[O+:6].[C:1]([C@@:2]1([H:10])[C:3]([H:12])=[N:4]1)([H:7])([H:8])[H:9].[H:11][H:13]"
C       -1.90371527      -0.25602222       0.56153633
C       -0.47071880      -0.40678440       0.14229072
C        0.10567937       0.13714456      -1.09522802
N        0.37158336       0.80823654       0.04336653
C        2.19521580       0.69298398       0.69255621
O        2.81708808       1.66787136       0.79869132
H       -1.98270482      -0.29531123       1.65037765
H       -2.51172166      -1.06818889       0.15654017
H       -2.30854648       0.69416098       0.21165220
H        0.02833369      -1.30134265       0.51357584
H        1.55926515      -0.67804772      -1.34944545
H       -0.31927152       0.58109898      -1.98752461
H        2.41951310      -0.57579930      -0.33838889
13
Frame=16 idx=004570 GeodesicLength=1.2334712073144682 rxn_smarts="[C:1]([C@@:2]1([H:10])[C:3]([H:11])([H:12])[N:4]1[C:5](=[O:6])[H:13])([H:7])([H:8])[H:9]>>[C-:5]#[O+:6].[C:1]([C@@:2]1([H:10])[C:3]([H:12])=[N:4]1)([H:7])([H:8])[H:9].[H:11][H:13]"
C       -1.90715834      -0.25542984       0.56053236
C       -0.47578284      -0.41400871       0.13916173
C        0.10304541       0.13382107      -1.09760601
N        0.37540806       0.79467188       0.04883014
C        2.20076052       0.70397614       0.69942988
O        2.81926105       1.68673842       0.76282099
H       -1.98583541      -0.30840705       1.64884131
H       -2.52272030      -1.05681831       0.14559620
H       -2.30288841       0.70295463       0.22275955
H        0.01544756      -1.31611030       0.50136192
H        1.56679328      -0.68017209      -1.36081329
H       -0.33474576       0.59577573      -1.97488632
H        2.44841519      -0.58699159      -0.29602846
