12
Frame=0 idx=008195 GeodesicLength=0.0 rxn_smarts="[O:1]([C:2]([C@@:3]([C:4]#[C:5][H:12])([C:6]#[N:7])[H:11])([H:9])[H:10])[H:8]>>[O:1]([C:2]([C@@:3]1([H:11])[C-:4]=[C:5]([H:12])[N+:7]#[C:6]1)([H:9])[H:10])[H:8]"
O       -2.26421688      -0.16797901      -0.33901807
C       -1.19639344      -0.81531845       0.28208445
C        0.08870314      -0.44300815      -0.46012980
C        0.31311619       1.10314254      -0.41378502
C        1.53738310       1.28636123       0.11600914
C        1.35545233      -0.52496455       0.19295919
N        2.41315309      -0.05943751       0.51053633
H       -1.98921081       0.75238188      -0.46007582
H       -1.09472745      -0.53386000       1.33768194
H       -1.37816182      -1.88953489       0.22580659
H        0.13249745      -0.85331136      -1.46819629
H        2.08240509       2.14552823       0.47612735
12
Frame=1 idx=008195 GeodesicLength=0.08936772636789347 rxn_smarts="[O:1]([C:2]([C@@:3]([C:4]#[C:5][H:12])([C:6]#[N:7])[H:11])([H:9])[H:10])[H:8]>>[O:1]([C:2]([C@@:3]1([H:11])[C-:4]=[C:5]([H:12])[N+:7]#[C:6]1)([H:9])[H:10])[H:8]"
O       -2.26300179      -0.16569743      -0.33866626
C       -1.19410390      -0.81309155       0.28098762
C        0.09093928      -0.44346298      -0.46296943
C        0.32149216       1.09689756      -0.42109376
C        1.53721876       1.29739969       0.11125797
C        1.35848911      -0.54462315       0.19152440
N        2.41118590      -0.07785161       0.52265963
H       -1.99457896       0.75765428      -0.44865897
H       -1.09106328      -0.53132083       1.33627427
H       -1.37516148      -1.88733881       0.22475185
H        0.13206130      -0.85297008      -1.47152441
H        2.06652291       2.16440492       0.47545710
12
Frame=2 idx=008195 GeodesicLength=0.17873205024410144 rxn_smarts="[O:1]([C:2]([C@@:3]([C:4]#[C:5][H:12])([C:6]#[N:7])[H:11])([H:9])[H:10])[H:8]>>[O:1]([C:2]([C@@:3]1([H:11])[C-:4]=[C:5]([H:12])[N+:7]#[C:6]1)([H:9])[H:10])[H:8]"
O       -2.26159989      -0.16313149      -0.33828549
C       -1.19175925      -0.81087827       0.27983123
C        0.09335455      -0.44398532      -0.46568592
C        0.33011789       1.09053794      -0.42803678
C        1.53700678       1.30878818       0.10673800
C        1.36145287      -0.56484579       0.19010385
N        2.40892979      -0.09689435       0.53497707
H       -1.99966706       0.76301799      -0.43701574
H       -1.08733982      -0.52903544       1.33486945
H       -1.37230585      -1.88511169       0.22341466
H        0.13174033      -0.85251044      -1.47480513
H        2.05006966       2.18404869       0.47389480
12
Frame=3 idx=008195 GeodesicLength=0.2680868065271108 rxn_smarts="[O:1]([C:2]([C@@:3]([C:4]#[C:5][H:12])([C:6]#[N:7])[H:11])([H:9])[H:10])[H:8]>>[O:1]([C:2]([C@@:3]1([H:11])[C-:4]=[C:5]([H:12])[N+:7]#[C:6]1)([H:9])[H:10])[H:8]"
O       -2.26000923      -0.16029058      -0.33789436
C       -1.18936542      -0.80868126       0.27861641
C        0.09595580      -0.44456765      -0.46825221
C        0.33900035       1.08407125      -0.43455154
C        1.53671340       1.32055464       0.10253342
C        1.36432513      -0.58565127       0.18872921
N        2.40641384      -0.11661401       0.54739519
H       -2.00447219       0.76845787      -0.42518273
H       -1.08358725      -0.52701078       1.33347219
H       -1.36959545      -1.88285703       0.22179104
H        0.13155156      -0.85190254      -1.47801909
H        2.03306945       2.20449135       0.47136247
12
Frame=4 idx=008195 GeodesicLength=0.35742663273344955 rxn_smarts="[O:1]([C:2]([C@@:3]([C:4]#[C:5][H:12])([C:6]#[N:7])[H:11])([H:9])[H:10])[H:8]>>[O:1]([C:2]([C@@:3]1([H:11])[C-:4]=[C:5]([H:12])[N+:7]#[C:6]1)([H:9])[H:10])[H:8]"
O       -2.25822674      -0.15718299      -0.33751269
C       -1.18692748      -0.80649847       0.27734757
C        0.09875136      -0.44520609      -0.47064309
C        0.34815263       1.07750154      -0.44058927
C        1.53630850       1.33272909       0.09871255
C        1.36708786      -0.60705971       0.18742871
N        2.40368242      -0.13706367       0.55980001
H       -2.00899101       0.77396097      -0.41320002
H       -1.07983355      -0.52524008       1.33208844
H       -1.36703249      -1.88057380       0.21988931
H        0.13151145      -0.85112812      -1.48114615
H        2.01551706       2.22576133       0.46782462
12
Frame=5 idx=008195 GeodesicLength=0.44674404052741556 rxn_smarts="[O:1]([C:2]([C@@:3]([C:4]#[C:5][H:12])([C:6]#[N:7])[H:11])([H:9])[H:10])[H:8]>>[O:1]([C:2]([C@@:3]1([H:11])[C-:4]=[C:5]([H:12])[N+:7]#[C:6]1)([H:9])[H:10])[H:8]"
O       -2.25625478      -0.15382890      -0.33716571
C       -1.18445831      -0.80435117       0.27601337
C        0.10174338      -0.44588021      -0.47281936
C        0.35756453       1.07084993      -0.44602728
C        1.53573998       1.34534138       0.09539516
C        1.36970635      -0.62909042       0.18624944
N        2.40074964      -0.15829820       0.57216691
H       -2.01323602       0.77950728      -0.40108050
H       -1.07613032      -0.52377915       1.33071829
H       -1.36461436      -1.87828298       0.21766223
H        0.13164559      -0.85011377      -1.48416465
H        1.99754432       2.24792621       0.46305210
12
Frame=6 idx=008195 GeodesicLength=0.5360261811979692 rxn_smarts="[O:1]([C:2]([C@@:3]([C:4]#[C:5][H:12])([C:6]#[N:7])[H:11])([H:9])[H:10])[H:8]>>[O:1]([C:2]([C@@:3]1([H:11])[C-:4]=[C:5]([H:12])[N+:7]#[C:6]1)([H:9])[H:10])[H:8]"
O       -2.25407582      -0.15021856      -0.33686668
C       -1.18194575      -0.80218887       0.27465219
C        0.10495092      -0.44661393      -0.47477426
C        0.36729634       1.06408905      -0.45094002
C        1.53498292       1.35842439       0.09259820
C        1.37217966      -0.65177393       0.18518461
N        2.39775397      -0.18038799       0.58417975
H       -2.01717329       0.78509318      -0.38895130
H       -1.07246533      -0.52249231       1.32937898
H       -1.36234451      -1.87593670       0.21523722
H        0.13195337      -0.84893249      -1.48704912
H        1.97888752       2.27093815       0.45735042
12
Frame=7 idx=008195 GeodesicLength=0.6252749624240431 rxn_smarts="[O:1]([C:2]([C@@:3]([C:4]#[C:5][H:12])([C:6]#[N:7])[H:11])([H:9])[H:10])[H:8]>>[O:1]([C:2]([C@@:3]1([H:11])[C-:4]=[C:5]([H:12])[N+:7]#[C:6]1)([H:9])[H:10])[H:8]"
O       -2.25168491      -0.14635899      -0.33664202
C       -1.17939912      -0.80003374       0.27324719
C        0.10838130      -0.44739526      -0.47647778
C        0.37735044       1.05723026      -0.45522335
C        1.53399916       1.37200714       0.09039805
C        1.37447555      -0.67513938       0.18426860
N        2.39470143      -0.20339413       0.59587341
H       -2.02081513       0.79072014      -0.37676880
H       -1.06887855      -0.52144000       1.32806670
H       -1.36022743      -1.87355502       0.21255438
H        0.13246346      -0.84752281      -1.48978695
H        1.95963382       2.29488182       0.45049056
12
Frame=8 idx=008195 GeodesicLength=0.7144746403742201 rxn_smarts="[O:1]([C:2]([C@@:3]([C:4]#[C:5][H:12])([C:6]#[N:7])[H:11])([H:9])[H:10])[H:8]>>[O:1]([C:2]([C@@:3]1([H:11])[C-:4]=[C:5]([H:12])[N+:7]#[C:6]1)([H:9])[H:10])[H:8]"
O       -2.24905509      -0.14222530      -0.33650113
C       -1.17680197      -0.79784091       0.27182561
C        0.11205757      -0.44824653      -0.47791897
C        0.38779345       1.05024064      -0.45892818
C        1.53269706       1.38612604       0.08893466
C        1.37658820      -0.69922846       0.18349561
N        2.39172802      -0.22739265       0.60698819
H       -2.02411428       0.79640101      -0.36463918
H       -1.06535080      -0.52051454       1.32678956
H       -1.35826719      -1.87109009       0.20970626
H        0.13318309      -0.84593300      -1.49235275
H        1.93954194       2.31970379       0.44260033
12
Frame=9 idx=008195 GeodesicLength=0.8036457264165224 rxn_smarts="[O:1]([C:2]([C@@:3]([C:4]#[C:5][H:12])([C:6]#[N:7])[H:11])([H:9])[H:10])[H:8]>>[O:1]([C:2]([C@@:3]1([H:11])[C-:4]=[C:5]([H:12])[N+:7]#[C:6]1)([H:9])[H:10])[H:8]"
O       -2.24616293      -0.13778481      -0.33644037
C       -1.17415112      -0.79563465       0.27036369
C        0.11599650      -0.44917032      -0.47909131
C        0.39864997       1.04311642      -0.46199816
C        1.53105902       1.40081403       0.08820130
C        1.37849570      -0.72408334       0.18285915
N        2.38877100      -0.25244520       0.61769569
H       -2.02705596       0.80217668      -0.35243243
H       -1.06188194      -0.51980625       1.32554346
H       -1.35647972      -1.86856025       0.20660045
H        0.13414267      -0.84412891      -1.49475477
H        1.91861681       2.34550660       0.43345332
12
Frame=10 idx=008195 GeodesicLength=0.8927904593191234 rxn_smarts="[O:1]([C:2]([C@@:3]([C:4]#[C:5][H:12])([C:6]#[N:7])[H:11])([H:9])[H:10])[H:8]>>[O:1]([C:2]([C@@:3]1([H:11])[C-:4]=[C:5]([H:12])[N+:7]#[C:6]1)([H:9])[H:10])[H:8]"
O       -2.24300455      -0.13302727      -0.33646542
C       -1.17146362      -0.79347990       0.26881017
C        0.12020951      -0.45013692      -0.47995279
C        0.40991323       1.03588666      -0.46423100
C        1.52897565       1.41612121       0.08845640
C        1.38015960      -0.74973744       0.18239536
N        2.38574746      -0.27861658       0.62821743
H       -2.02965450       0.80805864      -0.33999686
H       -1.05852579      -0.51951436       1.32431489
H       -1.35487792      -1.86602039       0.20304164
H        0.13539980      -0.84196897      -1.49699024
H        1.89712113       2.37243532       0.42240041
12
Frame=11 idx=008195 GeodesicLength=0.9819286817988013 rxn_smarts="[O:1]([C:2]([C@@:3]([C:4]#[C:5][H:12])([C:6]#[N:7])[H:11])([H:9])[H:10])[H:8]>>[O:1]([C:2]([C@@:3]1([H:11])[C-:4]=[C:5]([H:12])[N+:7]#[C:6]1)([H:9])[H:10])[H:8]"
O       -2.23956998      -0.12794091      -0.33657654
C       -1.16875730      -0.79145439       0.26710646
C        0.12471035      -0.45111264      -0.48045605
C        0.42157078       1.02858975      -0.46538465
C        1.52630234       1.43211054       0.09002391
C        1.38153778      -0.77622878       0.18212841
N        2.38254303      -0.30598300       0.63880984
H       -2.03192562       0.81405407      -0.32714987
H       -1.05534735      -0.51987476       1.32309083
H       -1.35347239      -1.86353818       0.19879788
H        0.13702457      -0.83928555      -1.49906116
H        1.87538378       2.40066386       0.40867094
12
Frame=12 idx=008195 GeodesicLength=1.071029099864662 rxn_smarts="[O:1]([C:2]([C@@:3]([C:4]#[C:5][H:12])([C:6]#[N:7])[H:11])([H:9])[H:10])[H:8]>>[O:1]([C:2]([C@@:3]1([H:11])[C-:4]=[C:5]([H:12])[N+:7]#[C:6]1)([H:9])[H:10])[H:8]"
O       -2.23574825      -0.12237314      -0.33672381
C       -1.16593319      -0.78937666       0.26534612
C        0.12956648      -0.45220218      -0.48067775
C        0.43382859       1.02108136      -0.46591912
C        1.52303391       1.44882598       0.09256131
C        1.38269829      -0.80360999       0.18191394
N        2.37933236      -0.33459235       0.64909251
H       -2.03367645       0.82027663      -0.31405307
H       -1.05212690      -0.52049046       1.32188627
H       -1.35227172      -1.86091533       0.19420681
H        0.13897120      -0.83639887      -1.50094895
H        1.85232569       2.42977500       0.39331574
12
Frame=13 idx=008195 GeodesicLength=1.160128143403151 rxn_smarts="[O:1]([C:2]([C@@:3]([C:4]#[C:5][H:12])([C:6]#[N:7])[H:11])([H:9])[H:10])[H:8]>>[O:1]([C:2]([C@@:3]1([H:11])[C-:4]=[C:5]([H:12])[N+:7]#[C:6]1)([H:9])[H:10])[H:8]"
O       -2.23154852      -0.11633954      -0.33692563
C       -1.16303350      -0.78735163       0.26346559
C        0.13478708      -0.45335722      -0.48054556
C        0.44666113       1.01342668      -0.46549360
C        1.51901379       1.46635476       0.09642290
C        1.38357721      -0.83191899       0.18181775
N        2.37602334      -0.36453655       0.65928694
H       -2.03494815       0.82671098      -0.30052849
H       -1.04898973      -0.52164901       1.32070181
H       -1.35129803      -1.85825420       0.18900098
H        0.14133041      -0.83309314      -1.50265243
H        1.82842498       2.46000787       0.37544975
12
Frame=14 idx=008195 GeodesicLength=1.2492091643474708 rxn_smarts="[O:1]([C:2]([C@@:3]([C:4]#[C:5][H:12])([C:6]#[N:7])[H:11])([H:9])[H:10])[H:8]>>[O:1]([C:2]([C@@:3]1([H:11])[C-:4]=[C:5]([H:12])[N+:7]#[C:6]1)([H:9])[H:10])[H:8]"
O       -2.22710083      -0.11006121      -0.33726080
C       -1.16020610      -0.78577257       0.26120808
C        0.14032278      -0.45426408      -0.47978011
C        0.45971625       1.00597469      -0.46281713
C        1.51363611       1.48492710       0.10316747
C        1.38400323      -0.86104010       0.18210454
N        2.37223893      -0.39585151       0.67021520
H       -2.03608433       0.83311598      -0.28602350
H       -1.04639165      -0.52440658       1.31945867
H       -1.35046881      -1.85591872       0.18219985
H        0.14436391      -0.82839458      -1.50411051
H        1.80597051       2.49169160       0.35163824
12
Frame=15 idx=008195 GeodesicLength=1.3382879466551378 rxn_smarts="[O:1]([C:2]([C@@:3]([C:4]#[C:5][H:12])([C:6]#[N:7])[H:11])([H:9])[H:10])[H:8]>>[O:1]([C:2]([C@@:3]1([H:11])[C-:4]=[C:5]([H:12])[N+:7]#[C:6]1)([H:9])[H:10])[H:8]"
O       -2.22210608      -0.10310690      -0.33760473
C       -1.15718072      -0.78401786       0.25894570
C        0.14633362      -0.45535741      -0.47870433
C        0.47362431       0.99820973      -0.45962550
C        1.50736370       1.50449583       0.11073638
C        1.38419298      -0.89116530       0.18236263
N        2.36856152      -0.42858962       0.68059628
H       -2.03648024       0.83987982      -0.27131757
H       -1.04366096      -0.52724198       1.31826555
H       -1.34987433      -1.85329164       0.17516211
H        0.14782176      -0.82363262      -1.50532055
H        1.78140442       2.52381796       0.32650400
12
Frame=16 idx=008195 GeodesicLength=1.4273574104164595 rxn_smarts="[O:1]([C:2]([C@@:3]([C:4]#[C:5][H:12])([C:6]#[N:7])[H:11])([H:9])[H:10])[H:8]>>[O:1]([C:2]([C@@:3]1([H:11])[C-:4]=[C:5]([H:12])[N+:7]#[C:6]1)([H:9])[H:10])[H:8]"
O       -2.21681354      -0.09587585      -0.33805165
C       -1.15420310      -0.78272902       0.25627929
C        0.15272527      -0.45612453      -0.47690975
C        0.48778899       0.99072451      -0.45394552
C        1.49913182       1.52550910       0.12165639
C        1.38391725      -0.92202755       0.18295356
N        2.36441104      -0.46267379       0.69167036
H       -2.03674353       0.84657326      -0.25548426
H       -1.04151722      -0.53182554       1.31700972
H       -1.34937439      -1.85098035       0.16634680
H        0.15210281      -0.81727570      -1.50622379
H        1.75857461       2.55670547       0.29469884
