13
Frame=0 idx=008360 GeodesicLength=0.0 rxn_smarts="[C:1](#[C:2][C:3]1=[C:4]([H:9])[C:5]([H:10])([H:11])[O:6][C:7]1([H:12])[H:13])[H:8]>>[C:1](#[C:2][C:3]([C@:4]1([H:9])[C:5]([H:10])([H:11])[O:6]1)=[C:7]([H:12])[H:13])[H:8]"
C        2.98827172      -0.42553413       0.59352136
C        1.80194724      -0.34208976       0.44159311
C        0.38390554      -0.25757698       0.30037719
C       -0.30115095       0.95334221       0.29184171
C       -1.69592070       0.89660936      -0.19159368
O       -1.27752767       0.43333574      -1.43378733
C       -0.36268589      -1.26780094      -0.29990249
H        4.04214594      -0.49787918       0.72379575
H        0.23534894       1.89113228       0.38384089
H       -2.35787595       0.22081730       0.37352226
H       -2.18590539       1.87609197      -0.23947859
H        0.14933593      -2.07836033      -0.80767178
H       -1.41988878      -1.40208754      -0.13605841
13
Frame=1 idx=008360 GeodesicLength=0.05370496013651236 rxn_smarts="[C:1](#[C:2][C:3]1=[C:4]([H:9])[C:5]([H:10])([H:11])[O:6][C:7]1([H:12])[H:13])[H:8]>>[C:1](#[C:2][C:3]([C@:4]1([H:9])[C:5]([H:10])([H:11])[O:6]1)=[C:7]([H:12])[H:13])[H:8]"
C        2.98389757      -0.43295218       0.61835421
C        1.80134628      -0.34527071       0.44138740
C        0.38638669      -0.25592866       0.27860035
C       -0.29452568       0.95818960       0.26345809
C       -1.70365430       0.90230294      -0.17378961
O       -1.30166644       0.41853924      -1.41513989
C       -0.35895861      -1.26577483      -0.32656523
H        4.03702071      -0.49796705       0.75828349
H        0.24401004       1.89583686       0.34306491
H       -2.35297078       0.23489387       0.41389853
H       -2.18975215       1.88278295      -0.23106244
H        0.15617294      -2.06964248      -0.84205601
H       -1.40730630      -1.42500955      -0.12843381
13
Frame=2 idx=008360 GeodesicLength=0.10736173375352037 rxn_smarts="[C:1](#[C:2][C:3]1=[C:4]([H:9])[C:5]([H:10])([H:11])[O:6][C:7]1([H:12])[H:13])[H:8]>>[C:1](#[C:2][C:3]([C@:4]1([H:9])[C:5]([H:10])([H:11])[O:6]1)=[C:7]([H:12])[H:13])[H:8]"
C        2.97849451      -0.43999855       0.64241079
C        1.79982870      -0.34884066       0.44270265
C        0.38840490      -0.25462265       0.25757935
C       -0.28842247       0.96263530       0.23523885
C       -1.71034042       0.90827565      -0.15583327
O       -1.32510457       0.40355443      -1.39571234
C       -0.35562531      -1.26398990      -0.35275363
H        4.03082412      -0.49724869       0.79160353
H        0.25230180       1.89992302       0.30203146
H       -2.34674804       0.25000917       0.45433121
H       -2.19294120       1.88943143      -0.22308959
H        0.16294886      -2.06049837      -0.87646829
H       -1.39362090      -1.44863018      -0.12204072
13
Frame=3 idx=008360 GeodesicLength=0.16096490583145256 rxn_smarts="[C:1](#[C:2][C:3]1=[C:4]([H:9])[C:5]([H:10])([H:11])[O:6][C:7]1([H:12])[H:13])[H:8]>>[C:1](#[C:2][C:3]([C@:4]1([H:9])[C:5]([H:10])([H:11])[O:6]1)=[C:7]([H:12])[H:13])[H:8]"
C        2.97243341      -0.44601222       0.66511081
C        1.79785283      -0.35204230       0.44374410
C        0.39025470      -0.25332043       0.23662177
C       -0.28282457       0.96686925       0.20674959
C       -1.71617789       0.91442374      -0.13739249
O       -1.34863374       0.38818617      -1.37527048
C       -0.35251242      -1.26232498      -0.37866256
H        4.02326319      -0.49752630       0.82652561
H        0.26007067       1.90369018       0.25988783
H       -2.33890493       0.26602400       0.49557286
H       -2.19592820       1.89581166      -0.21505208
H        0.16967154      -2.05074998      -0.91129063
H       -1.37856460      -1.47302880      -0.11654435
13
Frame=4 idx=008360 GeodesicLength=0.2145083544048496 rxn_smarts="[C:1](#[C:2][C:3]1=[C:4]([H:9])[C:5]([H:10])([H:11])[O:6][C:7]1([H:12])[H:13])[H:8]>>[C:1](#[C:2][C:3]([C@:4]1([H:9])[C:5]([H:10])([H:11])[O:6]1)=[C:7]([H:12])[H:13])[H:8]"
C        2.96567062      -0.45159245       0.68633802
C        1.79529385      -0.35527328       0.44464360
C        0.39178534      -0.25232222       0.21606119
C       -0.27772386       0.97065465       0.17829991
C       -1.72100370       0.92085318      -0.11864328
O       -1.37177626       0.37251305      -1.35380665
C       -0.34979169      -1.26089138      -0.40419498
H        4.01442338      -0.49725729       0.86239202
H        0.26737676       1.90679422       0.21731727
H       -2.32956765       0.28318257       0.53718409
H       -2.19836485       1.90208371      -0.20721331
H        0.17609792      -2.04060696      -0.94627210
H       -1.36241987      -1.49813781      -0.11210580
13
Frame=5 idx=008360 GeodesicLength=0.2679712288234242 rxn_smarts="[C:1](#[C:2][C:3]1=[C:4]([H:9])[C:5]([H:10])([H:11])[O:6][C:7]1([H:12])[H:13])[H:8]>>[C:1](#[C:2][C:3]([C@:4]1([H:9])[C:5]([H:10])([H:11])[O:6]1)=[C:7]([H:12])[H:13])[H:8]"
C        2.95817301      -0.45664988       0.70694753
C        1.79198467      -0.35858243       0.44626424
C        0.39284243      -0.25169209       0.19642128
C       -0.27323707       0.97396876       0.15020098
C       -1.72486370       0.92761962      -0.09984080
O       -1.39415633       0.35658591      -1.33140356
C       -0.34740872      -1.25971951      -0.42919980
H        4.00469637      -0.49655632       0.89724737
H        0.27411057       1.90920953       0.17482043
H       -2.31900053       0.30155396       0.57867060
H       -2.20026542       1.90831457      -0.19996656
H        0.18243477      -2.03004874      -0.98114193
H       -1.34531005      -1.52400338      -0.10901978
13
Frame=6 idx=008360 GeodesicLength=0.3213759045277377 rxn_smarts="[C:1](#[C:2][C:3]1=[C:4]([H:9])[C:5]([H:10])([H:11])[O:6][C:7]1([H:12])[H:13])[H:8]>>[C:1](#[C:2][C:3]([C@:4]1([H:9])[C:5]([H:10])([H:11])[O:6]1)=[C:7]([H:12])[H:13])[H:8]"
C        2.95010031      -0.46123592       0.72654074
C        1.78813796      -0.36183843       0.44776606
C        0.39350748      -0.25141141       0.17743613
C       -0.26930918       0.97679375       0.12229554
C       -1.72777713       0.93471340      -0.08084378
O       -1.41604711       0.34031703      -1.30789075
C       -0.34537051      -1.25879535      -0.45378055
H        3.99387663      -0.49545199       0.93245348
H        0.28029697       1.91090750       0.13207960
H       -2.30704088       0.32120300       0.62033459
H       -2.20169783       1.91444061      -0.19310447
H        0.18853496      -2.01901236      -1.01612739
H       -1.32721168      -1.55062982      -0.10715920
13
Frame=7 idx=008360 GeodesicLength=0.3746374838791031 rxn_smarts="[C:1](#[C:2][C:3]1=[C:4]([H:9])[C:5]([H:10])([H:11])[O:6][C:7]1([H:12])[H:13])[H:8]>>[C:1](#[C:2][C:3]([C@:4]1([H:9])[C:5]([H:10])([H:11])[O:6]1)=[C:7]([H:12])[H:13])[H:8]"
C        2.94170030      -0.46560973       0.74413322
C        1.78324791      -0.36575348       0.45107800
C        0.39339948      -0.25190862       0.16026179
C       -0.26600458       0.97887172       0.09541566
C       -1.72971054       0.94229983      -0.06218854
O       -1.43648518       0.32396897      -1.28356810
C       -0.34380601      -1.25826904      -0.47758309
H        3.98250923      -0.49250707       0.96577256
H        0.28606441       1.91152902       0.09064938
H       -2.29442587       0.34234003       0.66103412
H       -2.20230078       1.92074662      -0.18743721
H        0.19450551      -2.00770661      -1.05050748
H       -1.30869387      -1.57800165      -0.10706033
13
Frame=8 idx=008360 GeodesicLength=0.4277921433054551 rxn_smarts="[C:1](#[C:2][C:3]1=[C:4]([H:9])[C:5]([H:10])([H:11])[O:6][C:7]1([H:12])[H:13])[H:8]>>[C:1](#[C:2][C:3]([C@:4]1([H:9])[C:5]([H:10])([H:11])[O:6]1)=[C:7]([H:12])[H:13])[H:8]"
C        2.93370353      -0.46819516       0.75766625
C        1.77603840      -0.37072483       0.46054186
C        0.39177791      -0.25338969       0.14731140
C       -0.26379625       0.98004275       0.07115182
C       -1.73098924       0.95049854      -0.04506040
O       -1.45361450       0.30782718      -1.25916232
C       -0.34239611      -1.25807407      -0.49966126
H        3.97186041      -0.48924927       0.99205998
H        0.29104352       1.91081887       0.05350018
H       -2.28295395       0.36509383       0.69843799
H       -2.20199662       1.92738550      -0.18481555
H        0.20157234      -1.99606475      -1.08244356
H       -1.29024944      -1.60596890      -0.10952639
13
Frame=9 idx=008360 GeodesicLength=0.4807477713278634 rxn_smarts="[C:1](#[C:2][C:3]1=[C:4]([H:9])[C:5]([H:10])([H:11])[O:6][C:7]1([H:12])[H:13])[H:8]>>[C:1](#[C:2][C:3]([C@:4]1([H:9])[C:5]([H:10])([H:11])[O:6]1)=[C:7]([H:12])[H:13])[H:8]"
C        2.92629886      -0.46911322       0.76689470
C        1.76713931      -0.37626222       0.47432289
C        0.38899911      -0.25562740       0.13777117
C       -0.26245216       0.98048166       0.04898973
C       -1.73182673       0.95923526      -0.02908946
O       -1.46844637       0.29172675      -1.23449869
C       -0.34104893      -1.25815484      -0.52029940
H        3.96151233      -0.48632739       1.01409092
H        0.29546227       1.90907735       0.01964027
H       -2.27239173       0.38935489       0.73346298
H       -2.20114435       1.93420390      -0.18468704
H        0.20959486      -1.98394962      -1.11248724
H       -1.27169647      -1.63464511      -0.11411082
13
Frame=10 idx=008360 GeodesicLength=0.5335736236173341 rxn_smarts="[C:1](#[C:2][C:3]1=[C:4]([H:9])[C:5]([H:10])([H:11])[O:6][C:7]1([H:12])[H:13])[H:8]>>[C:1](#[C:2][C:3]([C@:4]1([H:9])[C:5]([H:10])([H:11])[O:6]1)=[C:7]([H:12])[H:13])[H:8]"
C        2.91813706      -0.46874018       0.77672067
C        1.75666320      -0.38172623       0.49227248
C        0.38513066      -0.25828827       0.13167506
C       -0.26204046       0.98038095       0.02888814
C       -1.73248819       0.96844253      -0.01445817
O       -1.48105501       0.27554853      -1.20968630
C       -0.33933138      -1.25829283      -0.53947928
H        3.95243250      -0.48499155       1.02771757
H        0.29912142       1.90657817      -0.01097143
H       -2.26302182       0.41505907       0.76596550
H       -2.20011617       1.94097563      -0.18732258
H        0.21921377      -1.97099783      -1.14054431
H       -1.25264558      -1.66394800      -0.12077736
13
Frame=11 idx=008360 GeodesicLength=0.5862753435113056 rxn_smarts="[C:1](#[C:2][C:3]1=[C:4]([H:9])[C:5]([H:10])([H:11])[O:6][C:7]1([H:12])[H:13])[H:8]>>[C:1](#[C:2][C:3]([C@:4]1([H:9])[C:5]([H:10])([H:11])[O:6]1)=[C:7]([H:12])[H:13])[H:8]"
C        2.90852059      -0.46828793       0.79038413
C        1.74495829      -0.38705715       0.51272150
C        0.38036843      -0.26135279       0.12824096
C       -0.26231912       0.97977181       0.01034693
C       -1.73297170       0.97811988      -0.00080908
O       -1.49223389       0.25917316      -1.18444399
C       -0.33727799      -1.25847969      -0.55761842
H        3.94484459      -0.48416584       1.03287533
H        0.30230325       1.90334616      -0.03946308
H       -2.25441897       0.44229189       0.79672152
H       -2.19894966       1.94764964      -0.19216697
H        0.23009825      -1.95705755      -1.16738341
H       -1.23292207      -1.69395160      -0.12940541
13
Frame=12 idx=008360 GeodesicLength=0.63888053447817 rxn_smarts="[C:1](#[C:2][C:3]1=[C:4]([H:9])[C:5]([H:10])([H:11])[O:6][C:7]1([H:12])[H:13])[H:8]>>[C:1](#[C:2][C:3]([C@:4]1([H:9])[C:5]([H:10])([H:11])[O:6]1)=[C:7]([H:12])[H:13])[H:8]"
C        2.89841369      -0.46763279       0.80422848
C        1.73316810      -0.39199025       0.53192692
C        0.37525162      -0.26470766       0.12557672
C       -0.26297813       0.97868911      -0.00784308
C       -1.73308531       0.98817770       0.01292525
O       -1.50358731       0.24221913      -1.15782327
C       -0.33517654      -1.25876523      -0.57538580
H        3.93667361      -0.48372768       1.03828487
H        0.30520237       1.89941700      -0.06831543
H       -2.24508394       0.47116338       0.82776172
H       -2.19783495       1.95398134      -0.19767523
H        0.24114729      -1.94209705      -1.19442378
H       -1.21211050      -1.72472702      -0.13923737
13
Frame=13 idx=008360 GeodesicLength=0.6914166810574865 rxn_smarts="[C:1](#[C:2][C:3]1=[C:4]([H:9])[C:5]([H:10])([H:11])[O:6][C:7]1([H:12])[H:13])[H:8]>>[C:1](#[C:2][C:3]([C@:4]1([H:9])[C:5]([H:10])([H:11])[O:6]1)=[C:7]([H:12])[H:13])[H:8]"
C        2.88792260      -0.46676064       0.81809052
C        1.72134097      -0.39660790       0.54978887
C        0.36976736      -0.26838992       0.12356291
C       -0.26401407       0.97709441      -0.02578314
C       -1.73281125       0.99863479       0.02684928
O       -1.51529657       0.22459086      -1.12955384
C       -0.33307461      -1.25914462      -0.59289659
H        3.92784249      -0.48359115       1.04459618
H        0.30783274       1.89469411      -0.09791379
H       -2.23480678       0.50184045       0.85928527
H       -2.19680833       1.95990537      -0.20376467
H        0.25222819      -1.92596128      -1.22190621
H       -1.19012275      -1.75630449      -0.15035477
13
Frame=14 idx=008360 GeodesicLength=0.7439119116317806 rxn_smarts="[C:1](#[C:2][C:3]1=[C:4]([H:9])[C:5]([H:10])([H:11])[O:6][C:7]1([H:12])[H:13])[H:8]>>[C:1](#[C:2][C:3]([C@:4]1([H:9])[C:5]([H:10])([H:11])[O:6]1)=[C:7]([H:12])[H:13])[H:8]"
C        2.87778638      -0.46613257       0.82924090
C        1.71005271      -0.40121012       0.56438263
C        0.36412662      -0.27257664       0.12113894
C       -0.26525713       0.97484123      -0.04410062
C       -1.73187801       1.00951890       0.04159264
O       -1.52813934       0.20612916      -1.09890669
C       -0.33141476      -1.25974050      -0.61062805
H        3.91736292      -0.48227213       1.05742095
H        0.31035682       1.88892126      -0.12962474
H       -2.22250548       0.53459108       0.89237624
H       -2.19581224       1.96535895      -0.20952898
H        0.26230137      -1.90872222      -1.25078381
H       -1.16697985      -1.78870639      -0.16257942
13
Frame=15 idx=008360 GeodesicLength=0.7964097481153262 rxn_smarts="[C:1](#[C:2][C:3]1=[C:4]([H:9])[C:5]([H:10])([H:11])[O:6][C:7]1([H:12])[H:13])[H:8]>>[C:1](#[C:2][C:3]([C@:4]1([H:9])[C:5]([H:10])([H:11])[O:6]1)=[C:7]([H:12])[H:13])[H:8]"
C        2.86811286      -0.46591334       0.83739251
C        1.69931853      -0.40612357       0.57574192
C        0.35829170      -0.27744114       0.11826753
C       -0.26669523       0.97178617      -0.06280571
C       -1.73013739       1.02087507       0.05723656
O       -1.54211491       0.18677385      -1.06551377
C       -0.33036930      -1.26058657      -0.62870274
H        3.90506822      -0.47896807       1.07737843
H        0.31281003       1.88182830      -0.16368712
H       -2.20783371       0.56968426       0.92712417
H       -2.19474772       1.97029444      -0.21494319
H        0.27103342      -1.89024122      -1.28134110
H       -1.14273650      -1.82196818      -0.17614749
13
Frame=16 idx=008360 GeodesicLength=0.8488528061390704 rxn_smarts="[C:1](#[C:2][C:3]1=[C:4]([H:9])[C:5]([H:10])([H:11])[O:6][C:7]1([H:12])[H:13])[H:8]>>[C:1](#[C:2][C:3]([C@:4]1([H:9])[C:5]([H:10])([H:11])[O:6]1)=[C:7]([H:12])[H:13])[H:8]"
C        2.85718477      -0.46525472       0.84912696
C        1.68760136      -0.41079971       0.58957324
C        0.35156815      -0.28263640       0.11789401
C       -0.26889996       0.96818018      -0.08002689
C       -1.72841602       1.03270247       0.07199113
O       -1.55507637       0.16680496      -1.03063659
C       -0.32881179      -1.26125091      -0.64593391
H        3.89399474      -0.47739954       1.08978913
H        0.31460620       1.87379332      -0.19648102
H       -2.19355672       0.60696468       0.96038452
H       -2.19405144       1.97455140      -0.22272697
H        0.28105613      -1.86991101      -1.31098694
H       -1.11719905      -1.85574471      -0.19196666
