12
Frame=0 idx=003203 GeodesicLength=0.0 rxn_smarts="[C:1]([c:2]1[c:3]([H:10])[c:4]([H:11])[n:5][n:6]1[H:12])([H:7])([H:8])[H:9]>>[C:1]([C:2]1=[N+:5]([N-:6][H:12])[C:4]([H:11])=[C:3]1[H:10])([H:7])([H:8])[H:9]"
C       -1.88807961      -1.04435491       0.12884914
C       -0.71858485      -0.25840043       0.55952556
C        0.52066139      -0.70735169       0.03754188
C        1.52610041       0.18566665      -0.08136648
N        1.45346082       1.47874913       0.42580941
N        1.28591866       2.41888975      -0.34442497
H       -2.68286148      -1.05930502       0.87636680
H       -2.29351054      -0.45282212      -0.70762805
H       -1.69153177      -2.05686564      -0.25374604
H        0.69268406      -1.72067542      -0.33689604
H        2.48686075      -0.05800208      -0.52918805
H        1.30888221       3.27447179       0.22515679
12
Frame=1 idx=003203 GeodesicLength=0.15646489618772783 rxn_smarts="[C:1]([c:2]1[c:3]([H:10])[c:4]([H:11])[n:5][n:6]1[H:12])([H:7])([H:8])[H:9]>>[C:1]([C:2]1=[N+:5]([N-:6][H:12])[C:4]([H:11])=[C:3]1[H:10])([H:7])([H:8])[H:9]"
C       -1.86300101      -0.98210179       0.12008047
C       -0.65737748      -0.24676227       0.54189531
C        0.57334302      -0.75654214       0.06996825
C        1.58289842       0.14003014      -0.05551015
N        1.46185626       1.43343350       0.42159794
N        1.08761858       2.35263136      -0.30222321
H       -2.65497929      -0.95167644       0.87025272
H       -2.24387426      -0.39079988      -0.72725746
H       -1.70768240      -2.00898202      -0.24038878
H        0.71282534      -1.75859274      -0.34291319
H        2.51735120      -0.06222843      -0.57192730
H        1.19102162       3.23159071       0.21642540
12
Frame=2 idx=003203 GeodesicLength=0.3148961672514584 rxn_smarts="[C:1]([c:2]1[c:3]([H:10])[c:4]([H:11])[n:5][n:6]1[H:12])([H:7])([H:8])[H:9]>>[C:1]([C:2]1=[N+:5]([N-:6][H:12])[C:4]([H:11])=[C:3]1[H:10])([H:7])([H:8])[H:9]"
C       -1.83867892      -0.92449897       0.11183863
C       -0.60043842      -0.24014925       0.52673972
C        0.61884909      -0.79875175       0.09482770
C        1.62887980       0.10449412      -0.04530112
N        1.46321287       1.39477903       0.40663007
N        0.91888450       2.28347747      -0.24654420
H       -2.62472279      -0.85505313       0.86579660
H       -2.19904260      -0.33119932      -0.74231746
H       -1.72241521      -1.96137885      -0.23210206
H        0.73337552      -1.79357181      -0.34008252
H        2.54514579      -0.06769909      -0.60201085
H        1.07695037       3.18955155       0.20252549
12
Frame=3 idx=003203 GeodesicLength=0.47312679149196213 rxn_smarts="[C:1]([c:2]1[c:3]([H:10])[c:4]([H:11])[n:5][n:6]1[H:12])([H:7])([H:8])[H:9]>>[C:1]([C:2]1=[N+:5]([N-:6][H:12])[C:4]([H:11])=[C:3]1[H:10])([H:7])([H:8])[H:9]"
C       -1.81691142      -0.87308571       0.10338211
C       -0.55029840      -0.23471082       0.50792381
C        0.65670447      -0.83319772       0.11017705
C        1.66458323       0.07826262      -0.05006060
N        1.45885426       1.36138887       0.38492920
N        0.77523896       2.21849784      -0.17625400
H       -2.59422769      -0.76720477       0.86229883
H       -2.16200541      -0.28175572      -0.75774729
H       -1.73601538      -1.91849590      -0.22217481
H        0.75465589      -1.82879232      -0.32468124
H        2.57209661      -0.07228003      -0.62557252
H        0.97732489       3.15137366       0.18777947
12
Frame=4 idx=003203 GeodesicLength=0.6319815738273868 rxn_smarts="[C:1]([c:2]1[c:3]([H:10])[c:4]([H:11])[n:5][n:6]1[H:12])([H:7])([H:8])[H:9]>>[C:1]([C:2]1=[N+:5]([N-:6][H:12])[C:4]([H:11])=[C:3]1[H:10])([H:7])([H:8])[H:9]"
C       -1.79711183      -0.82425216       0.09855018
C       -0.50311230      -0.23276586       0.48972484
C        0.68965666      -0.86291693       0.11392033
C        1.69857070       0.05572691      -0.05018706
N        1.44962211       1.33265225       0.35871947
N        0.65561319       2.15087400      -0.11107794
H       -2.55930469      -0.69309036       0.86893068
H       -2.13591342      -0.22718539      -0.76042011
H       -1.75096822      -1.87307366      -0.22028264
H        0.77165868      -1.85522195      -0.32943349
H        2.61259719      -0.08106181      -0.61740169
H        0.86869194       3.11031496       0.15895744
12
Frame=5 idx=003203 GeodesicLength=0.7884770817380815 rxn_smarts="[C:1]([c:2]1[c:3]([H:10])[c:4]([H:11])[n:5][n:6]1[H:12])([H:7])([H:8])[H:9]>>[C:1]([C:2]1=[N+:5]([N-:6][H:12])[C:4]([H:11])=[C:3]1[H:10])([H:7])([H:8])[H:9]"
C       -1.78052716      -0.78130213       0.09216952
C       -0.46309061      -0.22880067       0.46388274
C        0.71674334      -0.88653654       0.11196372
C        1.72403528       0.04029223      -0.06395338
N        1.43803347       1.30642830       0.33054829
N        0.55387822       2.09199804      -0.02452534
H       -2.52649690      -0.62363214       0.87353547
H       -2.11705634      -0.18711949      -0.76895318
H       -1.76474165      -1.83483785      -0.21118752
H        0.78934745      -1.88320517      -0.32072360
H        2.65097593      -0.08593576      -0.61061679
H        0.77889898       3.07265117       0.12786008
12
Frame=6 idx=003203 GeodesicLength=0.9445495454611558 rxn_smarts="[C:1]([c:2]1[c:3]([H:10])[c:4]([H:11])[n:5][n:6]1[H:12])([H:7])([H:8])[H:9]>>[C:1]([C:2]1=[N+:5]([N-:6][H:12])[C:4]([H:11])=[C:3]1[H:10])([H:7])([H:8])[H:9]"
C       -1.76544126      -0.73892785       0.08852446
C       -0.42508934      -0.22471622       0.43472809
C        0.74084423      -0.90680026       0.10141881
C        1.75015706       0.02639963      -0.07390155
N        1.42604406       1.28308453       0.29692254
N        0.47212180       2.03296965       0.05936345
H       -2.48989502      -0.56144919       0.88588247
H       -2.10709056      -0.14395589      -0.76927904
H       -1.77957059      -1.79451871      -0.20491007
H        0.80368483      -1.90494819      -0.32698766
H        2.69976897      -0.09460501      -0.57967010
H        0.67446583       3.02746749       0.08790860
12
Frame=7 idx=003203 GeodesicLength=1.0983828310522197 rxn_smarts="[C:1]([c:2]1[c:3]([H:10])[c:4]([H:11])[n:5][n:6]1[H:12])([H:7])([H:8])[H:9]>>[C:1]([C:2]1=[N+:5]([N-:6][H:12])[C:4]([H:11])=[C:3]1[H:10])([H:7])([H:8])[H:9]"
C       -1.75162568      -0.69736073       0.08374633
C       -0.39026187      -0.21742297       0.39852662
C        0.76232553      -0.92324311       0.08803166
C        1.77522518       0.01468949      -0.08625082
N        1.41505622       1.26197100       0.25774892
N        0.40984452       1.97815221       0.15708963
H       -2.45203982      -0.50126195       0.89822048
H       -2.10303219      -0.10504478      -0.77125946
H       -1.79360502      -1.75517152      -0.19634371
H        0.81769373      -1.92600853      -0.32817567
H        2.74742175      -0.10299895      -0.54626742
H        0.56299764       2.97369984       0.04493344
12
Frame=8 idx=003203 GeodesicLength=1.250081469470977 rxn_smarts="[C:1]([c:2]1[c:3]([H:10])[c:4]([H:11])[n:5][n:6]1[H:12])([H:7])([H:8])[H:9]>>[C:1]([C:2]1=[N+:5]([N-:6][H:12])[C:4]([H:11])=[C:3]1[H:10])([H:7])([H:8])[H:9]"
C       -1.73790007      -0.65444755       0.07497752
C       -0.35798274      -0.20369843       0.35208360
C        0.78203206      -0.93542914       0.07756334
C        1.80004673       0.00420705      -0.10303595
N        1.40437494       1.24409746       0.20014374
N        0.37086259       1.92709820       0.26925449
H       -2.41303710      -0.43726778       0.90545578
H       -2.10243164      -0.07274009      -0.78103099
H       -1.80523992      -1.71586487      -0.18313768
H        0.83266723      -1.94917986      -0.30908190
H        2.79012513      -0.11265772      -0.52163515
H        0.43648278       2.90588273       0.01844320
12
Frame=9 idx=003203 GeodesicLength=1.4018342984602257 rxn_smarts="[C:1]([c:2]1[c:3]([H:10])[c:4]([H:11])[n:5][n:6]1[H:12])([H:7])([H:8])[H:9]>>[C:1]([C:2]1=[N+:5]([N-:6][H:12])[C:4]([H:11])=[C:3]1[H:10])([H:7])([H:8])[H:9]"
C       -1.72330513      -0.60856850       0.06490762
C       -0.32592138      -0.18701454       0.30046495
C        0.80113064      -0.94531293       0.06949143
C        1.82930159      -0.00705265      -0.10768501
N        1.38575940       1.23039064       0.09949591
N        0.35599864       1.87381663       0.37082619
H       -2.37165781      -0.36832369       0.91050120
H       -2.10308178      -0.04093402      -0.79316563
H       -1.81596050      -1.67361054      -0.16694241
H        0.84729004      -1.97059178      -0.28336947
H        2.83311193      -0.12543144      -0.49046747
H        0.28733436       2.82263282       0.02594269
12
Frame=10 idx=003203 GeodesicLength=1.5577909248091246 rxn_smarts="[C:1]([c:2]1[c:3]([H:10])[c:4]([H:11])[n:5][n:6]1[H:12])([H:7])([H:8])[H:9]>>[C:1]([C:2]1=[N+:5]([N-:6][H:12])[C:4]([H:11])=[C:3]1[H:10])([H:7])([H:8])[H:9]"
C       -1.70963927      -0.56303839       0.05896603
C       -0.29576503      -0.17397926       0.25033671
C        0.81846625      -0.95382331       0.05524903
C        1.85662847      -0.01273056      -0.09997158
N        1.35359613       1.21292886      -0.01915988
N        0.35921082       1.81643292       0.43683667
H       -2.32793280      -0.29932213       0.92004836
H       -2.10700109      -0.00840906      -0.79892169
H       -1.82833407      -1.63030733      -0.14616387
H        0.86061587      -1.98503502      -0.27715431
H        2.87846939      -0.12787193      -0.43084971
H        0.14168532       2.72515522       0.05078422
12
Frame=11 idx=003203 GeodesicLength=1.7178669703363942 rxn_smarts="[C:1]([c:2]1[c:3]([H:10])[c:4]([H:11])[n:5][n:6]1[H:12])([H:7])([H:8])[H:9]>>[C:1]([C:2]1=[N+:5]([N-:6][H:12])[C:4]([H:11])=[C:3]1[H:10])([H:7])([H:8])[H:9]"
C       -1.69677935      -0.52020727       0.05454171
C       -0.26903267      -0.16536378       0.21104544
C        0.83386207      -0.96171889       0.04360235
C        1.87519367      -0.01196985      -0.10221594
N        1.31652032       1.18979184      -0.11711036
N        0.36703926       1.75974062       0.47535923
H       -2.28784688      -0.23814904       0.92894506
H       -2.10859187       0.02630022      -0.80100122
H       -1.83977827      -1.58759359      -0.13013769
H        0.87381860      -1.99777931      -0.27020634
H        2.91569277      -0.11465505      -0.37053433
H        0.01990235       2.62160409       0.07771209
12
Frame=12 idx=003203 GeodesicLength=1.8794560296699492 rxn_smarts="[C:1]([c:2]1[c:3]([H:10])[c:4]([H:11])[n:5][n:6]1[H:12])([H:7])([H:8])[H:9]>>[C:1]([C:2]1=[N+:5]([N-:6][H:12])[C:4]([H:11])=[C:3]1[H:10])([H:7])([H:8])[H:9]"
C       -1.68467396      -0.48036393       0.04957007
C       -0.24515740      -0.16000279       0.17827365
C        0.84793519      -0.96928997       0.03561575
C        1.88792125      -0.00831207      -0.11699839
N        1.27878334       1.16416708      -0.19720393
N        0.37332955       1.70487420       0.49773348
H       -2.25117685      -0.18395621       0.93556049
H       -2.10836881       0.06179841      -0.80221315
H       -1.85037969      -1.54648214      -0.11922546
H        0.88707706      -2.01157652      -0.25343325
H        2.94465540      -0.09074953      -0.31656721
H       -0.07994507       2.51989346       0.10888794
12
Frame=13 idx=003203 GeodesicLength=2.041983875023751 rxn_smarts="[C:1]([c:2]1[c:3]([H:10])[c:4]([H:11])[n:5][n:6]1[H:12])([H:7])([H:8])[H:9]>>[C:1]([C:2]1=[N+:5]([N-:6][H:12])[C:4]([H:11])=[C:3]1[H:10])([H:7])([H:8])[H:9]"
C       -1.67304256      -0.44305832       0.04381552
C       -0.22348970      -0.15694509       0.15061642
C        0.86095363      -0.97638873       0.03037769
C        1.89739194      -0.00336028      -0.13822384
N        1.24099734       1.13717997      -0.26601889
N        0.37820881       1.65189201       0.51133361
H       -2.21748675      -0.13542901       0.93990998
H       -2.10634784       0.09750388      -0.80344120
H       -1.86008489      -1.50691869      -0.11252472
H        0.90033507      -2.02557510      -0.22860701
H        2.96556562      -0.06002705      -0.27005634
H       -0.16300067       2.42112641       0.14281878
12
Frame=14 idx=003203 GeodesicLength=2.2051104911704202 rxn_smarts="[C:1]([c:2]1[c:3]([H:10])[c:4]([H:11])[n:5][n:6]1[H:12])([H:7])([H:8])[H:9]>>[C:1]([C:2]1=[N+:5]([N-:6][H:12])[C:4]([H:11])=[C:3]1[H:10])([H:7])([H:8])[H:9]"
C       -1.66191464      -0.40814015       0.03757934
C       -0.20375160      -0.15552000       0.12661750
C        0.87296948      -0.98293937       0.02666313
C        1.90489432       0.00243253      -0.16081668
N        1.20370640       1.10921397      -0.32640272
N        0.38179771       1.60089643       0.51930946
H       -2.18607043      -0.09216906       0.94298098
H       -2.10346760       0.13309802      -0.80428675
H       -1.86901997      -1.46899507      -0.10926119
H        0.91359991      -2.03874690      -0.19920328
H        2.97939828      -0.02518926      -0.23009980
H       -0.23214187       2.32605885       0.17692003
12
Frame=15 idx=003203 GeodesicLength=2.368805793037172 rxn_smarts="[C:1]([c:2]1[c:3]([H:10])[c:4]([H:11])[n:5][n:6]1[H:12])([H:7])([H:8])[H:9]>>[C:1]([C:2]1=[N+:5]([N-:6][H:12])[C:4]([H:11])=[C:3]1[H:10])([H:7])([H:8])[H:9]"
C       -1.65124035      -0.37533712       0.03073702
C       -0.18568057      -0.15546686       0.10599438
C        0.88416836      -0.98901239       0.02426628
C        1.91080689       0.00891145      -0.18358809
N        1.16687591       1.08042461      -0.38033279
N        0.38449878       1.55164068       0.52392018
H       -2.15695594      -0.05354978       0.94470861
H       -2.09956331       0.16866708      -0.80507839
H       -1.87729597      -1.43257996      -0.10933810
H        0.92705741      -2.05090656      -0.16525039
H        2.98725152       0.01222899      -0.19723215
H       -0.28992273       2.23497984       0.21119345
12
Frame=16 idx=003203 GeodesicLength=2.5328579705973406 rxn_smarts="[C:1]([c:2]1[c:3]([H:10])[c:4]([H:11])[n:5][n:6]1[H:12])([H:7])([H:8])[H:9]>>[C:1]([C:2]1=[N+:5]([N-:6][H:12])[C:4]([H:11])=[C:3]1[H:10])([H:7])([H:8])[H:9]"
C       -1.64110163      -0.34454014       0.02363511
C       -0.16914937      -0.15635787       0.08728742
C        0.89448916      -0.99465108       0.02219510
C        1.91556711       0.01600322      -0.20487315
N        1.13114393       1.05101791      -0.42870128
N        0.38625705       1.50405272       0.52597356
H       -2.12942307      -0.01932358       0.94598703
H       -2.09561025       0.20403528      -0.80516102
H       -1.88508414      -1.39770364      -0.11194605
H        0.94056498      -2.06158929      -0.12904742
H        2.99050181       0.05089076      -0.16938939
H       -0.33815557       2.14816570       0.24404009
