17
Frame=0 idx=009042 GeodesicLength=0.0 rxn_smarts="[C:1]([C@@:2]1([H:11])[C:3]([H:12])([H:13])[C:4]([H:14])=[C:5]([H:15])[C:6]([H:16])([H:17])[O:7]1)([H:8])([H:9])[H:10]>>[C:1]([C@@:2]1([H:11])[C:3]([H:12])([H:13])[C:4][C:5]([H:14])([H:15])[C:6]([H:16])([H:17])[O:7]1)([H:8])([H:9])[H:10]"
C       -2.22332399       0.25758462       0.01837671
C       -0.74827218       0.16140861       0.33321982
C       -0.18698129      -1.24828738       0.17048158
C        1.31728356      -1.36945774       0.21929504
C        1.96847196      -0.16114187      -0.05126956
C        1.29085842       1.17874028      -0.22770034
O       -0.06756352       1.05255282      -0.54367312
H       -2.79543179      -0.41301493       0.66198490
H       -2.40316588      -0.02376361      -1.02125570
H       -2.58557459       1.27541952       0.16613392
H       -0.57272738       0.49681737       1.36821929
H       -0.53273232      -1.68190207      -0.77534650
H       -0.59013490      -1.90909116       0.94347879
H        1.88771118      -0.98881912      -0.96855073
H        3.05531532      -0.12739509       0.04237192
H        1.43017403       1.75574673       0.70104761
H        1.75609342       1.74460298      -1.03681361
17
Frame=1 idx=009042 GeodesicLength=0.03833599995229041 rxn_smarts="[C:1]([C@@:2]1([H:11])[C:3]([H:12])([H:13])[C:4]([H:14])=[C:5]([H:15])[C:6]([H:16])([H:17])[O:7]1)([H:8])([H:9])[H:10]>>[C:1]([C@@:2]1([H:11])[C:3]([H:12])([H:13])[C:4][C:5]([H:14])([H:15])[C:6]([H:16])([H:17])[O:7]1)([H:8])([H:9])[H:10]"
C       -2.22401453       0.25785185       0.01904416
C       -0.74883916       0.16267779       0.33383799
C       -0.18750393      -1.24720783       0.17160842
C        1.31543316      -1.36514134       0.21657707
C        1.97023466      -0.16020115      -0.05719799
C        1.29058371       1.17913696      -0.22828051
O       -0.06851470       1.05324932      -0.54319208
H       -2.79573162      -0.41360381       0.66213154
H       -2.40370898      -0.02278531      -1.02080162
H       -2.58677442       1.27534589       0.16782721
H       -0.57370256       0.49790561       1.36895656
H       -0.53183600      -1.68007451      -0.77544112
H       -0.59064551      -1.90896772       0.94376669
H        1.89671198      -1.00601489      -0.97418693
H        3.05553753      -0.12486451       0.04995195
H        1.42868879       1.75454652       0.70160029
H        1.75408158       1.74814714      -1.03620164
17
Frame=2 idx=009042 GeodesicLength=0.0766706064528509 rxn_smarts="[C:1]([C@@:2]1([H:11])[C:3]([H:12])([H:13])[C:4]([H:14])=[C:5]([H:15])[C:6]([H:16])([H:17])[O:7]1)([H:8])([H:9])[H:10]>>[C:1]([C@@:2]1([H:11])[C:3]([H:12])([H:13])[C:4][C:5]([H:14])([H:15])[C:6]([H:16])([H:17])[O:7]1)([H:8])([H:9])[H:10]"
C       -2.22470874       0.25812668       0.01973533
C       -0.74940398       0.16396149       0.33445094
C       -0.18800967      -1.24610253       0.17267406
C        1.31359352      -1.36077265       0.21374410
C        1.97200076      -0.15921182      -0.06321228
C        1.29029290       1.17957460      -0.22887653
O       -0.06948761       1.05399391      -0.54270118
H       -2.79601481      -0.41421003       0.66229198
H       -2.40427193      -0.02177050      -1.02032825
H       -2.58798564       1.27527055       0.16957887
H       -0.57465922       0.49897730       1.36969560
H       -0.53094005      -1.67819054      -0.77560157
H       -0.59110678      -1.90884664       0.94398381
H        1.90586520      -1.02362416      -0.97951054
H        3.05559256      -0.12227276       0.05752339
H        1.42721130       1.75335619       0.70214673
H        1.75203220       1.75174094      -1.03559446
17
Frame=3 idx=009042 GeodesicLength=0.11500018605605661 rxn_smarts="[C:1]([C@@:2]1([H:11])[C:3]([H:12])([H:13])[C:4]([H:14])=[C:5]([H:15])[C:6]([H:16])([H:17])[O:7]1)([H:8])([H:9])[H:10]>>[C:1]([C@@:2]1([H:11])[C:3]([H:12])([H:13])[C:4][C:5]([H:14])([H:15])[C:6]([H:16])([H:17])[O:7]1)([H:8])([H:9])[H:10]"
C       -2.22540637       0.25840885       0.02044776
C       -0.74996688       0.16525969       0.33505946
C       -0.18849774      -1.24497170       0.17367905
C        1.31176541      -1.35635223       0.21079126
C        1.97377061      -0.15817190      -0.06931127
C        1.28998619       1.18005553      -0.22948386
O       -0.07048184       1.05478937      -0.54219705
H       -2.79628235      -0.41483325       0.66246370
H       -2.40485204      -0.02072070      -1.01983841
H       -2.58920859       1.27519378       0.17138339
H       -0.57559923       0.50003088       1.37043821
H       -0.53004552      -1.67625163      -0.77582632
H       -0.59151604      -1.90872789       0.94413238
H        1.91516504      -1.04165043      -0.98450175
H        3.05548123      -0.11962203       0.06505683
H        1.42574221       1.75217548       0.70269295
H        1.74994591       1.75538819      -1.03498631
17
Frame=4 idx=009042 GeodesicLength=0.1533233210943475 rxn_smarts="[C:1]([C@@:2]1([H:11])[C:3]([H:12])([H:13])[C:4]([H:14])=[C:5]([H:15])[C:6]([H:16])([H:17])[O:7]1)([H:8])([H:9])[H:10]>>[C:1]([C@@:2]1([H:11])[C:3]([H:12])([H:13])[C:4][C:5]([H:14])([H:15])[C:6]([H:16])([H:17])[O:7]1)([H:8])([H:9])[H:10]"
C       -2.22610611       0.25869694       0.02117853
C       -0.75052780       0.16657246       0.33566426
C       -0.18896817      -1.24381364       0.17462453
C        1.30994738      -1.35187676       0.20771808
C        1.97554259      -0.15708020      -0.07549749
C        1.28966338       1.18058143      -0.23009684
O       -0.07149712       1.05563785      -0.54167468
H       -2.79653385      -0.41547314       0.66264296
H       -2.40544599      -0.01963945      -1.01933404
H       -2.59044182       1.27511348       0.17323397
H       -0.57652353       0.50106523       1.37118491
H       -0.52915387      -1.67425764      -0.77611251
H       -0.59187212      -1.90860846       0.94421346
H        1.92460788      -1.06009809      -0.98914297
H        3.05520327      -0.11691434       0.07252007
H        1.42428358       1.75100136       0.70324662
H        1.74782230       1.75909296      -1.03436887
17
Frame=5 idx=009042 GeodesicLength=0.1916427858202592 rxn_smarts="[C:1]([C@@:2]1([H:11])[C:3]([H:12])([H:13])[C:4]([H:14])=[C:5]([H:15])[C:6]([H:16])([H:17])[O:7]1)([H:8])([H:9])[H:10]>>[C:1]([C@@:2]1([H:11])[C:3]([H:12])([H:13])[C:4][C:5]([H:14])([H:15])[C:6]([H:16])([H:17])[O:7]1)([H:8])([H:9])[H:10]"
C       -2.22680956       0.25899230       0.02192845
C       -0.75108741       0.16789999       0.33626540
C       -0.18941981      -1.24262960       0.17550757
C        1.30814117      -1.34734854       0.20451774
C        1.97731780      -0.15593523      -0.08177135
C        1.28932402       1.18115448      -0.23071599
O       -0.07253451       1.05654237      -0.54113420
H       -2.79677068      -0.41613019       0.66283080
H       -2.40605514      -0.01852352      -1.01881595
H       -2.59168808       1.27503185       0.17513327
H       -0.57743312       0.50207847       1.37193760
H       -0.52826456      -1.67220817      -0.77646451
H       -0.59217286      -1.90849160       0.94422496
H        1.93419744      -1.07897710      -0.99341077
H        3.05476036      -0.11415005       0.07990126
H        1.42283404       1.74983546       0.70380853
H        1.74566090       1.76285908      -1.03374279
17
Frame=6 idx=009042 GeodesicLength=0.22992411889186462 rxn_smarts="[C:1]([C@@:2]1([H:11])[C:3]([H:12])([H:13])[C:4]([H:14])=[C:5]([H:15])[C:6]([H:16])([H:17])[O:7]1)([H:8])([H:9])[H:10]>>[C:1]([C@@:2]1([H:11])[C:3]([H:12])([H:13])[C:4][C:5]([H:14])([H:15])[C:6]([H:16])([H:17])[O:7]1)([H:8])([H:9])[H:10]"
C       -2.22751481       0.25929323       0.02269693
C       -0.75164470       0.16924168       0.33686202
C       -0.18985300      -1.24141783       0.17632556
C        1.30634520      -1.34276515       0.20118692
C        1.97909324      -0.15473393      -0.08813772
C        1.28896822       1.18177499      -0.23134013
O       -0.07359360       1.05750348      -0.54057301
H       -2.79699078      -0.41680622       0.66302444
H       -2.40667813      -0.01737349      -1.01828340
H       -2.59294441       1.27494540       0.17708153
H       -0.57832601       0.50306851       1.37269424
H       -0.52737927      -1.67010037      -0.77688385
H       -0.59241832      -1.90837536       0.94416243
H        1.94392657      -1.09828817      -0.99727160
H        3.05415247      -0.11132971       0.08717878
H        1.42139653       1.74867412       0.70437964
H        1.74346080       1.76668882      -1.03310278
17
Frame=7 idx=009042 GeodesicLength=0.26821551134841337 rxn_smarts="[C:1]([C@@:2]1([H:11])[C:3]([H:12])([H:13])[C:4]([H:14])=[C:5]([H:15])[C:6]([H:16])([H:17])[O:7]1)([H:8])([H:9])[H:10]>>[C:1]([C@@:2]1([H:11])[C:3]([H:12])([H:13])[C:4][C:5]([H:14])([H:15])[C:6]([H:16])([H:17])[O:7]1)([H:8])([H:9])[H:10]"
C       -2.22822494       0.25960288       0.02349043
C       -0.75220068       0.17059812       0.33745342
C       -0.19026737      -1.24017981       0.17706920
C        1.30455944      -1.33812772       0.19771914
C        1.98087038      -0.15347477      -0.09459527
C        1.28859299       1.18244502      -0.23197746
O       -0.07467875       1.05852437      -0.53999505
H       -2.79719512      -0.41750521       0.66322680
H       -2.40732202      -0.01617600      -1.01773370
H       -2.59421458       1.27485705       0.17910012
H       -0.57919932       0.50403241       1.37345652
H       -0.52649455      -1.66792826      -0.77738577
H       -0.59260782      -1.90826610       0.94401459
H        1.95382195      -1.11805891      -1.00070128
H        3.05337590      -0.10844979       0.09437049
H        1.41996700       1.74752540       0.70495063
H        1.74121749       1.77058132      -1.03246281
17
Frame=8 idx=009042 GeodesicLength=0.3065021867968656 rxn_smarts="[C:1]([C@@:2]1([H:11])[C:3]([H:12])([H:13])[C:4]([H:14])=[C:5]([H:15])[C:6]([H:16])([H:17])[O:7]1)([H:8])([H:9])[H:10]>>[C:1]([C@@:2]1([H:11])[C:3]([H:12])([H:13])[C:4][C:5]([H:14])([H:15])[C:6]([H:16])([H:17])[O:7]1)([H:8])([H:9])[H:10]"
C       -2.22894022       0.25992048       0.02431400
C       -0.75275437       0.17196806       0.33803561
C       -0.19066435      -1.23891291       0.17773043
C        1.30278137      -1.33343034       0.19411018
C        1.98264722      -0.15215596      -0.10115257
C        1.28819729       1.18316258      -0.23263426
O       -0.07579124       1.05960227      -0.53940355
H       -2.79738110      -0.41823363       0.66343626
H       -2.40799258      -0.01491979      -1.01716150
H       -2.59549572       1.27476193       0.18120741
H       -0.58004721       0.50496686       1.37421769
H       -0.52561162      -1.66568410      -0.77797847
H       -0.59274425      -1.90816264       0.94376805
H        1.96389479      -1.13830610      -1.00365703
H        3.05242485      -0.10550045       0.10147800
H        1.41854684       1.74638635       0.70551300
H        1.73893028       1.77453737      -1.03182327
17
Frame=9 idx=009042 GeodesicLength=0.34478758599153 rxn_smarts="[C:1]([C@@:2]1([H:11])[C:3]([H:12])([H:13])[C:4]([H:14])=[C:5]([H:15])[C:6]([H:16])([H:17])[O:7]1)([H:8])([H:9])[H:10]>>[C:1]([C@@:2]1([H:11])[C:3]([H:12])([H:13])[C:4][C:5]([H:14])([H:15])[C:6]([H:16])([H:17])[O:7]1)([H:8])([H:9])[H:10]"
C       -2.22966124       0.26024747       0.02516733
C       -0.75330638       0.17335242       0.33861006
C       -0.19104261      -1.23761864       0.17830651
C        1.30101219      -1.32867639       0.19035273
C        1.98442350      -0.15077562      -0.10781324
C        1.28778032       1.18393151      -0.23330918
O       -0.07693235       1.06074292      -0.53879616
H       -2.79754877      -0.41898980       0.66365552
H       -2.40868935      -0.01360663      -1.01656833
H       -2.59679066       1.27466345       0.18339960
H       -0.58087160       0.50587060       1.37498234
H       -0.52473046      -1.66336820      -0.77866663
H       -0.59282505      -1.90806945       0.94342057
H        1.97414855      -1.15903929      -1.00610941
H        3.05130248      -0.10248680       0.10847913
H        1.41713484       1.74525757       0.70607187
H        1.73659658       1.77856486      -1.03118271
17
Frame=10 idx=009042 GeodesicLength=0.3830703661634283 rxn_smarts="[C:1]([C@@:2]1([H:11])[C:3]([H:12])([H:13])[C:4]([H:14])=[C:5]([H:15])[C:6]([H:16])([H:17])[O:7]1)([H:8])([H:9])[H:10]>>[C:1]([C@@:2]1([H:11])[C:3]([H:12])([H:13])[C:4][C:5]([H:14])([H:15])[C:6]([H:16])([H:17])[O:7]1)([H:8])([H:9])[H:10]"
C       -2.23038770       0.26058375       0.02605127
C       -0.75385642       0.17475117       0.33917723
C       -0.19140234      -1.23629542       0.17879256
C        1.29925064      -1.32386413       0.18643803
C        1.98619842      -0.14933149      -0.11458038
C        1.28734186       1.18475300      -0.23400144
O       -0.07810289       1.06194880      -0.53816951
H       -2.79769661      -0.41977275       0.66388640
H       -2.40941318      -0.01223856      -1.01595188
H       -2.59809964       1.27456055       0.18567530
H       -0.58167131       0.50674042       1.37575101
H       -0.52385353      -1.66097587      -0.77945502
H       -0.59284944      -1.90798708       0.94296471
H        1.98458657      -1.18026720      -1.00802298
H        3.05000965      -0.09940901       0.11535486
H        1.41573181       1.74413723       0.70662887
H        1.73421409       1.78266660      -1.03053904
17
Frame=11 idx=009042 GeodesicLength=0.4213533738818079 rxn_smarts="[C:1]([C@@:2]1([H:11])[C:3]([H:12])([H:13])[C:4]([H:14])=[C:5]([H:15])[C:6]([H:16])([H:17])[O:7]1)([H:8])([H:9])[H:10]>>[C:1]([C@@:2]1([H:11])[C:3]([H:12])([H:13])[C:4][C:5]([H:14])([H:15])[C:6]([H:16])([H:17])[O:7]1)([H:8])([H:9])[H:10]"
C       -2.23112086       0.26093058       0.02696850
C       -0.75440476       0.17616408       0.33973733
C       -0.19174310      -1.23494392       0.17918242
C        1.29749704      -1.31899411       0.18236008
C        1.98797185      -0.14782183      -0.12145473
C        1.28688076       1.18562899      -0.23471315
O       -0.07930478       1.06322244      -0.53752342
H       -2.79782520      -0.42058352       0.66413048
H       -2.41016667      -0.01081118      -1.01531071
H       -2.59942389       1.27445460       0.18804117
H       -0.58244491       0.50757266       1.37652541
H       -0.52297969      -1.65850249      -0.78035292
H       -0.59281771      -1.90792071       0.94239072
H        1.99521586      -1.20200090      -1.00935786
H        3.04854929      -0.09626720       0.12208952
H        1.41433626       1.74302747       0.70718241
H        1.73178051       1.78684504      -1.02989525
17
Frame=12 idx=009042 GeodesicLength=0.45962709628868537 rxn_smarts="[C:1]([C@@:2]1([H:11])[C:3]([H:12])([H:13])[C:4]([H:14])=[C:5]([H:15])[C:6]([H:16])([H:17])[O:7]1)([H:8])([H:9])[H:10]>>[C:1]([C@@:2]1([H:11])[C:3]([H:12])([H:13])[C:4][C:5]([H:14])([H:15])[C:6]([H:16])([H:17])[O:7]1)([H:8])([H:9])[H:10]"
C       -2.23185848       0.26128660       0.02792021
C       -0.75495005       0.17759010       0.34028972
C       -0.19206584      -1.23356247       0.17947066
C        1.29574889      -1.31406435       0.17811138
C        1.98973990      -0.14624195      -0.12843681
C        1.28639654       1.18656022      -0.23544409
O       -0.08053816       1.06456396      -0.53685547
H       -2.79793199      -0.42142406       0.66438587
H       -2.41094935      -0.00932393      -1.01464201
H       -2.60075885       1.27434233       0.19050067
H       -0.58318860       0.50836353       1.37730369
H       -0.52211164      -1.65594277      -0.78136559
H       -0.59273060      -1.90787084       0.94168855
H        2.00603136      -1.22424405      -1.01007015
H        3.04692362      -0.09306112       0.12866062
H        1.41294928       1.74192761       0.70773113
H        1.72929398       1.79110119      -1.02924836
17
Frame=13 idx=009042 GeodesicLength=0.4979009582498125 rxn_smarts="[C:1]([C@@:2]1([H:11])[C:3]([H:12])([H:13])[C:4]([H:14])=[C:5]([H:15])[C:6]([H:16])([H:17])[O:7]1)([H:8])([H:9])[H:10]>>[C:1]([C@@:2]1([H:11])[C:3]([H:12])([H:13])[C:4][C:5]([H:14])([H:15])[C:6]([H:16])([H:17])[O:7]1)([H:8])([H:9])[H:10]"
C       -2.23260297       0.26165348       0.02891266
C       -0.75549267       0.17902918       0.34083165
C       -0.19237142      -1.23215054       0.17964485
C        1.29400418      -1.30907265       0.17367903
C        1.99150293      -0.14459095      -0.13553750
C        1.28588712       1.18754758      -0.23620180
O       -0.08180657       1.06597696      -0.53616728
H       -2.79801492      -0.42229850       0.66465663
H       -2.41176982      -0.00776530      -1.01394089
H       -2.60210747       1.27422308       0.19307267
H       -0.58389840       0.50910794       1.37808396
H       -0.52125103      -1.65328961      -0.78250761
H       -0.59258755      -1.90783985       0.94084390
H        2.01705868      -1.24702100      -1.01010620
H        3.04512741      -0.08978520       0.13507302
H        1.41157191       1.74083733       0.70826824
H        1.72675061       1.79543804      -1.02860531
17
Frame=14 idx=009042 GeodesicLength=0.5361784366873386 rxn_smarts="[C:1]([C@@:2]1([H:11])[C:3]([H:12])([H:13])[C:4]([H:14])=[C:5]([H:15])[C:6]([H:16])([H:17])[O:7]1)([H:8])([H:9])[H:10]>>[C:1]([C@@:2]1([H:11])[C:3]([H:12])([H:13])[C:4][C:5]([H:14])([H:15])[C:6]([H:16])([H:17])[O:7]1)([H:8])([H:9])[H:10]"
C       -2.23335598       0.26203267       0.02994677
C       -0.75603335       0.18048114       0.34136303
C       -0.19265858      -1.23070954       0.17969977
C        1.29226450      -1.30402187       0.16905196
C        1.99326026      -0.14286642      -0.14276013
C        1.28535116       1.18859413      -0.23698648
O       -0.08311205       1.06746570      -0.53545793
H       -2.79807500      -0.42320783       0.66494305
H       -2.41262995      -0.00613073      -1.01320846
H       -2.60347247       1.27409888       0.19576115
H       -0.58457472       0.50980227       1.37886856
H       -0.52039869      -1.65054195      -0.78378574
H       -0.59238528      -1.90783155       0.93985208
H        2.02830119      -1.27033997      -1.00942081
H        3.04316766      -0.08644366       0.14130223
H        1.41020295       1.73975688       0.70879622
H        1.72414835       1.79986188      -1.02796529
17
Frame=15 idx=009042 GeodesicLength=0.574457161196873 rxn_smarts="[C:1]([C@@:2]1([H:11])[C:3]([H:12])([H:13])[C:4]([H:14])=[C:5]([H:15])[C:6]([H:16])([H:17])[O:7]1)([H:8])([H:9])[H:10]>>[C:1]([C@@:2]1([H:11])[C:3]([H:12])([H:13])[C:4][C:5]([H:14])([H:15])[C:6]([H:16])([H:17])[O:7]1)([H:8])([H:9])[H:10]"
C       -2.23411710       0.26242401       0.03102547
C       -0.75657136       0.18194491       0.34188241
C       -0.19292811      -1.22923887       0.17962660
C        1.29052769      -1.29891107       0.16421679
C        1.99500975      -0.14106496      -0.15010806
C        1.28478761       1.18970119      -0.23780013
O       -0.08445596       1.06903198      -0.53472617
H       -2.79811018      -0.42415419       0.66524594
H       -2.41353272      -0.00441604      -1.01244131
H       -2.60485195       1.27396793       0.19857421
H       -0.58521363       0.51044097       1.37965607
H       -0.51955828      -1.64769466      -0.78520900
H       -0.59212302      -1.90784781       0.93870136
H        2.03976256      -1.29420807      -1.00795931
H        3.04104638      -0.08303591       0.14733106
H        1.40884333       1.73868595       0.70931278
H        1.72148499       1.80437466      -1.02732869
17
Frame=16 idx=009042 GeodesicLength=0.6127371444193944 rxn_smarts="[C:1]([C@@:2]1([H:11])[C:3]([H:12])([H:13])[C:4]([H:14])=[C:5]([H:15])[C:6]([H:16])([H:17])[O:7]1)([H:8])([H:9])[H:10]>>[C:1]([C@@:2]1([H:11])[C:3]([H:12])([H:13])[C:4][C:5]([H:14])([H:15])[C:6]([H:16])([H:17])[O:7]1)([H:8])([H:9])[H:10]"
C       -2.23488674       0.26282808       0.03215222
C       -0.75710627       0.18341946       0.34238845
C       -0.19318031      -1.22773875       0.17941561
C        1.28879249      -1.29374056       0.15915887
C        1.99674983      -0.13918341      -0.15758529
C        1.28419512       1.19087063      -0.23864547
O       -0.08584025       1.07067840      -0.53397133
H       -2.79811901      -0.42513946       0.66556716
H       -2.41448203      -0.00261585      -1.01163631
H       -2.60624531       1.27382975       0.20152107
H       -0.58581148       0.51101804       1.38044600
H       -0.51873288      -1.64474283      -0.78678816
H       -0.59179939      -1.90789211       0.93737943
H        2.05144803      -1.31863300      -1.00566345
H        3.03876693      -0.07956241       0.15314307
H        1.40749328       1.73762494       0.70981553
H        1.71875800       1.80897910      -1.02669740
