10
Frame=0 idx=006021 GeodesicLength=0.0 rxn_smarts="[C:1]([O:2][C:3]([C:4]#[N:5])([H:9])[H:10])([H:6])([H:7])[H:8]>>[C:1](=[O:2])([H:6])[H:7].[C:3]1([H:9])([H:10])[C:4]([H:8])=[N:5]1"
C       -1.20948018       0.94916517       0.06752261
O       -0.79007533       0.40188038      -0.97712374
C        0.65921792      -0.71615245      -0.69121109
C        0.84348733      -0.41356758       0.72094913
N        1.79142999      -1.04639270       1.09504088
H       -2.01005298       0.48608932       0.65695649
H       -0.96416643       1.99609940       0.27889002
H        0.05328231       0.34205368       1.18185611
H        1.37895424      -0.31260408      -1.39207708
H        0.24740312      -1.68657112      -0.94080333
10
Frame=1 idx=006021 GeodesicLength=0.08716749212050287 rxn_smarts="[C:1]([O:2][C:3]([C:4]#[N:5])([H:9])[H:10])([H:6])([H:7])[H:8]>>[C:1](=[O:2])([H:6])[H:7].[C:3]1([H:9])([H:10])[C:4]([H:8])=[N:5]1"
C       -1.21282897       0.95789078       0.07628011
O       -0.76247340       0.44752181      -0.97744872
C        0.66542224      -0.72461236      -0.68683000
C        0.86519355      -0.40989383       0.72021940
N        1.82066852      -1.04077506       1.07566723
H       -2.03019805       0.47162244       0.62190513
H       -0.99798636       2.00715651       0.30954350
H        0.03853250       0.33999102       1.18178173
H        1.38702290      -0.35938954      -1.40679928
H        0.22664706      -1.68951176      -0.91431910
10
Frame=2 idx=006021 GeodesicLength=0.17392587749067817 rxn_smarts="[C:1]([O:2][C:3]([C:4]#[N:5])([H:9])[H:10])([H:6])([H:7])[H:8]>>[C:1](=[O:2])([H:6])[H:7].[C:3]1([H:9])([H:10])[C:4]([H:8])=[N:5]1"
C       -1.21619460       0.96618686       0.08492839
O       -0.73545575       0.49152206      -0.97541261
C        0.67157098      -0.73287945      -0.68208814
C        0.88657304      -0.40751203       0.72001334
N        1.85025825      -1.03546215       1.05554500
H       -2.04958288       0.45978285       0.58570680
H       -1.03087820       2.01677305       0.33806476
H        0.02366268       0.33722787       1.18184637
H        1.39231640      -0.40391726      -1.42040417
H        0.20773008      -1.69172179      -0.88819976
10
Frame=3 idx=006021 GeodesicLength=0.2604022210313255 rxn_smarts="[C:1]([O:2][C:3]([C:4]#[N:5])([H:9])[H:10])([H:6])([H:7])[H:8]>>[C:1](=[O:2])([H:6])[H:7].[C:3]1([H:9])([H:10])[C:4]([H:8])=[N:5]1"
C       -1.21965174       0.97409025       0.09355536
O       -0.70924944       0.53375996      -0.97115281
C        0.67768893      -0.74104073      -0.67703632
C        0.90751719      -0.40659420       0.72036365
N        1.88014196      -1.03041007       1.03468842
H       -2.06830096       0.45066984       0.54866405
H       -1.06284167       2.02521166       0.36443394
H        0.00868188       0.33395104       1.18204938
H        1.39513641      -0.44607324      -1.43294540
H        0.19087745      -1.69356452      -0.86262028
10
Frame=4 idx=006021 GeodesicLength=0.346666407162232 rxn_smarts="[C:1]([O:2][C:3]([C:4]#[N:5])([H:9])[H:10])([H:6])([H:7])[H:8]>>[C:1](=[O:2])([H:6])[H:7].[C:3]1([H:9])([H:10])[C:4]([H:8])=[N:5]1"
C       -1.22325502       0.98163101       0.10222247
O       -0.68387001       0.57433430      -0.96482914
C        0.68379047      -0.74916658      -0.67170914
C        0.92806860      -0.40710708       0.72123277
N        1.91027677      -1.02551785       1.01307830
H       -2.08641661       0.44422274       0.51089836
H       -1.09396877       2.03266204       0.38881060
H       -0.00648328       0.33023468       1.18240514
H        1.39577450      -0.48599292      -1.44455367
H        0.17608335      -1.69530033      -0.83755569
10
Frame=5 idx=006021 GeodesicLength=0.4326750172616708 rxn_smarts="[C:1]([O:2][C:3]([C:4]#[N:5])([H:9])[H:10])([H:6])([H:7])[H:8]>>[C:1](=[O:2])([H:6])[H:7].[C:3]1([H:9])([H:10])[C:4]([H:8])=[N:5]1"
C       -1.22700209       0.98881883       0.11094541
O       -0.65906870       0.61361089      -0.95658678
C        0.68982689      -0.75732416      -0.66610428
C        0.94835698      -0.40890041       0.72255288
N        1.94068978      -1.02056554       0.99063500
H       -2.10389181       0.44015633       0.47225055
H       -1.12445866       2.03924458       0.41152252
H       -0.02191534       0.32606387       1.18293424
H        1.39440404      -0.52400138      -1.45536493
H        0.16305890      -1.69710301      -0.81278460
10
Frame=6 idx=006021 GeodesicLength=0.5185392413324585 rxn_smarts="[C:1]([O:2][C:3]([C:4]#[N:5])([H:9])[H:10])([H:6])([H:7])[H:8]>>[C:1](=[O:2])([H:6])[H:7].[C:3]1([H:9])([H:10])[C:4]([H:8])=[N:5]1"
C       -1.23095322       0.99566048       0.11971830
O       -0.63469615       0.65185213      -0.94653579
C        0.69581896      -0.76553665      -0.66022516
C        0.96864485      -0.41165868       0.72420412
N        1.97133487      -1.01550901       0.96734226
H       -2.12071748       0.43831766       0.43258043
H       -1.15446119       2.04498023       0.43289478
H       -0.03775194       0.32137428       1.18364338
H        1.39117181      -0.56045436      -1.46556102
H        0.15160949      -1.69902608      -0.78806128
10
Frame=7 idx=006021 GeodesicLength=0.6044151261937025 rxn_smarts="[C:1]([O:2][C:3]([C:4]#[N:5])([H:9])[H:10])([H:6])([H:7])[H:8]>>[C:1](=[O:2])([H:6])[H:7].[C:3]1([H:9])([H:10])[C:4]([H:8])=[N:5]1"
C       -1.23513863       1.00220540       0.12853163
O       -0.61055120       0.68940750      -0.93474620
C        0.70171268      -0.77390852      -0.65408016
C        0.98902986      -0.41535776       0.72620428
N        2.00235368      -1.01014120       0.94313547
H       -2.13678798       0.43852513       0.39166498
H       -1.18422030       2.05002671       0.45318361
H       -0.05405224       0.31614361       1.18461484
H        1.38610187      -0.59561264      -1.47525301
H        0.14155226      -1.70128825      -0.76325545
10
Frame=8 idx=006021 GeodesicLength=0.6901078088322393 rxn_smarts="[C:1]([O:2][C:3]([C:4]#[N:5])([H:9])[H:10])([H:6])([H:7])[H:8]>>[C:1](=[O:2])([H:6])[H:7].[C:3]1([H:9])([H:10])[C:4]([H:8])=[N:5]1"
C       -1.23956307       1.00834722       0.13733575
O       -0.58637891       0.72646833      -0.92108627
C        0.70749914      -0.78236467      -0.64758236
C        1.00974365      -0.41967174       0.72832277
N        2.03353847      -1.00453774       0.91784292
H       -2.15192871       0.44063146       0.34931652
H       -1.21391205       2.05409052       0.47257124
H       -0.07084784       0.31040181       1.18566434
H        1.37925080      -0.62976074      -1.48440294
H        0.13259853      -1.70360445      -0.73798198
10
Frame=9 idx=006021 GeodesicLength=0.7756585783807555 rxn_smarts="[C:1]([O:2][C:3]([C:4]#[N:5])([H:9])[H:10])([H:6])([H:7])[H:8]>>[C:1](=[O:2])([H:6])[H:7].[C:3]1([H:9])([H:10])[C:4]([H:8])=[N:5]1"
C       -1.24429097       1.01419545       0.14616365
O       -0.56270354       0.76255871      -0.90575649
C        0.71318852      -0.79102649      -0.64084728
C        1.03048491      -0.42495836       0.73074378
N        2.06492595      -0.99828720       0.89157715
H       -2.16625201       0.44508633       0.30614483
H       -1.24297985       2.05762953       0.49075207
H       -0.08847663       0.30387001       1.18696100
H        1.37077777      -0.66240614      -1.49301498
H        0.12532585      -1.70666184      -0.71272372
10
Frame=10 idx=006021 GeodesicLength=0.8611875874446213 rxn_smarts="[C:1]([O:2][C:3]([C:4]#[N:5])([H:9])[H:10])([H:6])([H:7])[H:8]>>[C:1](=[O:2])([H:6])[H:7].[C:3]1([H:9])([H:10])[C:4]([H:8])=[N:5]1"
C       -1.24937901       1.01974730       0.15495266
O       -0.53931388       0.79800737      -0.88875147
C        0.71877604      -0.79991205      -0.63385954
C        1.05151916      -0.43096467       0.73336795
N        2.09646362      -0.99146140       0.86430718
H       -2.17958590       0.45167289       0.26193082
H       -1.27173216       2.06061309       0.50799949
H       -0.10693842       0.29660191       1.18846228
H        1.36070062      -0.69388157      -1.50118371
H        0.11948993      -1.71042287      -0.68722566
10
Frame=11 idx=006021 GeodesicLength=0.9466107621431371 rxn_smarts="[C:1]([O:2][C:3]([C:4]#[N:5])([H:9])[H:10])([H:6])([H:7])[H:8]>>[C:1](=[O:2])([H:6])[H:7].[C:3]1([H:9])([H:10])[C:4]([H:8])=[N:5]1"
C       -1.25487211       1.02496820       0.16365168
O       -0.51621151       0.83274653      -0.86996882
C        0.72428459      -0.80899644      -0.62656219
C        1.07291245      -0.43757951       0.73602782
N        2.12798146      -0.98407272       0.83588517
H       -2.19181715       0.46049489       0.21677590
H       -1.30016394       2.06291527       0.52433379
H       -0.12636053       0.28857641       1.18998058
H        1.34912399      -0.72426065      -1.50877424
H        0.11512275      -1.71479197      -0.66134969
10
Frame=12 idx=006021 GeodesicLength=1.0319402218398448 rxn_smarts="[C:1]([O:2][C:3]([C:4]#[N:5])([H:9])[H:10])([H:6])([H:7])[H:8]>>[C:1](=[O:2])([H:6])[H:7].[C:3]1([H:9])([H:10])[C:4]([H:8])=[N:5]1"
C       -1.26080650       1.02988920       0.17221035
O       -0.49346185       0.86676805      -0.84948289
C        0.72970132      -0.81833048      -0.61897670
C        1.09469538      -0.44478439       0.73872899
N        2.15945567      -0.97594649       0.80633200
H       -2.20289485       0.47159841       0.17079023
H       -1.32816568       2.06466760       0.53980725
H       -0.14690446       0.27967091       1.19151552
H        1.33609320      -0.75353564      -1.51581549
H        0.11228776      -1.71999715      -0.63510926
10
Frame=13 idx=006021 GeodesicLength=1.1173348520617052 rxn_smarts="[C:1]([O:2][C:3]([C:4]#[N:5])([H:9])[H:10])([H:6])([H:7])[H:8]>>[C:1](=[O:2])([H:6])[H:7].[C:3]1([H:9])([H:10])[C:4]([H:8])=[N:5]1"
C       -1.26723635       1.03455713       0.18057109
O       -0.47101389       0.90022040      -0.82731529
C        0.73502598      -0.82798798      -0.61112121
C        1.11702596      -0.45247606       0.74147593
N        2.19092690      -0.96698164       0.77564057
H       -2.21277171       0.48499872       0.12389943
H       -1.35583812       2.06599005       0.55459003
H       -0.16869785       0.26978162       1.19308683
H        1.32160538      -0.78186784      -1.52240627
H        0.11097371      -1.72623440      -0.60842111
10
Frame=14 idx=006021 GeodesicLength=1.2026196724377438 rxn_smarts="[C:1]([O:2][C:3]([C:4]#[N:5])([H:9])[H:10])([H:6])([H:7])[H:8]>>[C:1](=[O:2])([H:6])[H:7].[C:3]1([H:9])([H:10])[C:4]([H:8])=[N:5]1"
C       -1.27405603       1.03895043       0.18867347
O       -0.44843124       0.93334439      -0.80313784
C        0.74008483      -0.83802263      -0.60285062
C        1.13979525      -0.46079558       0.74422776
N        2.22242181      -0.95652932       0.74334999
H       -2.22105324       0.50062395       0.07568532
H       -1.38322324       2.06669836       0.56885836
H       -0.19195643       0.25873858       1.19457706
H        1.30541233      -0.80949953      -1.52839108
H        0.11100594      -1.73350865      -0.58099241
10
Frame=15 idx=006021 GeodesicLength=1.2879065494071789 rxn_smarts="[C:1]([O:2][C:3]([C:4]#[N:5])([H:9])[H:10])([H:6])([H:7])[H:8]>>[C:1](=[O:2])([H:6])[H:7].[C:3]1([H:9])([H:10])[C:4]([H:8])=[N:5]1"
C       -1.28144812       1.04303369       0.19642808
O       -0.42626968       0.96576229      -0.77722159
C        0.74510942      -0.84837518      -0.59425920
C        1.16335105      -0.46929453       0.74680017
N        2.25357306      -0.94533768       0.70983918
H       -2.22796981       0.51880812       0.02679683
H       -1.41023712       2.06689157       0.58251523
H       -0.21671315       0.24660627       1.19580939
H        1.28785975      -0.83622721      -1.53380838
H        0.11274460      -1.74186734      -0.55289970
10
Frame=16 idx=006021 GeodesicLength=1.3730073505477463 rxn_smarts="[C:1]([O:2][C:3]([C:4]#[N:5])([H:9])[H:10])([H:6])([H:7])[H:8]>>[C:1](=[O:2])([H:6])[H:7].[C:3]1([H:9])([H:10])[C:4]([H:8])=[N:5]1"
C       -1.28928447       1.04688092       0.20376137
O       -0.40411440       0.99762173      -0.74921929
C        0.74987456      -0.85914691      -0.58520138
C        1.18738974      -0.47835979       0.74925583
N        2.28441641      -0.93240748       0.67460016
H       -2.23303937       0.53943045      -0.02303990
H       -1.43674341       2.06653285       0.59566462
H       -0.24329411       0.23318064       1.19666519
H        1.26868916      -0.86223367      -1.53845114
H        0.11610592      -1.75149874      -0.52403545
