17
Frame=0 idx=009581 GeodesicLength=0.0 rxn_smarts="[C:1]1([H:8])([H:9])[C:2]([H:10])([H:11])[C:3]12[C:4]([H:12])([H:13])[C@@:5]1([H:14])[C:6]([H:15])([H:16])[C@@:7]21[H:17]>>[C:1]1([H:8])([H:9])[C:2]([H:10])([H:11])[C:3]1=[C:7]([C:6]([C:5](=[C:4]([H:12])[H:13])[H:14])([H:15])[H:16])[H:17]"
C       -1.73890608      -0.51809526      -0.04369096
C       -1.81046118       0.92260467      -0.46580396
C       -0.48562570       0.30446934      -0.12152289
C        0.78803019      -0.86692792      -0.97964061
C        1.48036991      -0.98267815       0.22404709
C        1.85738339       0.35830126       0.73175677
C        0.43513852       0.83107562       0.78986508
H       -1.93554197      -1.28319057      -0.78568560
H       -2.07766037      -0.76988571       0.95462675
H       -1.99995173       1.11724516      -1.51514365
H       -2.24224927       1.65529199       0.20704174
H        0.26335088      -1.72301021      -1.38767212
H        1.19163666      -0.19583404      -1.73634504
H        1.31400503      -1.80424219       0.90829995
H        2.47918238       0.94735237       0.04429762
H        2.33310902       0.36788744       1.71393921
H        0.14819032       1.63963613       1.46163069
17
Frame=1 idx=009581 GeodesicLength=0.05827845522488723 rxn_smarts="[C:1]1([H:8])([H:9])[C:2]([H:10])([H:11])[C:3]12[C:4]([H:12])([H:13])[C@@:5]1([H:14])[C:6]([H:15])([H:16])[C@@:7]21[H:17]>>[C:1]1([H:8])([H:9])[C:2]([H:10])([H:11])[C:3]1=[C:7]([C:6]([C:5](=[C:4]([H:12])[H:13])[H:14])([H:15])[H:16])[H:17]"
C       -1.75044759      -0.51129561      -0.04717010
C       -1.80691571       0.93146465      -0.46759762
C       -0.49176082       0.30094662      -0.11397687
C        0.79481049      -0.87891008      -0.98106106
C        1.48161670      -0.97509250       0.22934312
C        1.86001826       0.37053559       0.72385028
C        0.42954873       0.81128486       0.80730352
H       -1.95088022      -1.27084975      -0.79380192
H       -2.10169169      -0.76421535       0.94649268
H       -1.98758857       1.13142897      -1.51744399
H       -2.24169715       1.66310872       0.20440913
H        0.28214592      -1.74662793      -1.38026103
H        1.19812660      -0.21764923      -1.74653654
H        1.33056100      -1.79711110       0.91659471
H        2.45872425       0.96655212       0.02313532
H        2.35262753       0.38395860       1.69739658
H        0.14280226       1.60247140       1.49932379
17
Frame=2 idx=009581 GeodesicLength=0.11656049492465423 rxn_smarts="[C:1]1([H:8])([H:9])[C:2]([H:10])([H:11])[C:3]12[C:4]([H:12])([H:13])[C@@:5]1([H:14])[C:6]([H:15])([H:16])[C@@:7]21[H:17]>>[C:1]1([H:8])([H:9])[C:2]([H:10])([H:11])[C:3]1=[C:7]([C:6]([C:5](=[C:4]([H:12])[H:13])[H:14])([H:15])[H:16])[H:17]"
C       -1.76181932      -0.50435459      -0.05052899
C       -1.80349174       0.94045369      -0.46879046
C       -0.49795715       0.29761142      -0.10674448
C        0.80191187      -0.89107802      -0.98264079
C        1.48272999      -0.96753951       0.23441617
C        1.86176568       0.38276871       0.71603065
C        0.42413706       0.79159239       0.82390993
H       -1.96611533      -1.25816314      -0.80190209
H       -2.12497727      -0.75853645       0.93849078
H       -1.97580120       1.14592398      -1.51894112
H       -2.24099518       1.67093217       0.20269037
H        0.30171114      -1.77035245      -1.37287282
H        1.20569246      -0.24020327      -1.75676829
H        1.34719547      -1.78992948       0.92450003
H        2.43756709       0.98525634       0.00281131
H        2.37041196       0.40019061       1.68099854
H        0.13803448       1.56542760       1.53534126
17
Frame=3 idx=009581 GeodesicLength=0.17478756614472962 rxn_smarts="[C:1]1([H:8])([H:9])[C:2]([H:10])([H:11])[C:3]12[C:4]([H:12])([H:13])[C@@:5]1([H:14])[C:6]([H:15])([H:16])[C@@:7]21[H:17]>>[C:1]1([H:8])([H:9])[C:2]([H:10])([H:11])[C:3]1=[C:7]([C:6]([C:5](=[C:4]([H:12])[H:13])[H:14])([H:15])[H:16])[H:17]"
C       -1.77300158      -0.49728282      -0.05373346
C       -1.80019763       0.94951011      -0.46940991
C       -0.50421377       0.29446948      -0.09981236
C        0.80930772      -0.90336349      -0.98440070
C        1.48362406      -0.96000183       0.23924836
C        1.86263620       0.39496117       0.70832522
C        0.41892462       0.77204669       0.83966140
H       -1.98123794      -1.24515953      -0.80991169
H       -2.14749741      -0.75281424       0.93065727
H       -1.96460110       1.16061518      -1.51966415
H       -2.24016144       1.67869313       0.20182539
H        0.32204476      -1.79408100      -1.36557877
H        1.21436058      -0.26343138      -1.76697296
H        1.36378523      -1.78263299       0.93197121
H        2.41578799       1.00336094      -0.01666123
H        2.38648237       0.41652062       1.66479954
H        0.13395736       1.52858995       1.56965683
17
Frame=4 idx=009581 GeodesicLength=0.23298253660822682 rxn_smarts="[C:1]1([H:8])([H:9])[C:2]([H:10])([H:11])[C:3]12[C:4]([H:12])([H:13])[C@@:5]1([H:14])[C:6]([H:15])([H:16])[C@@:7]21[H:17]>>[C:1]1([H:8])([H:9])[C:2]([H:10])([H:11])[C:3]1=[C:7]([C:6]([C:5](=[C:4]([H:12])[H:13])[H:14])([H:15])[H:16])[H:17]"
C       -1.78402762      -0.49005647      -0.05681058
C       -1.79701886       0.95865652      -0.46950143
C       -0.51054372       0.29151638      -0.09315730
C        0.81697213      -0.91579671      -0.98630763
C        1.48431288      -0.95247998       0.24383932
C        1.86267776       0.40713996       0.70066542
C        0.41388257       0.75266267       0.85459009
H       -1.99627413      -1.23181587      -0.81785894
H       -2.16933801      -0.74701209       0.92296569
H       -1.95391905       1.17552425      -1.51967289
H       -2.23918271       1.68644337       0.20174044
H        0.34316928      -1.81786761      -1.35830452
H        1.22411479      -0.28738868      -1.77711060
H        1.38035367      -1.77518688       0.93906092
H        2.39338649       1.02093213      -0.03543511
H        2.40100459       0.43299713       1.64870333
H        0.13042993       1.49173189       1.60259382
17
Frame=5 idx=009581 GeodesicLength=0.29126701357834456 rxn_smarts="[C:1]1([H:8])([H:9])[C:2]([H:10])([H:11])[C:3]12[C:4]([H:12])([H:13])[C@@:5]1([H:14])[C:6]([H:15])([H:16])[C@@:7]21[H:17]>>[C:1]1([H:8])([H:9])[C:2]([H:10])([H:11])[C:3]1=[C:7]([C:6]([C:5](=[C:4]([H:12])[H:13])[H:14])([H:15])[H:16])[H:17]"
C       -1.79494769      -0.48269109      -0.05970001
C       -1.79404080       0.96790364      -0.46909530
C       -0.51697592       0.28877219      -0.08676342
C        0.82496198      -0.92834207      -0.98840441
C        1.48479770      -0.94501861       0.24817905
C        1.86194857       0.41925281       0.69306535
C        0.40899729       0.73349134       0.86869301
H       -2.01125449      -1.21818028      -0.82565435
H       -2.19059233      -0.74113163       0.91551272
H       -1.94382084       1.19064593      -1.51903022
H       -2.23819937       1.69421110       0.20238749
H        0.36518073      -1.84167030      -1.35112191
H        1.23508691      -0.31200042      -1.78717959
H        1.39686497      -1.76764309       0.94577532
H        2.37050835       1.03790340      -0.05355424
H        2.41404154       0.44951964       1.63276779
H        0.12744340       1.45497744       1.63412271
17
Frame=6 idx=009581 GeodesicLength=0.34960793057744793 rxn_smarts="[C:1]1([H:8])([H:9])[C:2]([H:10])([H:11])[C:3]12[C:4]([H:12])([H:13])[C@@:5]1([H:14])[C:6]([H:15])([H:16])[C@@:7]21[H:17]>>[C:1]1([H:8])([H:9])[C:2]([H:10])([H:11])[C:3]1=[C:7]([C:6]([C:5](=[C:4]([H:12])[H:13])[H:14])([H:15])[H:16])[H:17]"
C       -1.80576515      -0.47519227      -0.06238158
C       -1.79127263       0.97722104      -0.46821553
C       -0.52351941       0.28623997      -0.08061292
C        0.83326044      -0.94096015      -0.99070268
C        1.48502927      -0.93761775       0.25225562
C        1.86047378       0.43127103       0.68552931
C        0.40426444       0.71456006       0.88197934
H       -2.02618429      -1.20427497      -0.83325323
H       -2.21127483      -0.73515332       0.90832175
H       -1.93430641       1.20591648      -1.51776587
H       -2.23722701       1.70197104       0.20371689
H        0.38809967      -1.86543078      -1.34406772
H        1.24730395      -0.33722335      -1.79711973
H        1.41324143      -1.75997820       0.95209541
H        2.34721306       1.05423615      -0.07103864
H        2.42564892       0.46603322       1.61700763
H        0.12501477       1.41838180       1.66425195
17
Frame=7 idx=009581 GeodesicLength=0.40800987402541283 rxn_smarts="[C:1]1([H:8])([H:9])[C:2]([H:10])([H:11])[C:3]12[C:4]([H:12])([H:13])[C@@:5]1([H:14])[C:6]([H:15])([H:16])[C@@:7]21[H:17]>>[C:1]1([H:8])([H:9])[C:2]([H:10])([H:11])[C:3]1=[C:7]([C:6]([C:5](=[C:4]([H:12])[H:13])[H:14])([H:15])[H:16])[H:17]"
C       -1.81649945      -0.46756450      -0.06483275
C       -1.78873760       0.98659684      -0.46688825
C       -0.53018880       0.28392546      -0.07468876
C        0.84186829      -0.95362300      -0.99321729
C        1.48497961      -0.93028990       0.25605972
C        1.85828967       0.44316708       0.67805402
C        0.39967204       0.69589417       0.89446307
H       -2.04108026      -1.19012285      -0.84061238
H       -2.23142455      -0.72906397       0.90142558
H       -1.92538415       1.22130006      -1.51591838
H       -2.23630402       1.70972219       0.20568042
H        0.41196751      -1.88910961      -1.33717051
H        1.26081122      -0.36301660      -1.80688471
H        1.42942787      -1.75219198       0.95801720
H        2.32356984       1.06990599      -0.08792720
H        2.43589685       0.48248184       1.60143015
H        0.12313593       1.38198877       1.69301008
17
Frame=8 idx=009581 GeodesicLength=0.4664786328406457 rxn_smarts="[C:1]1([H:8])([H:9])[C:2]([H:10])([H:11])[C:3]12[C:4]([H:12])([H:13])[C@@:5]1([H:14])[C:6]([H:15])([H:16])[C@@:7]21[H:17]>>[C:1]1([H:8])([H:9])[C:2]([H:10])([H:11])[C:3]1=[C:7]([C:6]([C:5](=[C:4]([H:12])[H:13])[H:14])([H:15])[H:16])[H:17]"
C       -1.82717141      -0.45981253      -0.06702800
C       -1.78646032       0.99601978      -0.46513989
C       -0.53699885       0.28183483      -0.06897547
C        0.85079001      -0.96630200      -0.99596717
C        1.48462161      -0.92304901       0.25958103
C        1.85543300       0.45491171       0.67063777
C        0.39520812       0.67751646       0.90615842
H       -2.05596228      -1.17574939      -0.84768387
H       -2.25107978      -0.72284932       0.89486127
H       -1.91706749       1.23675925      -1.51352698
H       -2.23546886       1.71746584       0.20822917
H        0.43682920      -1.91266467      -1.33046176
H        1.27565766      -0.38933473      -1.81642796
H        1.44536664      -1.74428840       0.96353472
H        2.29964970       1.08489018      -0.10425384
H        2.44485266       0.49880440       1.58604475
H        0.12180039       1.34584759       1.72041781
17
Frame=9 idx=009581 GeodesicLength=0.5250211155404144 rxn_smarts="[C:1]1([H:8])([H:9])[C:2]([H:10])([H:11])[C:3]12[C:4]([H:12])([H:13])[C@@:5]1([H:14])[C:6]([H:15])([H:16])[C@@:7]21[H:17]>>[C:1]1([H:8])([H:9])[C:2]([H:10])([H:11])[C:3]1=[C:7]([C:6]([C:5](=[C:4]([H:12])[H:13])[H:14])([H:15])[H:16])[H:17]"
C       -1.83780759      -0.45193845      -0.06894892
C       -1.78446025       1.00548427      -0.46299622
C       -0.54396532       0.27996925      -0.06345449
C        0.86002977      -0.97897717      -0.99896681
C        1.48393697      -0.91590866       0.26281040
C        1.85194058       0.46648205       0.66327236
C        0.39085785       0.65943843       0.91708738
H       -2.07085637      -1.16117288      -0.85443224
H       -2.27028934      -0.71649573       0.88865561
H       -1.90935869       1.25226917      -1.51062998
H       -2.23475339       1.72520878       0.21131669
H        0.46272869      -1.93606373      -1.32395617
H        1.29188315      -0.41614065      -1.82570162
H        1.46101942      -1.73627295       0.96864666
H        2.27550915       1.09918040      -0.12006146
H        2.45259164       0.51495191       1.57084737
H        0.12099371       1.30998595       1.74651145
17
Frame=10 idx=009581 GeodesicLength=0.5836388164767908 rxn_smarts="[C:1]1([H:8])([H:9])[C:2]([H:10])([H:11])[C:3]12[C:4]([H:12])([H:13])[C@@:5]1([H:14])[C:6]([H:15])([H:16])[C@@:7]21[H:17]>>[C:1]1([H:8])([H:9])[C:2]([H:10])([H:11])[C:3]1=[C:7]([C:6]([C:5](=[C:4]([H:12])[H:13])[H:14])([H:15])[H:16])[H:17]"
C       -1.84843162      -0.44394357      -0.07057681
C       -1.78274719       1.01498166      -0.46048189
C       -0.55110123       0.27832627      -0.05810581
C        0.86959123      -0.99162903      -1.00223320
C        1.48290342      -0.90887694       0.26573382
C        1.84783900       0.47785671       0.65595007
C        0.38660795       0.64166644       0.92727349
H       -2.08578919      -1.14641101      -0.86082146
H       -2.28909792      -0.70998362       0.88283300
H       -1.90225070       1.26779831      -1.50726277
H       -2.23417362       1.73295652       0.21489650
H        0.48970832      -1.95927163      -1.31766587
H        1.30952191      -0.44340098      -1.83465158
H        1.47634533      -1.72814071       0.97334174
H        2.25118765       1.11276927      -0.13538723
H        2.45917733       0.53087946       1.55583002
H        0.12070933       1.27442286       1.77132797
17
Frame=11 idx=009581 GeodesicLength=0.6422943739751374 rxn_smarts="[C:1]1([H:8])([H:9])[C:2]([H:10])([H:11])[C:3]12[C:4]([H:12])([H:13])[C@@:5]1([H:14])[C:6]([H:15])([H:16])[C@@:7]21[H:17]>>[C:1]1([H:8])([H:9])[C:2]([H:10])([H:11])[C:3]1=[C:7]([C:6]([C:5](=[C:4]([H:12])[H:13])[H:14])([H:15])[H:16])[H:17]"
C       -1.85902586      -0.43585369      -0.07184262
C       -1.78139351       1.02447738      -0.45762487
C       -0.55841232       0.27695767      -0.05295457
C        0.87950286      -1.00418221      -1.00582992
C        1.48144253      -0.90199618       0.26834283
C        1.84319130       0.48895125       0.64871208
C        0.38246029       0.62427791       0.93668441
H       -2.10074628      -1.13155100      -0.86672614
H       -2.30743772      -0.70332674       0.87750477
H       -1.89587954       1.28324429      -1.50347043
H       -2.23382293       1.74068388       0.21892010
H        0.51781242      -1.98216377      -1.31172188
H        1.32867935      -0.47097506      -1.84322734
H        1.49113172      -1.71995367       0.97760045
H        2.22688341       1.12557148      -0.15018048
H        2.46464029       0.54640112       1.54108911
H        0.12097398       1.23943735       1.79472452
17
Frame=12 idx=009581 GeodesicLength=0.700925976467686 rxn_smarts="[C:1]1([H:8])([H:9])[C:2]([H:10])([H:11])[C:3]12[C:4]([H:12])([H:13])[C@@:5]1([H:14])[C:6]([H:15])([H:16])[C@@:7]21[H:17]>>[C:1]1([H:8])([H:9])[C:2]([H:10])([H:11])[C:3]1=[C:7]([C:6]([C:5](=[C:4]([H:12])[H:13])[H:14])([H:15])[H:16])[H:17]"
C       -1.86957239      -0.42768900      -0.07268390
C       -1.78043553       1.03392955      -0.45446605
C       -0.56589992       0.27589821      -0.04800439
C        0.88977776      -1.01656784      -1.00981314
C        1.47948366      -0.89529543       0.27061976
C        1.83805379       0.49969523       0.64159389
C        0.37841140       0.60732742       0.94531622
H       -2.11571133      -1.11667912      -0.87202772
H       -2.32526015      -0.69651296       0.87276495
H       -1.89032024       1.29848356      -1.49931361
H       -2.23374995       1.74837139       0.22331093
H        0.54706009      -2.00462241      -1.30623550
H        1.34938948      -0.49871983      -1.85137098
H        1.50519758      -1.71176136       0.98138895
H        2.20274917       1.13753710      -0.16439908
H        2.46903203       0.56134903       1.52669869
H        0.12179456       1.20525647       1.81662099
17
Frame=13 idx=009581 GeodesicLength=0.7595584048276028 rxn_smarts="[C:1]1([H:8])([H:9])[C:2]([H:10])([H:11])[C:3]12[C:4]([H:12])([H:13])[C@@:5]1([H:14])[C:6]([H:15])([H:16])[C@@:7]21[H:17]>>[C:1]1([H:8])([H:9])[C:2]([H:10])([H:11])[C:3]1=[C:7]([C:6]([C:5](=[C:4]([H:12])[H:13])[H:14])([H:15])[H:16])[H:17]"
C       -1.88011677      -0.41944959      -0.07309300
C       -1.77989193       1.04335059      -0.45103789
C       -0.57357915       0.27514350      -0.04323644
C        0.90043429      -1.02878623      -1.01419509
C        1.47703194      -0.88879198       0.27255508
C        1.83247625       0.51007771       0.63457870
C        0.37444692       0.59080293       0.95320477
H       -2.13073822      -1.10181075      -0.87670835
H       -2.34263891      -0.68953489       0.86862871
H       -1.88557538       1.31352084      -1.49484103
H       -2.23398255       1.75604759       0.22801780
H        0.57748952      -2.02663667      -1.30118581
H        1.37167854      -0.52660178      -1.85903183
H        1.51854126      -1.70358859       0.98471300
H        2.17882720       1.14869719      -0.17809590
H        2.47245834       0.57568964       1.51263388
H        0.12313865       1.17187048       1.83709340
17
Frame=14 idx=009581 GeodesicLength=0.8181638068178968 rxn_smarts="[C:1]1([H:8])([H:9])[C:2]([H:10])([H:11])[C:3]12[C:4]([H:12])([H:13])[C@@:5]1([H:14])[C:6]([H:15])([H:16])[C@@:7]21[H:17]>>[C:1]1([H:8])([H:9])[C:2]([H:10])([H:11])[C:3]1=[C:7]([C:6]([C:5](=[C:4]([H:12])[H:13])[H:14])([H:15])[H:16])[H:17]"
C       -1.89066133      -0.41113056      -0.07305486
C       -1.77974483       1.05272738      -0.44736330
C       -0.58145117       0.27468547      -0.03863151
C        0.91148268      -1.04082482      -1.01899287
C        1.47405870      -0.88248936       0.27413056
C        1.82646957       0.52007470       0.62764778
C        0.37054396       0.57469046       0.96038096
H       -2.14583096      -1.08695630      -0.88073824
H       -2.35959309      -0.68236412       0.86511660
H       -1.88161228       1.32831525      -1.49008711
H       -2.23450449       1.76371128       0.23299901
H        0.60911699      -2.04815130      -1.29656070
H        1.39554943      -0.55457821      -1.86615241
H        1.53111562      -1.69542761       0.98756006
H        2.15512252       1.15905075      -0.19131378
H        2.47496465       0.58937582       1.49886350
H        0.12497403       1.13929117       1.85619631
17
Frame=15 idx=009581 GeodesicLength=0.8768119777370883 rxn_smarts="[C:1]1([H:8])([H:9])[C:2]([H:10])([H:11])[C:3]12[C:4]([H:12])([H:13])[C@@:5]1([H:14])[C:6]([H:15])([H:16])[C@@:7]21[H:17]>>[C:1]1([H:8])([H:9])[C:2]([H:10])([H:11])[C:3]1=[C:7]([C:6]([C:5](=[C:4]([H:12])[H:13])[H:14])([H:15])[H:16])[H:17]"
C       -1.90129731      -0.40270737      -0.07264193
C       -1.77997267       1.06211735      -0.44344798
C       -0.58954383       0.27447320      -0.03415340
C        0.92292944      -1.05277435      -1.02416191
C        1.47064839      -0.87638679       0.27534612
C        1.82006251       0.52974954       0.62073158
C        0.36667524       0.55890562       0.96691326
H       -2.16109236      -1.07203566      -0.88424216
H       -2.37629091      -0.67500172       0.86212640
H       -1.87833283       1.34300232      -1.48505648
H       -2.23528687       1.77141985       0.23825990
H        0.64198079      -2.06928124      -1.29218259
H        1.42093338      -0.58273065      -1.87267580
H        1.54312154      -1.68726401       0.98997732
H        2.13153681       1.16871837      -0.20419488
H        2.47669538       0.60254342       1.48526481
H        0.12723330       1.10725211       1.87413775
17
Frame=16 idx=009581 GeodesicLength=0.9355221376298547 rxn_smarts="[C:1]1([H:8])([H:9])[C:2]([H:10])([H:11])[C:3]12[C:4]([H:12])([H:13])[C@@:5]1([H:14])[C:6]([H:15])([H:16])[C@@:7]21[H:17]>>[C:1]1([H:8])([H:9])[C:2]([H:10])([H:11])[C:3]1=[C:7]([C:6]([C:5](=[C:4]([H:12])[H:13])[H:14])([H:15])[H:16])[H:17]"
C       -1.91206016      -0.39415615      -0.07190273
C       -1.78052947       1.07155442      -0.43927828
C       -0.59786893       0.27446092      -0.02977433
C        0.93478873      -1.06469997      -1.02966881
C        1.46683241      -0.87047938       0.27618966
C        1.81322895       0.53913376       0.61376322
C        0.36280646       0.54337399       0.97284307
H       -2.17656390      -1.05697531      -0.88730397
H       -2.39282260      -0.66743453       0.85957816
H       -1.87563774       1.35767096      -1.47972154
H       -2.23627244       1.77919929       0.24382585
H        0.67610590      -2.09006919      -1.28790586
H        1.44780759      -0.61112827      -1.87851983
H        1.55468603      -1.67905695       0.99197344
H        2.10794123       1.17775212      -0.21685284
H        2.47769165       0.61528884       1.47171512
H        0.12986629       1.07556544       1.89103967
