16
Frame=0 idx=009628 GeodesicLength=0.0 rxn_smarts="[C:1]([C@@:2]1([H:11])[N:3]([H:12])[C@:4]1([C@@:5]1([H:14])[C:6]([H:15])([H:16])[O:7]1)[H:13])([H:8])([H:9])[H:10]>>[C:1](/[C:2](=[N:3]/[C:4]([C@@:5]1([H:14])[C:6]([H:15])([H:16])[O:7]1)([H:12])[H:13])[H:11])([H:8])([H:9])[H:10]"
C       -1.96850476      -0.38483157      -0.13194840
C       -1.21825115       0.53950710       0.81298349
N       -0.59347604       0.07049271       1.91801416
C        0.34774555       0.69976060       0.56783119
C        0.84303189      -0.05210421      -0.63799115
C        2.23250172      -0.49566753      -0.72351252
O        1.17982255      -1.41029441      -0.47586206
H       -2.08872094       0.05926278      -1.12375678
H       -2.96731062      -0.55067024       0.27594487
H       -1.46740219      -1.34884393      -0.21463469
H       -1.67209143       1.54517400       0.85176904
H        0.87910121       0.29280841       1.47274418
H        0.56079934       1.76664534       0.55593235
H        0.32269343       0.16984379      -1.56726013
H        2.70936160      -0.58274537      -1.69518674
H        2.90069978      -0.31833751       0.11493326
16
Frame=1 idx=009628 GeodesicLength=0.10376627031941595 rxn_smarts="[C:1]([C@@:2]1([H:11])[N:3]([H:12])[C@:4]1([C@@:5]1([H:14])[C:6]([H:15])([H:16])[O:7]1)[H:13])([H:8])([H:9])[H:10]>>[C:1](/[C:2](=[N:3]/[C:4]([C@@:5]1([H:14])[C:6]([H:15])([H:16])[O:7]1)([H:12])[H:13])[H:11])([H:8])([H:9])[H:10]"
C       -1.99174466      -0.38581861      -0.12599689
C       -1.22862298       0.54243169       0.80244961
N       -0.58158849       0.07553089       1.89453690
C        0.35271917       0.69619871       0.56664890
C        0.85564618      -0.04960132      -0.63938933
C        2.24596993      -0.49071510      -0.72098343
O        1.19426624      -1.40790612      -0.47768656
H       -2.12204628       0.05303055      -1.11882202
H       -2.98636292      -0.54781862       0.29368701
H       -1.49268565      -1.35071313      -0.21100302
H       -1.67383255       1.55095758       0.84373881
H        0.88598026       0.26661627       1.47935225
H        0.56489417       1.76360383       0.55590426
H        0.33911111       0.17303163      -1.57064875
H        2.72654663      -0.57641956      -1.69094917
H        2.91174982      -0.31240869       0.11916144
16
Frame=2 idx=009628 GeodesicLength=0.20756313297933848 rxn_smarts="[C:1]([C@@:2]1([H:11])[N:3]([H:12])[C@:4]1([C@@:5]1([H:14])[C:6]([H:15])([H:16])[O:7]1)[H:13])([H:8])([H:9])[H:10]>>[C:1](/[C:2](=[N:3]/[C:4]([C@@:5]1([H:14])[C:6]([H:15])([H:16])[O:7]1)([H:12])[H:13])[H:11])([H:8])([H:9])[H:10]"
C       -2.01549934      -0.38665348      -0.11960016
C       -1.23885541       0.54522290       0.79163177
N       -0.57006768       0.08017024       1.87043157
C        0.35789625       0.69275110       0.56491459
C        0.86873623      -0.04708076      -0.64103966
C        2.25996526      -0.48560117      -0.71824707
O        1.20926743      -1.40547386      -0.47974675
H       -2.15663196       0.04701265      -1.11317790
H       -3.00551834      -0.54464276       0.31248213
H       -1.51868708      -1.35249112      -0.20726024
H       -1.67541442       1.55654518       0.83552533
H        0.89214709       0.23950226       1.48560593
H        0.56890257       1.76072071       0.55533240
H        0.35618295       0.17617689      -1.57437969
H        2.74458766      -0.56981032      -1.68632978
H        2.92298881      -0.30634846       0.12385754
16
Frame=3 idx=009628 GeodesicLength=0.3113896253567273 rxn_smarts="[C:1]([C@@:2]1([H:11])[N:3]([H:12])[C@:4]1([C@@:5]1([H:14])[C:6]([H:15])([H:16])[O:7]1)[H:13])([H:8])([H:9])[H:10]>>[C:1](/[C:2](=[N:3]/[C:4]([C@@:5]1([H:14])[C:6]([H:15])([H:16])[O:7]1)([H:12])[H:13])[H:11])([H:8])([H:9])[H:10]"
C       -2.03978710      -0.38733243      -0.11272682
C       -1.24896000       0.54787488       0.78049767
N       -0.55889018       0.08440050       1.84565871
C        0.36328093       0.68942497       0.56259797
C        0.88232923      -0.04453308      -0.64296342
C        2.27451322      -0.48032100      -0.71528352
O        1.22484283      -1.40299296      -0.48207634
H       -2.19253384       0.04122051      -1.10676112
H       -3.02475128      -0.54113934       0.33239268
H       -1.54543694      -1.35417504      -0.20339365
H       -1.67684891       1.56192936       0.82711785
H        0.89751811       0.21141047       1.49145784
H        0.57281623       1.75800636       0.55418660
H        0.37395626       0.17929688      -1.57848153
H        2.76354097      -0.56289693      -1.68129139
H        2.93441048      -0.30017316       0.12906847
16
Frame=4 idx=009628 GeodesicLength=0.41524040841737386 rxn_smarts="[C:1]([C@@:2]1([H:11])[N:3]([H:12])[C@:4]1([C@@:5]1([H:14])[C:6]([H:15])([H:16])[O:7]1)[H:13])([H:8])([H:9])[H:10]>>[C:1](/[C:2](=[N:3]/[C:4]([C@@:5]1([H:14])[C:6]([H:15])([H:16])[O:7]1)([H:12])[H:13])[H:11])([H:8])([H:9])[H:10]"
C       -2.06462166      -0.38785284      -0.10534204
C       -1.25894463       0.55037908       0.76900911
N       -0.54803089       0.08821009       1.82017054
C        0.36887718       0.68622647       0.55966666
C        0.89645209      -0.04194460      -0.64518089
C        2.28963307      -0.47486852      -0.71206802
O        1.24100590      -1.40045408      -0.48470950
H       -2.22980475       0.03566165      -1.09950226
H       -3.04402595      -0.53730087       0.35348527
H       -1.57296377      -1.35576268      -0.19938526
H       -1.67814329       1.56709876       0.81849789
H        0.90200575       0.18227945       1.49684798
H        0.57662453       1.75546799       0.55243310
H        0.39248164       0.18241825      -1.58298060
H        2.78345637      -0.55565374      -1.67578764
H        2.94599841      -0.29390440       0.13484565
16
Frame=5 idx=009628 GeodesicLength=0.519109372869128 rxn_smarts="[C:1]([C@@:2]1([H:11])[N:3]([H:12])[C@:4]1([C@@:5]1([H:14])[C:6]([H:15])([H:16])[O:7]1)[H:13])([H:8])([H:9])[H:10]>>[C:1](/[C:2](=[N:3]/[C:4]([C@@:5]1([H:14])[C:6]([H:15])([H:16])[O:7]1)([H:12])[H:13])[H:11])([H:8])([H:9])[H:10]"
C       -2.09001618      -0.38821225      -0.09740801
C       -1.26881873       0.55272456       0.75712612
N       -0.53746639       0.09158604       1.79391481
C        0.37468808       0.68316263       0.55608636
C        0.91113425      -0.03929928      -0.64771360
C        2.30534519      -0.46923873      -0.70857366
O        1.25776919      -1.39784719      -0.48768326
H       -2.26849740       0.03034541      -1.09132418
H       -3.06330151      -0.53312000       0.37582880
H       -1.60129803      -1.35725282      -0.19521530
H       -1.67930763       1.57203954       0.80964919
H        0.90551875       0.15205071       1.50170630
H        0.58031312       1.75311411       0.55003536
H        0.41181570       0.18557274      -1.58790536
H        2.80438687      -0.54805754      -1.66976796
H        2.95773470      -0.28756793       0.14124441
16
Frame=6 idx=009628 GeodesicLength=0.6229900828849058 rxn_smarts="[C:1]([C@@:2]1([H:11])[N:3]([H:12])[C@:4]1([C@@:5]1([H:14])[C:6]([H:15])([H:16])[O:7]1)[H:13])([H:8])([H:9])[H:10]>>[C:1](/[C:2](=[N:3]/[C:4]([C@@:5]1([H:14])[C:6]([H:15])([H:16])[O:7]1)([H:12])[H:13])[H:11])([H:8])([H:9])[H:10]"
C       -2.11598213      -0.38840913      -0.08888257
C       -1.27859273       0.55489878       0.74480440
N       -0.52717627       0.09451619       1.76683311
C        0.38071611       0.68024094       0.55182109
C        0.92640716      -0.03657773      -0.65058409
C        2.32166943      -0.46342734      -0.70477095
O        1.27514367      -1.39516023      -0.49103924
H       -2.30866312       0.02527882      -1.08214113
H       -3.08253015      -0.52858845       0.39949606
H       -1.63047151      -1.35864548      -0.19085832
H       -1.68035265       1.57673597       0.80055139
H        0.90795968       0.12066387       1.50595087
H        0.58386642       1.75095353       0.54695674
H        0.43202101       0.18879972      -1.59328532
H        2.82638742      -0.54008371      -1.66317615
H        2.96959766      -0.28119575       0.14832412
16
Frame=7 idx=009628 GeodesicLength=0.726875344369354 rxn_smarts="[C:1]([C@@:2]1([H:11])[N:3]([H:12])[C@:4]1([C@@:5]1([H:14])[C:6]([H:15])([H:16])[O:7]1)[H:13])([H:8])([H:9])[H:10]>>[C:1](/[C:2](=[N:3]/[C:4]([C@@:5]1([H:14])[C:6]([H:15])([H:16])[O:7]1)([H:12])[H:13])[H:11])([H:8])([H:9])[H:10]"
C       -2.14252931      -0.38844251      -0.07971951
C       -1.28827814       0.55688679       0.73199565
N       -0.51714171       0.09698752       1.73886100
C        0.38696282       0.67746916       0.54683229
C        0.94230451      -0.03375742      -0.65381583
C        2.33862507      -0.45743065      -0.70062713
O        1.29313931      -1.39237937      -0.49482252
H       -2.35035178       0.02046788      -1.07185873
H       -3.10165690      -0.52369579       0.42456297
H       -1.66051782      -1.35994237      -0.18628346
H       -1.68129034       1.58116995       0.79118220
H        0.90922506       0.08805822       1.50948622
H        0.58726665       1.74899471       0.54315879
H        0.45316669       0.19214580      -1.59915124
H        2.84951446      -0.53170688      -1.65594938
H        2.98156141      -0.27482505       0.15614869
16
Frame=8 idx=009628 GeodesicLength=0.8307581843382732 rxn_smarts="[C:1]([C@@:2]1([H:11])[N:3]([H:12])[C@:4]1([C@@:5]1([H:14])[C:6]([H:15])([H:16])[O:7]1)[H:13])([H:8])([H:9])[H:10]>>[C:1](/[C:2](=[N:3]/[C:4]([C@@:5]1([H:14])[C:6]([H:15])([H:16])[O:7]1)([H:12])[H:13])[H:11])([H:8])([H:9])[H:10]"
C       -2.16966342      -0.38831222      -0.06986654
C       -1.29788849       0.55867175       0.71864611
N       -0.50734899       0.09898711       1.70992472
C        0.39342788       0.67485631       0.54107892
C        0.95886174      -0.03081145      -0.65743391
C        2.35623002      -0.45124640      -0.69610688
O        1.31176320      -1.38948782      -0.49908410
H       -2.39360488       0.01591436      -1.06037087
H       -3.12061656      -0.51842982       0.45110750
H       -1.69147237      -1.36114597      -0.18144920
H       -1.68213275       1.58532033       0.78151495
H        0.90920113       0.05417104       1.51220292
H        0.59049378       1.74724800       0.53860483
H        0.47532919       0.19566723      -1.60553566
H        2.87382614      -0.52290181      -1.64801856
H        2.99359437      -0.26850065       0.16478577
16
Frame=9 idx=009628 GeodesicLength=0.9346329453928759 rxn_smarts="[C:1]([C@@:2]1([H:11])[N:3]([H:12])[C@:4]1([C@@:5]1([H:14])[C:6]([H:15])([H:16])[O:7]1)[H:13])([H:8])([H:9])[H:10]>>[C:1](/[C:2](=[N:3]/[C:4]([C@@:5]1([H:14])[C:6]([H:15])([H:16])[O:7]1)([H:12])[H:13])[H:11])([H:8])([H:9])[H:10]"
C       -2.19739397      -0.38801798      -0.05926582
C       -1.30743795       0.56023394       0.70469416
N       -0.49778312       0.10049870       1.67994181
C        0.40011049       0.67240955       0.53451249
C        0.97611898      -0.02771188      -0.66146626
C        2.37450413      -0.44487145      -0.69116613
O        1.33102695      -1.38646880      -0.50388085
H       -2.43848340       0.01162742      -1.04755627
H       -3.13933429      -0.51277856       0.47922554
H       -1.72337514      -1.36225945      -0.17631714
H       -1.68289283       1.58916471       0.77151784
H        0.90776907       0.01893834       1.51396765
H        0.59352630       1.74571994       0.53324823
H        0.49859557       0.19942491      -1.61247462
H        2.89939139      -0.51363496      -1.63929726
H        3.00565783      -0.26227444       0.17431662
16
Frame=10 idx=009628 GeodesicLength=1.038495781203507 rxn_smarts="[C:1]([C@@:2]1([H:11])[N:3]([H:12])[C@:4]1([C@@:5]1([H:14])[C:6]([H:15])([H:16])[O:7]1)[H:13])([H:8])([H:9])[H:10]>>[C:1](/[C:2](=[N:3]/[C:4]([C@@:5]1([H:14])[C:6]([H:15])([H:16])[O:7]1)([H:12])[H:13])[H:11])([H:8])([H:9])[H:10]"
C       -2.22572730      -0.38756085      -0.04785181
C       -1.31694335       0.56155118       0.69007005
N       -0.48843461       0.10150575       1.64881840
C        0.40700783       0.67013750       0.52708072
C        0.99411966      -0.02442561      -0.66594293
C        2.39346626      -0.43830403      -0.68575657
O        1.35094053      -1.38330221      -0.50927695
H       -2.48504293       0.00761151      -1.03327819
H       -3.15772300      -0.50672736       0.50901835
H       -1.75627057      -1.36328802      -0.17083723
H       -1.68358324       1.59267741       0.76115230
H        0.90479717      -0.01770684       1.51462769
H        0.59634118       1.74441898       0.52704368
H        0.52306404       0.20349182      -1.62000675
H        2.92628276      -0.50387209      -1.62968909
H        3.01770556      -0.25620712       0.18482833
16
Frame=11 idx=009628 GeodesicLength=1.1423542707625625 rxn_smarts="[C:1]([C@@:2]1([H:11])[N:3]([H:12])[C@:4]1([C@@:5]1([H:14])[C:6]([H:15])([H:16])[O:7]1)[H:13])([H:8])([H:9])[H:10]>>[C:1](/[C:2](=[N:3]/[C:4]([C@@:5]1([H:14])[C:6]([H:15])([H:16])[O:7]1)([H:12])[H:13])[H:11])([H:8])([H:9])[H:10]"
C       -2.25468532      -0.38694564      -0.03555138
C       -1.32643349       0.56259983       0.67470266
N       -0.47930093       0.10199303       1.61645590
C        0.41411721       0.66805272       0.51872819
C        1.01292091      -0.02091672      -0.67089871
C        2.41315266      -0.43154460      -0.67982951
O        1.37152435      -1.37997154      -0.51535013
H       -2.53335184       0.00386307      -1.01738656
H       -3.17571218      -0.50025109       0.54059425
H       -1.79022525      -1.36424956      -0.16495111
H       -1.68422785       1.59583648       0.75038727
H        0.90014543      -0.05582756       1.51400775
H        0.59891761       1.74335936       0.51994892
H        0.54885474       0.20794788      -1.62817656
H        2.95460137      -0.49358086      -1.61909286
H        3.02970257      -0.25036480       0.19641188
16
Frame=12 idx=009628 GeodesicLength=1.2461536248207161 rxn_smarts="[C:1]([C@@:2]1([H:11])[N:3]([H:12])[C@:4]1([C@@:5]1([H:14])[C:6]([H:15])([H:16])[O:7]1)[H:13])([H:8])([H:9])[H:10]>>[C:1](/[C:2](=[N:3]/[C:4]([C@@:5]1([H:14])[C:6]([H:15])([H:16])[O:7]1)([H:12])[H:13])[H:11])([H:8])([H:9])[H:10]"
C       -2.28422412      -0.38615047      -0.02228735
C       -1.33591623       0.56334120       0.65849458
N       -0.47037650       0.10190754       1.58271178
C        0.42141263       0.66614678       0.50937119
C        1.03254750      -0.01715683      -0.67636181
C        2.43354072      -0.42459058      -0.67330582
O        1.39278053      -1.37644373      -0.52214415
H       -2.58343493       0.00044687      -0.99968843
H       -3.19309659      -0.49336064       0.57406727
H       -1.82524533      -1.36510552      -0.15861089
H       -1.68482288       1.59858822       0.73916982
H        0.89366782      -0.09547382       1.51189824
H        0.60119344       1.74252259       0.51188280
H        0.57606048       0.21286028      -1.63702145
H        2.98437446      -0.48271925      -1.60735661
H        3.04153901      -0.24481263       0.20918084
16
Frame=13 idx=009628 GeodesicLength=1.3499745979673228 rxn_smarts="[C:1]([C@@:2]1([H:11])[N:3]([H:12])[C@:4]1([C@@:5]1([H:14])[C:6]([H:15])([H:16])[O:7]1)[H:13])([H:8])([H:9])[H:10]>>[C:1](/[C:2](=[N:3]/[C:4]([C@@:5]1([H:14])[C:6]([H:15])([H:16])[O:7]1)([H:12])[H:13])[H:11])([H:8])([H:9])[H:10]"
C       -2.31437675      -0.38518704      -0.00795127
C       -1.34541292       0.56373819       0.64132107
N       -0.46164706       0.10123440       1.54743966
C        0.42889704       0.66441947       0.49893615
C        1.05307521      -0.01309331      -0.68237122
C        2.45466629      -0.41742610      -0.66611050
O        1.41475523      -1.37268583      -0.52976468
H       -2.63540808      -0.00267928      -0.97997708
H       -3.20978499      -0.48596115       0.60959584
H       -1.86143662      -1.36589396      -0.15170138
H       -1.68537559       1.60089567       0.72739237
H        0.88516534      -0.13678501       1.50803720
H        0.60316360       1.74190147       0.50279959
H        0.60484450       0.21835609      -1.64658239
H        3.01572628      -0.47120523      -1.59431711
H        3.05314851      -0.23962837       0.22325373
16
Frame=14 idx=009628 GeodesicLength=1.4537970927708086 rxn_smarts="[C:1]([C@@:2]1([H:11])[N:3]([H:12])[C@:4]1([C@@:5]1([H:14])[C:6]([H:15])([H:16])[O:7]1)[H:13])([H:8])([H:9])[H:10]>>[C:1](/[C:2](=[N:3]/[C:4]([C@@:5]1([H:14])[C:6]([H:15])([H:16])[O:7]1)([H:12])[H:13])[H:11])([H:8])([H:9])[H:10]"
C       -2.34516700      -0.38404628       0.00755516
C       -1.35498062       0.56375506       0.62308108
N       -0.45314884       0.09992869       1.51048549
C        0.43654816       0.66288178       0.48733554
C        1.07458180      -0.00869502      -0.68897147
C        2.47657802      -0.41005768      -0.65816919
O        1.43749755      -1.36868385      -0.53829555
H       -2.68936409      -0.00546760      -0.95801396
H       -3.22564071      -0.47806006       0.64732973
H       -1.89889436      -1.36661388      -0.14417584
H       -1.68592095       1.60272686       0.71503308
H        0.87447653      -0.17979118       1.50215585
H        0.60478764       1.74151274       0.49264012
H        0.63538142       0.22451002      -1.65692117
H        3.04879180      -0.45901846      -1.57981880
H        3.06447363      -0.23488113       0.23874991
16
Frame=15 idx=009628 GeodesicLength=1.5576160010005569 rxn_smarts="[C:1]([C@@:2]1([H:11])[N:3]([H:12])[C@:4]1([C@@:5]1([H:14])[C:6]([H:15])([H:16])[O:7]1)[H:13])([H:8])([H:9])[H:10]>>[C:1](/[C:2](=[N:3]/[C:4]([C@@:5]1([H:14])[C:6]([H:15])([H:16])[O:7]1)([H:12])[H:13])[H:11])([H:8])([H:9])[H:10]"
C       -2.37656482      -0.38272112       0.02434504
C       -1.36465093       0.56333133       0.60364125
N       -0.44488053       0.09793204       1.47165996
C        0.44433654       0.66153118       0.47446648
C        1.09712657      -0.00390592      -0.69619704
C        2.49926694      -0.40248034      -0.64938289
O        1.46103288      -1.36439177      -0.54781775
H       -2.74532476      -0.00789769      -0.93354422
H       -3.24045441      -0.46959551       0.68739557
H       -1.93768754      -1.36727424      -0.13590635
H       -1.68646732       1.60401244       0.70201246
H        0.86140619      -0.22456214       1.49392574
H        0.60600748       1.74134302       0.48133051
H        0.66783749       0.23145339      -1.66807528
H        3.08363395      -0.44611193      -1.56365456
H        3.07538227      -0.23066274       0.25580108
16
Frame=16 idx=009628 GeodesicLength=1.6614289041676236 rxn_smarts="[C:1]([C@@:2]1([H:11])[N:3]([H:12])[C@:4]1([C@@:5]1([H:14])[C:6]([H:15])([H:16])[O:7]1)[H:13])([H:8])([H:9])[H:10]>>[C:1](/[C:2](=[N:3]/[C:4]([C@@:5]1([H:14])[C:6]([H:15])([H:16])[O:7]1)([H:12])[H:13])[H:11])([H:8])([H:9])[H:10]"
C       -2.40854464      -0.38120234       0.04254429
C       -1.37447448       0.56240142       0.58285748
N       -0.43685844       0.09518236       1.43075132
C        0.45222638       0.66036649       0.46021663
C        1.12078191       0.00133221      -0.70408401
C        2.52273321      -0.39469250      -0.63964455
O        1.48540200      -1.35976408      -0.55842299
H       -2.80331000      -0.00994616      -0.90628060
H       -3.25400439      -0.46050072       0.72992823
H       -1.97790431      -1.36788795      -0.12674749
H       -1.68703367       1.60468108       0.68824889
H        0.84574734      -0.27116463       1.48296712
H        0.60676214       1.74138253       0.46879884
H        0.70240640       0.23932227      -1.68008126
H        3.12033430      -0.43243982      -1.54559536
H        3.08573625      -0.22707015       0.27454347
