9
Frame=0 idx=002723 GeodesicLength=0.0 rxn_smarts="[C:1]([O:2][C:3](=[O:4])[C:5]#[N:6])([H:7])([H:8])[H:9]>>[C:1]([O:2][C:3](=[O:4])[N+:6]#[C-:5])([H:7])([H:8])[H:9]"
C       -1.06355150      -0.59436719       0.11656772
O       -0.40644853       0.56695861       0.64789247
C        0.79402568       0.93351128       0.31953848
O        1.40855763       1.85311635       0.69461329
C        1.71613661      -0.41575332      -0.46648504
N        1.25922798       0.25397437      -1.32503135
H       -2.00980678      -0.63473031       0.64755759
H       -1.22546199      -0.47668739      -0.95249805
H       -0.47267911      -1.48602241       0.31784487
9
Frame=1 idx=002723 GeodesicLength=0.05375063577666203 rxn_smarts="[C:1]([O:2][C:3](=[O:4])[C:5]#[N:6])([H:7])([H:8])[H:9]>>[C:1]([O:2][C:3](=[O:4])[N+:6]#[C-:5])([H:7])([H:8])[H:9]"
C       -1.06830155      -0.59636620       0.12302845
O       -0.42409065       0.59122605       0.60591024
C        0.79656566       0.92573517       0.31571538
O        1.41824041       1.81988550       0.74203997
C        1.72419087      -0.40616474      -0.50488266
N        1.27191324       0.28827036      -1.34312663
H       -2.01931428      -0.62088708       0.64663227
H       -1.22115449      -0.52376651      -0.95144035
H       -0.47804920      -1.47793254       0.36612333
9
Frame=2 idx=002723 GeodesicLength=0.10728474909928672 rxn_smarts="[C:1]([O:2][C:3](=[O:4])[C:5]#[N:6])([H:7])([H:8])[H:9]>>[C:1]([O:2][C:3](=[O:4])[N+:6]#[C-:5])([H:7])([H:8])[H:9]"
C       -1.07287287      -0.59778468       0.13007238
O       -0.44019089       0.61361794       0.56274090
C        0.79829106       0.91725834       0.31112076
O        1.42504494       1.78334586       0.78905729
C        1.73267558      -0.39545680      -0.54414947
N        1.28568948       0.32388314      -1.36102647
H       -2.02887734      -0.60568512       0.64515881
H       -1.21556292      -0.57138398      -0.94800547
H       -0.48419702      -1.46779468       0.41503126
9
Frame=3 idx=002723 GeodesicLength=0.16077127776076655 rxn_smarts="[C:1]([O:2][C:3](=[O:4])[C:5]#[N:6])([H:7])([H:8])[H:9]>>[C:1]([O:2][C:3](=[O:4])[N+:6]#[C-:5])([H:7])([H:8])[H:9]"
C       -1.07734238      -0.59868534       0.13762527
O       -0.45441619       0.63354761       0.51909284
C        0.79924621       0.90831785       0.30530155
O        1.42856529       1.74366599       0.83530691
C        1.74166868      -0.38359677      -0.58409004
N        1.30067787       0.36056912      -1.37868133
H       -2.03843731      -0.58921457       0.64314275
H       -1.20861184      -0.61889809      -0.94208974
H       -0.49135034      -1.45570581       0.46439178
9
Frame=4 idx=002723 GeodesicLength=0.21431352018046348 rxn_smarts="[C:1]([O:2][C:3](=[O:4])[C:5]#[N:6])([H:7])([H:8])[H:9]>>[C:1]([O:2][C:3](=[O:4])[N+:6]#[C-:5])([H:7])([H:8])[H:9]"
C       -1.08178708      -0.59913757       0.14564012
O       -0.46662339       0.65056736       0.47629122
C        0.79962323       0.89915018       0.29839381
O        1.42902590       1.70178951       0.87961461
C        1.75143595      -0.37062875      -0.62422652
N        1.31693276       0.39790319      -1.39581552
H       -2.04816408      -0.57192728       0.64039447
H       -1.20068284      -0.66556793      -0.93373756
H       -0.49976045      -1.44214871       0.51344538
9
Frame=5 idx=002723 GeodesicLength=0.2678986848012416 rxn_smarts="[C:1]([O:2][C:3](=[O:4])[C:5]#[N:6])([H:7])([H:8])[H:9]>>[C:1]([O:2][C:3](=[O:4])[N+:6]#[C-:5])([H:7])([H:8])[H:9]"
C       -1.08622765      -0.59923356       0.15410591
O       -0.47695932       0.66473101       0.43463476
C        0.79959982       0.88979217       0.29044363
O        1.42670070       1.65782249       0.92172146
C        1.76190534      -0.35652989      -0.66458739
N        1.33431515       0.43595845      -1.41233339
H       -2.05809847      -0.55399952       0.63669978
H       -1.19175514      -0.71132863      -0.92298264
H       -0.50948043      -1.42721251       0.56229788
9
Frame=6 idx=002723 GeodesicLength=0.32132006974603944 rxn_smarts="[C:1]([O:2][C:3](=[O:4])[C:5]#[N:6])([H:7])([H:8])[H:9]>>[C:1]([O:2][C:3](=[O:4])[N+:6]#[C-:5])([H:7])([H:8])[H:9]"
C       -1.09066705      -0.59904231       0.16298273
O       -0.48557481       0.67612338       0.39446231
C        0.79932644       0.88022304       0.28164544
O        1.42203327       1.61204708       0.96111137
C        1.77296122      -0.34127764      -0.70506449
N        1.35269375       0.47477337      -1.42800546
H       -2.06823792      -0.53573835       0.63185359
H       -1.18189157      -0.75606239      -0.90987487
H       -0.52064332      -1.41104619       0.61088938
9
Frame=7 idx=002723 GeodesicLength=0.3748189636897167 rxn_smarts="[C:1]([O:2][C:3](=[O:4])[C:5]#[N:6])([H:7])([H:8])[H:9]>>[C:1]([O:2][C:3](=[O:4])[N+:6]#[C-:5])([H:7])([H:8])[H:9]"
C       -1.09518789      -0.59864347       0.17225536
O       -0.49269384       0.68496846       0.35566773
C        0.79901392       0.87028877       0.27217143
O        1.41539702       1.56439403       0.99791482
C        1.78455813      -0.32479540      -0.74601307
N        1.37191385       0.51462698      -1.44284574
H       -2.07871879      -0.51720517       0.62563320
H       -1.17095841      -0.80015257      -0.89444572
H       -0.53332400      -1.39348164       0.65966200
9
Frame=8 idx=002723 GeodesicLength=0.4284477772987997 rxn_smarts="[C:1]([O:2][C:3](=[O:4])[C:5]#[N:6])([H:7])([H:8])[H:9]>>[C:1]([O:2][C:3](=[O:4])[N+:6]#[C-:5])([H:7])([H:8])[H:9]"
C       -1.09981963      -0.59808318       0.18192754
O       -0.49848011       0.69143176       0.31816550
C        0.79878756       0.85981313       0.26215609
O        1.40720781       1.51465870       1.03210749
C        1.79655752      -0.30691582      -0.78771344
N        1.39179558       0.55582237      -1.45676536
H       -2.08962956      -0.49848196       0.61768601
H       -1.15873881      -0.84397229      -0.87658501
H       -0.54768036      -1.37427270       0.70902117
9
Frame=9 idx=002723 GeodesicLength=0.4824043780328826 rxn_smarts="[C:1]([O:2][C:3](=[O:4])[C:5]#[N:6])([H:7])([H:8])[H:9]>>[C:1]([O:2][C:3](=[O:4])[N+:6]#[C-:5])([H:7])([H:8])[H:9]"
C       -1.10460248      -0.59740976       0.19203598
O       -0.50310224       0.69569434       0.28181705
C        0.79873756       0.84871260       0.25164125
O        1.39789915       1.46250164       1.06380306
C        1.80881357      -0.28747931      -0.83051895
N        1.41221483       0.59869026      -1.46971379
H       -2.10110391      -0.47964858       0.60760546
H       -1.14497147      -0.88796988      -0.85608785
H       -0.56388501      -1.35309130       0.75941780
9
Frame=10 idx=002723 GeodesicLength=0.5362726368773308 rxn_smarts="[C:1]([O:2][C:3](=[O:4])[C:5]#[N:6])([H:7])([H:8])[H:9]>>[C:1]([O:2][C:3](=[O:4])[N+:6]#[C-:5])([H:7])([H:8])[H:9]"
C       -1.10952206      -0.59666828       0.20252836
O       -0.50657999       0.69774817       0.24685568
C        0.79893281       0.83678594       0.24083044
O        1.38790408       1.40843018       1.09234671
C        1.82118528      -0.26644337      -0.87415984
N        1.43306680       0.64310296      -1.48127750
H       -2.11296521      -0.46106137       0.59526834
H       -1.12984482      -0.93185922      -0.83283513
H       -0.58217691      -1.33003500       0.81044294
9
Frame=11 idx=002723 GeodesicLength=0.5904311123059061 rxn_smarts="[C:1]([O:2][C:3](=[O:4])[C:5]#[N:6])([H:7])([H:8])[H:9]>>[C:1]([O:2][C:3](=[O:4])[N+:6]#[C-:5])([H:7])([H:8])[H:9]"
C       -1.11469125      -0.59589350       0.21342327
O       -0.50902100       0.69770733       0.21313278
C        0.79952163       0.82380486       0.22973537
O        1.37753826       1.35214830       1.11799296
C        1.83363402      -0.24361750      -0.91910571
N        1.45422605       0.68932861      -1.49145304
H       -2.12536579      -0.44280324       0.58032561
H       -1.11305113      -0.97605495      -0.80657141
H       -0.60279080      -1.30461992       0.86252017
9
Frame=12 idx=002723 GeodesicLength=0.6449459004049931 rxn_smarts="[C:1]([O:2][C:3](=[O:4])[C:5]#[N:6])([H:7])([H:8])[H:9]>>[C:1]([O:2][C:3](=[O:4])[N+:6]#[C-:5])([H:7])([H:8])[H:9]"
C       -1.12013681      -0.59509100       0.22474537
O       -0.51045691       0.69561781       0.18060827
C        0.80058580       0.80951556       0.21836710
O        1.36728307       1.29320797       1.14068877
C        1.84594807      -0.21866344      -0.96569299
N        1.47545741       0.73765528      -1.50006726
H       -2.13834355      -0.42504020       0.56212975
H       -1.09418750      -1.02093761      -0.77677808
H       -0.62614958      -1.27626438       0.91599908
9
Frame=13 idx=002723 GeodesicLength=0.6997586107825609 rxn_smarts="[C:1]([O:2][C:3](=[O:4])[C:5]#[N:6])([H:7])([H:8])[H:9]>>[C:1]([O:2][C:3](=[O:4])[N+:6]#[C-:5])([H:7])([H:8])[H:9]"
C       -1.12588629      -0.59427996       0.23648254
O       -0.51092676       0.69153034       0.14934551
C        0.80219886       0.79375761       0.20671424
O        1.35752721       1.23165007       1.16024190
C        1.85795234      -0.19145194      -1.01395337
N        1.49667272       0.78802810      -1.50684758
H       -2.15176501      -0.40814186       0.54043081
H       -1.07322514      -1.06642783      -0.74307332
H       -0.65254793      -1.24466453       0.97065926
9
Frame=14 idx=002723 GeodesicLength=0.7546719621122233 rxn_smarts="[C:1]([O:2][C:3](=[O:4])[C:5]#[N:6])([H:7])([H:8])[H:9]>>[C:1]([O:2][C:3](=[O:4])[N+:6]#[C-:5])([H:7])([H:8])[H:9]"
C       -1.13197102      -0.59347198       0.24856635
O       -0.51047599       0.68548190       0.11934330
C        0.80440282       0.77630630       0.19480043
O        1.34858413       1.16784732       1.17638596
C        1.86960008      -0.16190484      -1.06365351
N        1.51780337       0.84014801      -1.51142461
H       -2.16534315      -0.39252555       0.51533960
H       -1.05054550      -1.11220474      -0.70519811
H       -0.68205474      -1.20967641       1.02584061
9
Frame=15 idx=002723 GeodesicLength=0.8097750580609021 rxn_smarts="[C:1]([O:2][C:3](=[O:4])[C:5]#[N:6])([H:7])([H:8])[H:9]>>[C:1]([O:2][C:3](=[O:4])[N+:6]#[C-:5])([H:7])([H:8])[H:9]"
C       -1.13839927      -0.59265843       0.26100047
O       -0.50918025       0.67754640       0.09049269
C        0.80722335       0.75711150       0.18246727
O        1.34075572       1.10143842       1.18913716
C        1.88064633      -0.12980872      -1.11488784
N        1.53885957       0.89398580      -1.51356981
H       -2.17889509      -0.37859713       0.48664390
H       -1.02612587      -1.15824120      -0.66262370
H       -0.71488450      -1.17077665       1.08133986
9
Frame=16 idx=002723 GeodesicLength=0.8651032129322981 rxn_smarts="[C:1]([O:2][C:3](=[O:4])[C:5]#[N:6])([H:7])([H:8])[H:9]>>[C:1]([O:2][C:3](=[O:4])[N+:6]#[C-:5])([H:7])([H:8])[H:9]"
C       -1.14513383      -0.59177666       0.27384280
O       -0.50702875       0.66780757       0.06283999
C        0.81072369       0.73595717       0.16953406
O        1.33436167       1.03165714       1.19840537
C        1.89068697      -0.09480340      -1.16791920
N        1.55956278       0.94959875      -1.51301062
H       -2.19218327      -0.36681089       0.45365314
H       -0.99945012      -1.20448008      -0.61446129
H       -0.75153915      -1.12714959       1.13711574
