14
Frame=0 idx=005414 GeodesicLength=0.0 rxn_smarts="[C:1]([C:2]([C@@:3]([O:4][H:13])([C:5]#[C:6][H:14])[H:12])([H:10])[H:11])([H:7])([H:8])[H:9]>>[C:1]([C:2]([C:3]([O:4][H:13])=[C:5]=[C:6]([H:12])[H:14])([H:10])[H:11])([H:7])([H:8])[H:9]"
C       -1.32842711       1.01786286      -0.40393730
C       -0.95728308      -0.28540388       0.27793542
C        0.51036459      -0.66205145       0.17510802
O        0.83279374      -1.70827562       0.99815174
C        1.23146277      -0.61152257      -1.15110676
C        1.71272279       0.34972193      -0.40926893
H       -0.80065235       1.86737059       0.03712346
H       -2.39793464       1.20190967      -0.29835476
H       -1.08462862       0.99065427      -1.46605772
H       -1.48271594      -1.12327258      -0.18802666
H       -1.24332703      -0.27811305       1.33253451
H        1.02002517       0.41736581       0.72877992
H        1.49652204      -2.23708551       0.54113859
H        2.49107763       1.06083948      -0.17401955
14
Frame=1 idx=005414 GeodesicLength=0.11581582567294837 rxn_smarts="[C:1]([C:2]([C@@:3]([O:4][H:13])([C:5]#[C:6][H:14])[H:12])([H:10])[H:11])([H:7])([H:8])[H:9]>>[C:1]([C:2]([C:3]([O:4][H:13])=[C:5]=[C:6]([H:12])[H:14])([H:10])[H:11])([H:7])([H:8])[H:9]"
C       -1.33624602       1.01528725      -0.40266666
C       -0.96465578      -0.28950283       0.27632610
C        0.50463594      -0.66076326       0.18314842
O        0.81559089      -1.72063479       0.99575291
C        1.22748235      -0.59735637      -1.13282053
C        1.73567618       0.36365346      -0.41497441
H       -0.81457447       1.86451334       0.04593796
H       -2.40707534       1.19551525      -0.30379401
H       -1.08626991       0.99440320      -1.46354198
H       -1.48790046      -1.12634354      -0.19410782
H       -1.25687144      -0.28640257       1.32930660
H        1.03943876       0.42795321       0.73985873
H        1.49459075      -2.23805010       0.54892047
H        2.53617857       1.05772775      -0.20734577
14
Frame=2 idx=005414 GeodesicLength=0.2315773310555459 rxn_smarts="[C:1]([C:2]([C@@:3]([O:4][H:13])([C:5]#[C:6][H:14])[H:12])([H:10])[H:11])([H:7])([H:8])[H:9]>>[C:1]([C:2]([C:3]([O:4][H:13])=[C:5]=[C:6]([H:12])[H:14])([H:10])[H:11])([H:7])([H:8])[H:9]"
C       -1.34400759       1.01277902      -0.40114181
C       -0.97240268      -0.29388452       0.27452741
C        0.49853741      -0.65957856       0.19181858
O        0.79798442      -1.73325218       0.99326071
C        1.22402909      -0.58256933      -1.11332215
C        1.75911916       0.37790203      -0.42075104
H       -0.82855507       1.86138125       0.05557084
H       -2.41612227       1.18928310      -0.30942081
H       -1.08735854       0.99868021      -1.46058479
H       -1.49305442      -1.12947659      -0.20114330
H       -1.27130577      -0.29546088       1.32568614
H        1.05944099       0.43839295       0.75147204
H        1.49271466      -2.23867295       0.55770366
H        2.58098059       1.05447645      -0.24367548
14
Frame=3 idx=005414 GeodesicLength=0.34728203973531363 rxn_smarts="[C:1]([C:2]([C@@:3]([O:4][H:13])([C:5]#[C:6][H:14])[H:12])([H:10])[H:11])([H:7])([H:8])[H:9]>>[C:1]([C:2]([C:3]([O:4][H:13])=[C:5]=[C:6]([H:12])[H:14])([H:10])[H:11])([H:7])([H:8])[H:9]"
C       -1.35168505       1.01034560      -0.39935573
C       -0.98051656      -0.29855724       0.27251741
C        0.49206310      -0.65849927       0.20117433
O        0.77995369      -1.74617210       0.99064003
C        1.22114233      -0.56711418      -1.09248751
C        1.78310355       0.39247522      -0.42656062
H       -0.84258067       1.85795976       0.06604834
H       -2.42504097       1.18323474      -0.31525507
H       -1.08784393       1.00350905      -1.45715442
H       -1.49812755      -1.13265910      -0.20920409
H       -1.28667307      -0.30533305       1.32161878
H        1.08008562       0.44866031       0.76369601
H        1.49085524      -2.23896045       0.56756753
H        2.62526428       1.05111072      -0.28324497
14
Frame=4 idx=005414 GeodesicLength=0.46293001759982044 rxn_smarts="[C:1]([C:2]([C@@:3]([O:4][H:13])([C:5]#[C:6][H:14])[H:12])([H:10])[H:11])([H:7])([H:8])[H:9]>>[C:1]([C:2]([C:3]([O:4][H:13])=[C:5]=[C:6]([H:12])[H:14])([H:10])[H:11])([H:7])([H:8])[H:9]"
C       -1.35924367       1.00799746      -0.39730214
C       -0.98898421      -0.30352844       0.27027152
C        0.48521044      -0.65753004       0.21127792
O        0.76148233      -1.75944165       0.98785351
C        1.21886691      -0.55094765      -1.07017827
C        1.80769158       0.40736819      -0.43236620
H       -0.85663181       1.85423543       0.07739727
H       -2.43378881       1.17739690      -0.32132119
H       -1.08766253       1.00891773      -1.45321640
H       -1.50305865      -1.13587462      -0.21836587
H       -1.30301578      -0.31606572       1.31704241
H        1.10143758       0.45872821       0.77661283
H        1.48896141      -2.23893231       0.57859931
H        2.66873522       1.04767651      -0.32630469
14
Frame=5 idx=005414 GeodesicLength=0.5785095596833638 rxn_smarts="[C:1]([C:2]([C@@:3]([O:4][H:13])([C:5]#[C:6][H:14])[H:12])([H:10])[H:11])([H:7])([H:8])[H:9]>>[C:1]([C:2]([C:3]([O:4][H:13])=[C:5]=[C:6]([H:12])[H:14])([H:10])[H:11])([H:7])([H:8])[H:9]"
C       -1.36668628       1.00573295      -0.39497375
C       -0.99779412      -0.30880103       0.26775948
C        0.47797140      -0.65664018       0.22218185
O        0.74257887      -1.77305959       0.98484002
C        1.21722077      -0.53397939      -1.04626074
C        1.83290085       0.42263091      -0.43816466
H       -0.87074575       1.85018843       0.08964332
H       -2.44235829       1.17175911      -0.32763758
H       -1.08679699       1.01492760      -1.44873218
H       -1.50777009      -1.13910656      -0.22870553
H       -1.32036781      -0.32770770       1.31188487
H        1.12354482       0.46861526       0.79028825
H        1.48701045      -2.23853729       0.59088630
H        2.71129214       1.04397748      -0.37300963
14
Frame=6 idx=005414 GeodesicLength=0.6940231883901603 rxn_smarts="[C:1]([C:2]([C@@:3]([O:4][H:13])([C:5]#[C:6][H:14])[H:12])([H:10])[H:11])([H:7])([H:8])[H:9]>>[C:1]([C:2]([C:3]([O:4][H:13])=[C:5]=[C:6]([H:12])[H:14])([H:10])[H:11])([H:7])([H:8])[H:9]"
C       -1.37393901       1.00357145      -0.39236840
C       -1.00691186      -0.31438014       0.26495110
C        0.47035460      -0.65585294       0.23396748
O        0.72323190      -1.78709013       0.98156526
C        1.21627129      -0.51619328      -1.02055512
C        1.85883091       0.43819998      -0.44391198
H       -0.88486184       1.84580587       0.10281141
H       -2.45066547       1.16637259      -0.33424364
H       -1.08513114       1.02157406      -1.44366248
H       -1.51217374      -1.14232484      -0.24030801
H       -1.33876428      -0.34030359       1.30606495
H        1.14650855       0.47827286       0.80482886
H        1.48489751      -2.23785878       0.60452855
H        2.75235257       1.04020688      -0.42366796
14
Frame=7 idx=005414 GeodesicLength=0.8094689947736974 rxn_smarts="[C:1]([C:2]([C@@:3]([O:4][H:13])([C:5]#[C:6][H:14])[H:12])([H:10])[H:11])([H:7])([H:8])[H:9]>>[C:1]([C:2]([C:3]([O:4][H:13])=[C:5]=[C:6]([H:12])[H:14])([H:10])[H:11])([H:7])([H:8])[H:9]"
C       -1.38096680       1.00152185      -0.38948417
C       -1.01630172      -0.32026491       0.26181016
C        0.46236680      -0.65515413       0.24670437
O        0.70346320      -1.80154446       0.97797108
C        1.21605903      -0.49752553      -0.99288925
C        1.88553805       0.45406351      -0.44961111
H       -0.89897766       1.84107185       0.11692268
H       -2.45866422       1.16125141      -0.34117292
H       -1.08259720       1.02888771      -1.43796512
H       -1.51616212      -1.14549888      -0.25325677
H       -1.35822702      -0.35389832       1.29949049
H        1.17042073       0.48770453       0.82032066
H        1.48255098      -2.23691079       0.61962214
H        2.79149796       1.03629617      -0.47846224
14
Frame=8 idx=005414 GeodesicLength=0.9248102242432252 rxn_smarts="[C:1]([C:2]([C@@:3]([O:4][H:13])([C:5]#[C:6][H:14])[H:12])([H:10])[H:11])([H:7])([H:8])[H:9]>>[C:1]([C:2]([C:3]([O:4][H:13])=[C:5]=[C:6]([H:12])[H:14])([H:10])[H:11])([H:7])([H:8])[H:9]"
C       -1.38781725       0.99955763      -0.38629963
C       -1.02593956      -0.32645100       0.25829012
C        0.45398429      -0.65445909       0.26042512
O        0.68332491      -1.81633572       0.97392401
C        1.21654665      -0.47782138      -0.96312242
C        1.91293699       0.47032473      -0.45534215
H       -0.91322053       1.83595074       0.13201768
H       -2.46637684       1.15632158      -0.34841684
H       -1.07923009       1.03686985      -1.43157388
H       -1.51959636      -1.14860826      -0.26763979
H       -1.37876701      -0.36854050       1.29205291
H        1.19529124       0.49702272       0.83680569
H        1.47997134      -2.23552514       0.63625651
H        2.82889223       1.03169386      -0.53737733
14
Frame=9 idx=005414 GeodesicLength=1.0400613386847863 rxn_smarts="[C:1]([C:2]([C@@:3]([O:4][H:13])([C:5]#[C:6][H:14])[H:12])([H:10])[H:11])([H:7])([H:8])[H:9]>>[C:1]([C:2]([C:3]([O:4][H:13])=[C:5]=[C:6]([H:12])[H:14])([H:10])[H:11])([H:7])([H:8])[H:9]"
C       -1.39372873       0.99784409      -0.38291080
C       -1.03560358      -0.33293816       0.25434973
C        0.44532570      -0.65424294       0.27547232
O        0.66252487      -1.83201543       0.96973064
C        1.21817214      -0.45774418      -0.93067110
C        1.94179822       0.48586997      -0.46059071
H       -0.92665300       1.83043202       0.14807016
H       -2.47301208       1.15212865      -0.35630556
H       -1.07403841       1.04561950      -1.42448625
H       -1.52234679      -1.15146475      -0.28361480
H       -1.40042000      -0.38417518       1.28358000
H        1.22165477       0.50550121       0.85477907
H        1.47638311      -2.23483730       0.65470192
H        2.85994377       1.03002250      -0.60210462
14
Frame=10 idx=005414 GeodesicLength=1.1551718952822052 rxn_smarts="[C:1]([C:2]([C@@:3]([O:4][H:13])([C:5]#[C:6][H:14])[H:12])([H:10])[H:11])([H:7])([H:8])[H:9]>>[C:1]([C:2]([C:3]([O:4][H:13])=[C:5]=[C:6]([H:12])[H:14])([H:10])[H:11])([H:7])([H:8])[H:9]"
C       -1.39926361       0.99625174      -0.37925429
C       -1.04534147      -0.33969126       0.24995497
C        0.43633475      -0.65404585       0.29167327
O        0.64146510      -1.84802406       0.96501973
C        1.22061634      -0.43662641      -0.89568979
C        1.97155052       0.50148095      -0.46597074
H       -0.94007149       1.82451439       0.16506168
H       -2.47912226       1.14822290      -0.36461479
H       -1.06773966       1.05505774      -1.41662951
H       -1.52420887      -1.15415036      -0.30113747
H       -1.42309952      -0.40085536       1.27401085
H        1.24929970       0.51384245       0.87393704
H        1.47221323      -2.23400574       0.67476226
H        2.88736725       1.02802887      -0.67112320
14
Frame=11 idx=005414 GeodesicLength=1.2702574135309714 rxn_smarts="[C:1]([C:2]([C@@:3]([O:4][H:13])([C:5]#[C:6][H:14])[H:12])([H:10])[H:11])([H:7])([H:8])[H:9]>>[C:1]([C:2]([C:3]([O:4][H:13])=[C:5]=[C:6]([H:12])[H:14])([H:10])[H:11])([H:7])([H:8])[H:9]"
C       -1.40435858       0.99483603      -0.37536618
C       -1.05506109      -0.34668740       0.24506559
C        0.42708228      -0.65386150       0.30911753
O        0.62028404      -1.86435598       0.95979441
C        1.22396651      -0.41444471      -0.85798272
C        2.00233098       0.51696665      -0.47165689
H       -0.95345439       1.81823540       0.18295616
H       -2.48465750       1.14466669      -0.37344112
H       -1.06021064       1.06527557      -1.40798678
H       -1.52500629      -1.15660925      -0.32025383
H       -1.44678268      -0.41860839       1.26322556
H        1.27847596       0.52209399       0.89434002
H        1.46736869      -2.23320519       0.69648332
H        2.91002271       1.02569808      -0.74429509
14
Frame=12 idx=005414 GeodesicLength=1.3851739485600119 rxn_smarts="[C:1]([C:2]([C@@:3]([O:4][H:13])([C:5]#[C:6][H:14])[H:12])([H:10])[H:11])([H:7])([H:8])[H:9]>>[C:1]([C:2]([C:3]([O:4][H:13])=[C:5]=[C:6]([H:12])[H:14])([H:10])[H:11])([H:7])([H:8])[H:9]"
C       -1.40952995       0.99347181      -0.37110080
C       -1.06475641      -0.35390075       0.23959118
C        0.41751870      -0.65321398       0.32759721
O        0.59943063      -1.88042844       0.95355134
C        1.22782502      -0.39047830      -0.81770152
C        2.03342907       0.53305499      -0.47834283
H       -0.96757998       1.81151233       0.20193543
H       -2.49010198       1.14098520      -0.38252396
H       -1.05211452       1.07633073      -1.39835826
H       -1.52446915      -1.15884406      -0.34106198
H       -1.47131006      -0.43760679       1.25106278
H        1.30899126       0.53101467       0.91567957
H        1.46234164      -2.23141796       0.71976277
H        2.93032574       1.01952054      -0.82009092
14
Frame=13 idx=005414 GeodesicLength=1.499921326719586 rxn_smarts="[C:1]([C:2]([C@@:3]([O:4][H:13])([C:5]#[C:6][H:14])[H:12])([H:10])[H:11])([H:7])([H:8])[H:9]>>[C:1]([C:2]([C:3]([O:4][H:13])=[C:5]=[C:6]([H:12])[H:14])([H:10])[H:11])([H:7])([H:8])[H:9]"
C       -1.41140779       0.99265694      -0.36714288
C       -1.07365681      -0.36129410       0.23338751
C        0.40782160      -0.65423201       0.34858817
O        0.57688064      -1.89844101       0.94811933
C        1.23394156      -0.36812752      -0.77244634
C        2.06781927       0.54444928      -0.48302700
H       -0.97846356       1.80427338       0.22156391
H       -2.49183101       1.13932586      -0.39371689
H       -1.03890281       1.08805338      -1.38802417
H       -1.52226610      -1.16020714      -0.36403292
H       -1.49709352      -0.45709936       1.23688030
H        1.34236603       0.53720563       0.94037856
H        1.45395743      -2.23310212       0.74624239
H        2.93083508       1.02653880      -0.90676997
14
Frame=14 idx=005414 GeodesicLength=1.6144481720045782 rxn_smarts="[C:1]([C:2]([C@@:3]([O:4][H:13])([C:5]#[C:6][H:14])[H:12])([H:10])[H:11])([H:7])([H:8])[H:9]>>[C:1]([C:2]([C:3]([O:4][H:13])=[C:5]=[C:6]([H:12])[H:14])([H:10])[H:11])([H:7])([H:8])[H:9]"
C       -1.41452061       0.99171982      -0.36269457
C       -1.08240978      -0.36873977       0.22667619
C        0.39796040      -0.65381490       0.37005877
O        0.55609685      -1.91485330       0.94107994
C        1.23989641      -0.34248680      -0.72526006
C        2.10132930       0.55764166      -0.49075845
H       -0.99151323       1.79674897       0.24194836
H       -2.49467221       1.13672574      -0.40445673
H       -1.02691648       1.10047050      -1.37667857
H       -1.51826741      -1.16147076      -0.38815506
H       -1.52300630      -0.47777748       1.22143211
H        1.37713351       0.54578090       0.96507287
H        1.44599252      -2.23291109       0.77233306
H        2.93289702       1.02296650      -0.99059787
14
Frame=15 idx=005414 GeodesicLength=1.7289566868414206 rxn_smarts="[C:1]([C:2]([C@@:3]([O:4][H:13])([C:5]#[C:6][H:14])[H:12])([H:10])[H:11])([H:7])([H:8])[H:9]>>[C:1]([C:2]([C:3]([O:4][H:13])=[C:5]=[C:6]([H:12])[H:14])([H:10])[H:11])([H:7])([H:8])[H:9]"
C       -1.41879317       0.99080412      -0.35769773
C       -1.09091322      -0.37624712       0.21932602
C        0.38800562      -0.65199159       0.39215723
O        0.53722300      -1.92973865       0.93245854
C        1.24582346      -0.31345586      -0.67578401
C        2.13387346       0.57220934      -0.50170207
H       -1.00686299       1.78894116       0.26341011
H       -2.49858700       1.13326674      -0.41499719
H       -1.01580258       1.11406858      -1.36409764
H       -1.51219768      -1.16247716      -0.41373493
H       -1.54914459      -0.49994561       1.20441044
H        1.41356544       0.55692896       0.99000848
H        1.43854112      -2.23099445       0.79817968
H        2.93526912       1.00863155      -1.07193694
14
Frame=16 idx=005414 GeodesicLength=1.8432497710631714 rxn_smarts="[C:1]([C:2]([C@@:3]([O:4][H:13])([C:5]#[C:6][H:14])[H:12])([H:10])[H:11])([H:7])([H:8])[H:9]>>[C:1]([C:2]([C:3]([O:4][H:13])=[C:5]=[C:6]([H:12])[H:14])([H:10])[H:11])([H:7])([H:8])[H:9]"
C       -1.42429422       0.98986281      -0.35191237
C       -1.09894376      -0.38379683       0.21106611
C        0.37794290      -0.64844506       0.41488031
O        0.52058402      -1.94262214       0.92186127
C        1.25153647      -0.28027597      -0.62356915
C        2.16468566       0.58831743      -0.51568622
H       -1.02500692       1.78055005       0.28661235
H       -2.50352601       1.12860977      -0.42536096
H       -1.00551298       1.12930700      -1.34976932
H       -1.50344068      -1.16292280      -0.44138328
H       -1.57533546      -0.52406210       1.18525165
H        1.45142932       0.57128508       1.01567581
H        1.43178880      -2.22668542       0.82362715
H        2.93809287       0.98087818      -1.15129336
