14
Frame=0 idx=005726 GeodesicLength=0.0 rxn_smarts="[C:1]([C@@:2]1([H:10])[C:3]([H:11])([H:12])[C:4]([H:13])([H:14])[C:5]1=[O:6])([H:7])([H:8])[H:9]>>[C:1](/[C:2](=[C:3](/[C:4]([C:5](=[O:6])[H:11])([H:13])[H:14])[H:12])[H:10])([H:7])([H:8])[H:9]"
C        1.54685870      -0.73376823       0.25575147
C        0.64463003       0.37522323      -0.26733056
C       -0.53058204      -0.16361853      -1.00332367
C       -1.59243591      -0.07583077       0.03264969
C       -0.58079876       0.98696058       0.60729735
O       -0.53936017       1.49205196       1.72877239
H        2.29059528      -0.31355429       0.93379663
H        0.98500366      -1.49018870       0.80810472
H        2.08011284      -1.22746509      -0.56184705
H        1.23181493       1.18026770      -0.70112508
H       -0.78498356       1.64618907      -0.41096961
H       -0.46593337      -0.94656605      -1.76559627
H       -2.57955709       0.31221746      -0.20861537
H       -1.70536450      -1.04191830       0.55243530
14
Frame=1 idx=005726 GeodesicLength=0.10241592379945332 rxn_smarts="[C:1]([C@@:2]1([H:10])[C:3]([H:11])([H:12])[C:4]([H:13])([H:14])[C:5]1=[O:6])([H:7])([H:8])[H:9]>>[C:1](/[C:2](=[C:3](/[C:4]([C:5](=[O:6])[H:11])([H:13])[H:14])[H:12])[H:10])([H:7])([H:8])[H:9]"
C        1.55658698      -0.74285088       0.24823145
C        0.64758030       0.36432359      -0.26269303
C       -0.53050135      -0.15458980      -1.00245542
C       -1.59228860      -0.07166579       0.03924899
C       -0.59512566       1.00111378       0.61163995
O       -0.55964702       1.50625175       1.73079259
H        2.28785976      -0.32946278       0.94385487
H        0.99641083      -1.51751854       0.77628511
H        2.10484878      -1.21235446      -0.57358924
H        1.23088150       1.18054213      -0.68126621
H       -0.79146126       1.64422030      -0.44521245
H       -0.46874590      -0.95375930      -1.74716458
H       -2.57845163       0.31406566      -0.21090694
H       -1.70794671      -1.02831564       0.57323492
14
Frame=2 idx=005726 GeodesicLength=0.2047675896312947 rxn_smarts="[C:1]([C@@:2]1([H:10])[C:3]([H:11])([H:12])[C:4]([H:13])([H:14])[C:5]1=[O:6])([H:7])([H:8])[H:9]>>[C:1](/[C:2](=[C:3](/[C:4]([C:5](=[O:6])[H:11])([H:13])[H:14])[H:12])[H:10])([H:7])([H:8])[H:9]"
C        1.56657580      -0.75201496       0.24051701
C        0.65047232       0.35313462      -0.25786715
C       -0.53023113      -0.14611524      -1.00114835
C       -1.59215532      -0.06722373       0.04599135
C       -0.60980309       1.01572613       0.61582332
O       -0.58009020       1.52046747       1.73284347
H        2.28488277      -0.34616668       0.95391193
H        1.00864130      -1.54481256       0.74323638
H        2.12998052      -1.19638239      -0.58492462
H        1.22958172       1.18047180      -0.66086525
H       -0.79787544       1.64157641      -0.48008053
H       -0.47179491      -0.96068341      -1.72846651
H       -2.57727049       0.31594611      -0.21344374
H       -1.71091386      -1.01392356       0.59447268
14
Frame=3 idx=005726 GeodesicLength=0.3071020724796307 rxn_smarts="[C:1]([C@@:2]1([H:10])[C:3]([H:11])([H:12])[C:4]([H:13])([H:14])[C:5]1=[O:6])([H:7])([H:8])[H:9]>>[C:1](/[C:2](=[C:3](/[C:4]([C:5](=[O:6])[H:11])([H:13])[H:14])[H:12])[H:10])([H:7])([H:8])[H:9]"
C        1.57683565      -0.76126100       0.23259356
C        0.65332103       0.34165761      -0.25283571
C       -0.52976463      -0.13818298      -0.99940272
C       -1.59204770      -0.06249039       0.05289335
C       -0.62484808       1.03081059       0.61986113
O       -0.60071109       1.53474200       1.73493807
H        2.28169518      -0.36372850       0.96390930
H        1.02172489      -1.57201005       0.70893424
H        2.15547376      -1.17955187      -0.59582698
H        1.22792024       1.18006416      -0.63988625
H       -0.80422285       1.63823338      -0.51558897
H       -0.47506212      -0.96739871      -1.70948939
H       -2.57602277       0.31786079      -0.21619868
H       -1.71429151      -0.99874503       0.61609906
14
Frame=4 idx=005726 GeodesicLength=0.4094136082928925 rxn_smarts="[C:1]([C@@:2]1([H:10])[C:3]([H:11])([H:12])[C:4]([H:13])([H:14])[C:5]1=[O:6])([H:7])([H:8])[H:9]>>[C:1](/[C:2](=[C:3](/[C:4]([C:5](=[O:6])[H:11])([H:13])[H:14])[H:12])[H:10])([H:7])([H:8])[H:9]"
C        1.58737110      -0.77058340       0.22445138
C        0.65613128       0.32988557      -0.24757674
C       -0.52910559      -0.13077859      -0.99721124
C       -1.59196659      -0.05744575       0.05996431
C       -0.64026682       1.04636703       0.62376017
O       -0.62150699       1.54910155       1.73707227
H        2.27831880      -0.38221149       0.97379442
H        1.03570195      -1.59904178       0.67335089
H        2.18128073      -1.16184759      -0.60625765
H        1.22587899       1.17930940      -0.61828682
H       -0.81050535       1.63414089      -0.55175559
H       -0.47854245      -0.97394491      -1.69020659
H       -2.57470230       0.31981600      -0.21915420
H       -1.71808678      -0.98276693       0.63805539
14
Frame=5 idx=005726 GeodesicLength=0.5117036219625088 rxn_smarts="[C:1]([C@@:2]1([H:10])[C:3]([H:11])([H:12])[C:4]([H:13])([H:14])[C:5]1=[O:6])([H:7])([H:8])[H:9]>>[C:1](/[C:2](=[C:3](/[C:4]([C:5](=[O:6])[H:11])([H:13])[H:14])[H:12])[H:10])([H:7])([H:8])[H:9]"
C        1.59819068      -0.77997668       0.21607899
C        0.65890979       0.31780937      -0.24206760
C       -0.52825635      -0.12388964      -0.99456392
C       -1.59191712      -0.05206834       0.06721302
C       -0.65606796       1.06239514       0.62752978
O       -0.64248067       1.56357767       1.73924217
H        2.27478311      -0.40167884       0.98350861
H        1.05061356      -1.62583549       0.63645811
H        2.20735855      -1.14325602      -0.61617979
H        1.22344293       1.17819506      -0.59602301
H       -0.81672222       1.62924463      -0.58859809
H       -0.48223112      -0.98036057      -1.67058686
H       -2.57330625       0.32182270      -0.22229368
H       -1.72231694      -0.96597898       0.66028228
14
Frame=6 idx=005726 GeodesicLength=0.6139730594270362 rxn_smarts="[C:1]([C@@:2]1([H:10])[C:3]([H:11])([H:12])[C:4]([H:13])([H:14])[C:5]1=[O:6])([H:7])([H:8])[H:9]>>[C:1](/[C:2](=[C:3](/[C:4]([C:5](=[O:6])[H:11])([H:13])[H:14])[H:12])[H:10])([H:7])([H:8])[H:9]"
C        1.60930439      -0.78943435       0.20746366
C        0.66166335       0.30541722      -0.23628459
C       -0.52721847      -0.11750487      -0.99144821
C       -1.59190561      -0.04633507       0.07464705
C       -0.67225973       1.07889376       0.63118086
O       -0.66363612       1.57820510       1.74144301
H        2.27112128      -0.42219411       0.99298887
H        1.06650068      -1.65231474       0.59822343
H        2.23366675      -1.12376177      -0.62555554
H        1.22059636       1.17670360      -0.57304825
H       -0.82287131       1.62348279      -0.62613520
H       -0.48612486      -0.98668196      -1.65059334
H       -2.57183132       0.32389613      -0.22560277
H       -1.72700538      -0.94837172       0.68272103
14
Frame=7 idx=005726 GeodesicLength=0.7162237941870705 rxn_smarts="[C:1]([C@@:2]1([H:10])[C:3]([H:11])([H:12])[C:4]([H:13])([H:14])[C:5]1=[O:6])([H:7])([H:8])[H:9]>>[C:1](/[C:2](=[C:3](/[C:4]([C:5](=[O:6])[H:11])([H:13])[H:14])[H:12])[H:10])([H:7])([H:8])[H:9]"
C        1.62072408      -0.79894885       0.19859220
C        0.66439900       0.29269492      -0.23020246
C       -0.52599391      -0.11161383      -0.98784985
C       -1.59194033      -0.04022187       0.08227232
C       -0.68884989       1.09586090       0.63472574
O       -0.68497770       1.59302019       1.74367054
H        2.26737377      -0.44382014       1.00216719
H        1.08340418      -1.67839782       0.55861432
H        2.26016423      -1.10334976      -0.63434615
H        1.21732391       1.17481346      -0.54931302
H       -0.82894820       1.61678708      -0.66438840
H       -0.49022312      -0.99294184      -1.63018562
H       -2.57027512       0.32605496      -0.22906985
H       -1.73218090      -0.92993740       0.70531304
14
Frame=8 idx=005726 GeodesicLength=0.8184585943360865 rxn_smarts="[C:1]([C@@:2]1([H:10])[C:3]([H:11])([H:12])[C:4]([H:13])([H:14])[C:5]1=[O:6])([H:7])([H:8])[H:9]>>[C:1](/[C:2](=[C:3](/[C:4]([C:5](=[O:6])[H:11])([H:13])[H:14])[H:12])[H:10])([H:7])([H:8])[H:9]"
C        1.63246145      -0.80851195       0.18944926
C        0.66712071       0.27962329      -0.22379402
C       -0.52458589      -0.10620780      -0.98375128
C       -1.59202690      -0.03370056       0.09009511
C       -0.70584743       1.11329555       0.63817629
O       -0.70651204       1.60806444       1.74591739
H        2.26356967      -0.46662706       1.01097970
H        1.10137180      -1.70400510       0.51758398
H        2.28681561      -1.08199756      -0.64251105
H        1.21360575       1.17249537      -0.52476715
H       -0.83495079       1.60907898      -0.70338280
H       -0.49452473      -0.99917006      -1.60931717
H       -2.56862944       0.32832125      -0.23268051
H       -1.73786776      -0.91065878       0.72800225
14
Frame=9 idx=005726 GeodesicLength=0.9206783452712718 rxn_smarts="[C:1]([C@@:2]1([H:10])[C:3]([H:11])([H:12])[C:4]([H:13])([H:14])[C:5]1=[O:6])([H:7])([H:8])[H:9]>>[C:1](/[C:2](=[C:3](/[C:4]([C:5](=[O:6])[H:11])([H:13])[H:14])[H:12])[H:10])([H:7])([H:8])[H:9]"
C        1.64453079      -0.81811337       0.18001899
C        0.66983553       0.26618356      -0.21702822
C       -0.52299528      -0.10127847      -0.97913197
C       -1.59217646      -0.02674396       0.09811985
C       -0.72325854       1.13119833       0.64154616
O       -0.72824636       1.62338316       1.74817674
H        2.25976086      -0.49068573       1.01934931
H        1.12044056      -1.72904202       0.47508181
H        2.31358263      -1.05968184      -0.65000601
H        1.20942758       1.16971661      -0.49935067
H       -0.84087017       1.60026802      -0.74314850
H       -0.49903321      -1.00539534      -1.58793552
H       -2.56689336       0.33072081      -0.23642710
H       -1.74410456      -0.89052976       0.75073513
14
Frame=10 idx=005726 GeodesicLength=1.0228858291703056 rxn_smarts="[C:1]([C@@:2]1([H:10])[C:3]([H:11])([H:12])[C:4]([H:13])([H:14])[C:5]1=[O:6])([H:7])([H:8])[H:9]>>[C:1](/[C:2](=[C:3](/[C:4]([C:5](=[O:6])[H:11])([H:13])[H:14])[H:12])[H:10])([H:7])([H:8])[H:9]"
C        1.65694555      -0.82774214       0.17028271
C        0.67254714       0.25235180      -0.20987143
C       -0.52122445      -0.09682021      -0.97396793
C       -1.59239695      -0.01932012       0.10635260
C       -0.74108960       1.14957411       0.64484709
O       -0.75018856       1.63902963       1.75043834
H        2.25598165      -0.51607977       1.02720649
H        1.14065461      -1.75341707       0.43103176
H        2.34043694      -1.03636582      -0.65678091
H        1.20477099       1.16643633      -0.47300216
H       -0.84670142       1.59024928      -0.78372165
H       -0.50375167      -1.01164580      -1.56598132
H       -2.56505998       0.33328203      -0.24029820
H       -1.75092425      -0.86953226       0.77346461
14
Frame=11 idx=005726 GeodesicLength=1.125084273903723 rxn_smarts="[C:1]([C@@:2]1([H:10])[C:3]([H:11])([H:12])[C:4]([H:13])([H:14])[C:5]1=[O:6])([H:7])([H:8])[H:9]>>[C:1](/[C:2](=[C:3](/[C:4]([C:5](=[O:6])[H:11])([H:13])[H:14])[H:12])[H:10])([H:7])([H:8])[H:9]"
C        1.66971969      -0.83738609       0.16022024
C        0.67525845       0.23810104      -0.20228570
C       -0.51927559      -0.09282857      -0.96823200
C       -1.59269689      -0.01139495       0.11479916
C       -0.75934650       1.16843138       0.64808947
O       -0.77234772       1.65506064       1.75269091
H        2.25226938      -0.54290130       1.03447515
H        1.16205851      -1.77702723       0.38534539
H        2.36734897      -1.01200761      -0.66277871
H        1.19961825       1.16260709      -0.44565327
H       -0.85243807       1.57890287      -0.82514480
H       -0.50868504      -1.01794746      -1.54338918
H       -2.56312250       0.33603644      -0.24428363
H       -1.75836096      -0.84764626       0.79614697
14
Frame=12 idx=005726 GeodesicLength=1.2272783945103956 rxn_smarts="[C:1]([C@@:2]1([H:10])[C:3]([H:11])([H:12])[C:4]([H:13])([H:14])[C:5]1=[O:6])([H:7])([H:8])[H:9]>>[C:1](/[C:2](=[C:3](/[C:4]([C:5](=[O:6])[H:11])([H:13])[H:14])[H:12])[H:10])([H:7])([H:8])[H:9]"
C        1.68286574      -0.84703210       0.14980872
C        0.67797169       0.22340156      -0.19422937
C       -0.51715012      -0.08930223      -0.96189498
C       -1.59308413      -0.00293217       0.12346684
C       -0.77803200       1.18778652       0.65128221
O       -0.79473085       1.67154358       1.75492313
H        2.24865440      -0.57125528       1.04107992
H        1.18469389      -1.79976310       0.33790773
H        2.39429623      -0.98655105      -0.66793266
H        1.19395322       1.15817654      -0.41722876
H       -0.85807464       1.56608953      -0.86746878
H       -0.51383998      -1.02432982      -1.52008806
H       -2.56107267       0.33901701      -0.24837293
H       -1.76645079      -0.82484899       0.81874700
14
Frame=13 idx=005726 GeodesicLength=1.329482903537901 rxn_smarts="[C:1]([C@@:2]1([H:10])[C:3]([H:11])([H:12])[C:4]([H:13])([H:14])[C:5]1=[O:6])([H:7])([H:8])[H:9]>>[C:1](/[C:2](=[C:3](/[C:4]([C:5](=[O:6])[H:11])([H:13])[H:14])[H:12])[H:10])([H:7])([H:8])[H:9]"
C        1.69639647      -0.85666682       0.13902362
C        0.68068715       0.20822090      -0.18565482
C       -0.51484942      -0.08624247      -0.95492743
C       -1.59356599       0.00610660       0.13236373
C       -0.79714879       1.20766525       0.65443381
O       -0.81734673       1.68855603       1.75712890
H        2.24516720      -0.60126268       1.04693981
H        1.20860658      -1.82150270       0.28858685
H        2.42125207      -0.95993446      -0.67216691
H        1.18775955       1.15309040      -0.38764434
H       -0.86360485       1.55165293      -0.91075720
H       -0.51922423      -1.03082538      -1.49600507
H       -2.55890086       0.34225854      -0.25255737
H       -1.77522817      -0.80111614       0.84123642
14
Frame=14 idx=005726 GeodesicLength=1.4317293075774402 rxn_smarts="[C:1]([C@@:2]1([H:10])[C:3]([H:11])([H:12])[C:4]([H:13])([H:14])[C:5]1=[O:6])([H:7])([H:8])[H:9]>>[C:1](/[C:2](=[C:3](/[C:4]([C:5](=[O:6])[H:11])([H:13])[H:14])[H:12])[H:10])([H:7])([H:8])[H:9]"
C        1.71031880      -0.86627058       0.12783562
C        0.68341075       0.19252918      -0.17651537
C       -0.51237631      -0.08366289      -0.94731196
C       -1.59415560       0.01575217       0.14150544
C       -0.81668294       1.22811197       0.65755809
O       -0.84018256       1.70620621       1.75932471
H        2.24180893      -0.63306073       1.05200338
H        1.23382018      -1.84212411       0.23719309
H        2.44821694      -0.93205708      -0.67538858
H        1.18104543       1.14730921      -0.35681360
H       -0.86900984       1.53541452      -0.95510260
H       -0.52486252      -1.03749417      -1.47107825
H       -2.55660352       0.34578009      -0.25682510
H       -1.78474773      -0.77643379       0.86361514
14
Frame=15 idx=005726 GeodesicLength=1.5341661506440665 rxn_smarts="[C:1]([C@@:2]1([H:10])[C:3]([H:11])([H:12])[C:4]([H:13])([H:14])[C:5]1=[O:6])([H:7])([H:8])[H:9]>>[C:1](/[C:2](=[C:3](/[C:4]([C:5](=[O:6])[H:11])([H:13])[H:14])[H:12])[H:10])([H:7])([H:8])[H:9]"
C        1.72465824      -0.87581160       0.11619841
C        0.68617907       0.17629513      -0.16676977
C       -0.50972957      -0.08161296      -0.93906228
C       -1.59492328       0.02602418       0.15092942
C       -0.83661131       1.24921072       0.66070186
O       -0.86322672       1.72468021       1.76160959
H        2.23854547      -0.66680250       1.05624765
H        1.26033930      -1.86149135       0.18344056
H        2.47529465      -0.90276652      -0.67749955
H        1.17391584       1.14081243      -0.32465094
H       -0.87420927       1.51714804      -1.00064891
H       -0.53080875      -1.04446388      -1.44528502
H       -2.55424217       0.34957055      -0.26115468
H       -1.79518151      -0.75079245       0.88594367
14
Frame=16 idx=005726 GeodesicLength=1.636077792360285 rxn_smarts="[C:1]([C@@:2]1([H:10])[C:3]([H:11])([H:12])[C:4]([H:13])([H:14])[C:5]1=[O:6])([H:7])([H:8])[H:9]>>[C:1](/[C:2](=[C:3](/[C:4]([C:5](=[O:6])[H:11])([H:13])[H:14])[H:12])[H:10])([H:7])([H:8])[H:9]"
C        1.73942609      -0.88524184       0.10410323
C        0.68882108       0.15932854      -0.15620183
C       -0.50689377      -0.07985477      -0.92973647
C       -1.59562211       0.03719787       0.16044348
C       -0.85707212       1.27059981       0.66355895
O       -0.88668183       1.74327057       1.76321786
H        2.23587058      -0.70265271       1.05868230
H        1.28849798      -1.87871155       0.12777414
H        2.50176181      -0.87249496      -0.67821318
H        1.16581154       1.13295662      -0.29076109
H       -0.87953167       1.49639669      -1.04697368
H       -0.53685092      -1.05112031      -1.41789078
H       -2.55150697       0.35404173      -0.26561279
H       -1.80602969      -0.72371569       0.90760986
