17
Frame=0 idx=010387 GeodesicLength=0.0 rxn_smarts="[C:1]([C:2]12[C:3]([H:11])([H:12])[C:4]([H:13])([C:5]1([H:14])[H:15])[O:6][C:7]2([H:16])[H:17])([H:8])([H:9])[H:10]>>[C:1]([C:2]1=[C:3]([H:11])[C:4]([H:12])([H:13])[C:5]1([H:14])[H:15])([H:8])([H:9])[H:10].[O:6]=[C:7]([H:16])[H:17]"
C        1.69002284      -0.84971817      -0.09298040
C        0.34616344      -0.18491386      -0.05996051
C       -0.42230576       0.28202863      -1.18186577
C       -1.64842800       0.10526487      -0.47472395
C       -0.95073670      -0.76689274       0.55830988
O       -0.89380206       1.74910808       0.95234262
C        0.32538425       1.35446563       0.81684747
H        2.40461742      -0.24092738      -0.65131755
H        1.65173885      -1.83614111      -0.56029771
H        2.07834733      -0.97199569       0.92015592
H       -0.21000644       0.83942174      -2.08545232
H       -1.39484523      -0.65400577      -1.47052135
H       -2.62593003       0.54934746      -0.58124714
H       -1.05945725      -1.83565803       0.36386384
H       -1.16336918      -0.52891794       1.59364411
H        1.01820142       1.98792105       0.22641591
H        0.85440514       1.00161315       1.72678702
17
Frame=1 idx=010387 GeodesicLength=0.06924430281628048 rxn_smarts="[C:1]([C:2]12[C:3]([H:11])([H:12])[C:4]([H:13])([C:5]1([H:14])[H:15])[O:6][C:7]2([H:16])[H:17])([H:8])([H:9])[H:10]>>[C:1]([C:2]1=[C:3]([H:11])[C:4]([H:12])([H:13])[C:5]1([H:14])[H:15])([H:8])([H:9])[H:10].[O:6]=[C:7]([H:16])[H:17]"
C        1.69222865      -0.85648858      -0.09185938
C        0.34833755      -0.19181838      -0.06203868
C       -0.41787919       0.27187970      -1.18691825
C       -1.64500958       0.11172645      -0.46777935
C       -0.94782105      -0.77504081       0.55502900
O       -0.90280637       1.74887886       0.94789909
C        0.32235711       1.36688071       0.81699004
H        2.40751172      -0.25137342      -0.65326087
H        1.65414480      -1.84549518      -0.55374725
H        2.08026113      -0.97462045       0.92198808
H       -0.20042327       0.84359412      -2.08044247
H       -1.40841262      -0.64973270      -1.47998653
H       -2.62109424       0.56135574      -0.56399095
H       -1.06421428      -1.84163167       0.35364238
H       -1.15591437      -0.54561457       1.59371928
H        1.00582806       2.00589654       0.22269940
H        0.85290592       1.02160365       1.72805644
17
Frame=2 idx=010387 GeodesicLength=0.13847164100228893 rxn_smarts="[C:1]([C:2]12[C:3]([H:11])([H:12])[C:4]([H:13])([C:5]1([H:14])[H:15])[O:6][C:7]2([H:16])[H:17])([H:8])([H:9])[H:10]>>[C:1]([C:2]1=[C:3]([H:11])[C:4]([H:12])([H:13])[C:5]1([H:14])[H:15])([H:8])([H:9])[H:10].[O:6]=[C:7]([H:16])[H:17]"
C        1.69440037      -0.86337858      -0.09080974
C        0.35052568      -0.19877014      -0.06414182
C       -0.41353720       0.26188779      -1.19186225
C       -1.64142498       0.11813739      -0.46077542
C       -0.94493402      -0.78312669       0.55174215
O       -0.91168419       1.74871518       0.94368836
C        0.31931523       1.37952462       0.81718279
H        2.41037218      -0.26199479      -0.65529269
H        1.65640203      -1.85492558      -0.54727305
H        2.08215792      -0.97737451       0.92372286
H       -0.19066661       0.84751591      -2.07518232
H       -1.42180732      -0.64504573      -1.48951964
H       -2.61621159       0.57271536      -0.54690550
H       -1.06906479      -1.84744478       0.34347082
H       -1.14843827      -0.56227522       1.59370598
H        0.99320046       2.02408822       0.21896837
H        0.85139509       1.04175155       1.72928111
17
Frame=3 idx=010387 GeodesicLength=0.20723293070069854 rxn_smarts="[C:1]([C:2]12[C:3]([H:11])([H:12])[C:4]([H:13])([C:5]1([H:14])[H:15])[O:6][C:7]2([H:16])[H:17])([H:8])([H:9])[H:10]>>[C:1]([C:2]1=[C:3]([H:11])[C:4]([H:12])([H:13])[C:5]1([H:14])[H:15])([H:8])([H:9])[H:10].[O:6]=[C:7]([H:16])[H:17]"
C        1.69655664      -0.87024784      -0.08985457
C        0.35271266      -0.20567799      -0.06626777
C       -0.40929984       0.25201752      -1.19676477
C       -1.63775978       0.12456190      -0.45380852
C       -0.94204887      -0.79114254       0.54849056
O       -0.92050078       1.74854331       0.93965369
C        0.31627820       1.39224839       0.81737318
H        2.41322277      -0.27262754      -0.65733813
H        1.65856076      -1.86430437      -0.54091141
H        2.08398339      -0.98021410       0.92542851
H       -0.18078436       0.85118657      -2.06983142
H       -1.43506994      -0.64011934      -1.49894037
H       -2.61128790       0.58366532      -0.53004317
H       -1.07396164      -1.85314134       0.33339157
H       -1.14095925      -0.57883104       1.59371263
H        0.98045510       2.04227113       0.21524966
H        0.84990285       1.06181195       1.73046032
17
Frame=4 idx=010387 GeodesicLength=0.2768834660800908 rxn_smarts="[C:1]([C:2]12[C:3]([H:11])([H:12])[C:4]([H:13])([C:5]1([H:14])[H:15])[O:6][C:7]2([H:16])[H:17])([H:8])([H:9])[H:10]>>[C:1]([C:2]1=[C:3]([H:11])[C:4]([H:12])([H:13])[C:5]1([H:14])[H:15])([H:8])([H:9])[H:10].[O:6]=[C:7]([H:16])[H:17]"
C        1.69864905      -0.87752314      -0.08891617
C        0.35494444      -0.21283587      -0.06842782
C       -0.40508805       0.24237578      -1.20143393
C       -1.63375831       0.13080293      -0.44656193
C       -0.93924296      -0.79912529       0.54515915
O       -0.92906859       1.74856209       0.93596715
C        0.31318203       1.40551603       0.81771141
H        2.41599706      -0.28375842      -0.65960388
H        1.66048590      -1.87402182      -0.53454596
H        2.08591128      -0.98326767       0.92691004
H       -0.17066709       0.85456970      -2.06400115
H       -1.44803369      -0.63443238      -1.50881065
H       -2.60634406       0.59356197      -0.51320297
H       -1.07904852      -1.85859175       0.32328426
H       -1.13343835      -0.59551898       1.59339655
H        0.96716243       2.06112808       0.21147808
H        0.84835741       1.08255875       1.73159783
17
Frame=5 idx=010387 GeodesicLength=0.3460552848265196 rxn_smarts="[C:1]([C:2]12[C:3]([H:11])([H:12])[C:4]([H:13])([C:5]1([H:14])[H:15])[O:6][C:7]2([H:16])[H:17])([H:8])([H:9])[H:10]>>[C:1]([C:2]1=[C:3]([H:11])[C:4]([H:12])([H:13])[C:5]1([H:14])[H:15])([H:8])([H:9])[H:10].[O:6]=[C:7]([H:16])[H:17]"
C        1.70073105      -0.88478675      -0.08807554
C        0.35717828      -0.21996706      -0.07060755
C       -0.40096478       0.23286957      -1.20605331
C       -1.62967961       0.13706600      -0.43935433
C       -0.93643804      -0.80703966       0.54186472
O       -0.93758480       1.74857886       0.93246097
C        0.31008171       1.41888589       0.81804639
H        2.41877111      -0.29490113      -0.66186306
H        1.66232523      -1.88368529      -0.52832087
H        2.08775843      -0.98643941       0.92835958
H       -0.16043433       0.85768647      -2.05810689
H       -1.46083342      -0.62852459      -1.51856518
H       -2.60137580       0.60307069      -0.49656991
H       -1.08418062      -1.86392725       0.31327049
H       -1.12591535      -0.61210277       1.59311479
H        0.95373735       2.07998507       0.20772070
H        0.84682361       1.10323135       1.73267901
17
Frame=6 idx=010387 GeodesicLength=0.4152329568032358 rxn_smarts="[C:1]([C:2]12[C:3]([H:11])([H:12])[C:4]([H:13])([C:5]1([H:14])[H:15])[O:6][C:7]2([H:16])[H:17])([H:8])([H:9])[H:10]>>[C:1]([C:2]1=[C:3]([H:11])[C:4]([H:12])([H:13])[C:5]1([H:14])[H:15])([H:8])([H:9])[H:10].[O:6]=[C:7]([H:16])[H:17]"
C        1.70278831      -0.89218507      -0.08729889
C        0.35942960      -0.22717210      -0.07281453
C       -0.39690239       0.22351891      -1.21057232
C       -1.62543388       0.14328220      -0.43206764
C       -0.93365743      -0.81490953       0.53856753
O       -0.94599000       1.74864974       0.92919317
C        0.30695464       1.43251496       0.81842575
H        2.42151773      -0.30623109      -0.66420090
H        1.66403324      -1.89344537      -0.52215957
H        2.08959776      -0.98974457       0.92972262
H       -0.15005480       0.86054016      -2.05203006
H       -1.47342634      -0.62220716      -1.52840852
H       -2.59638889       0.61200175      -0.48006506
H       -1.08940778      -1.86911227       0.30330095
H       -1.11837249      -0.62868637       1.59274172
H        0.94002219       2.09907844       0.20395380
H        0.84529052       1.12410736       1.73371194
17
Frame=7 idx=010387 GeodesicLength=0.4844149044230504 rxn_smarts="[C:1]([C:2]12[C:3]([H:11])([H:12])[C:4]([H:13])([C:5]1([H:14])[H:15])[O:6][C:7]2([H:16])[H:17])([H:8])([H:9])[H:10]>>[C:1]([C:2]1=[C:3]([H:11])[C:4]([H:12])([H:13])[C:5]1([H:14])[H:15])([H:8])([H:9])[H:10].[O:6]=[C:7]([H:16])[H:17]"
C        1.70482259      -0.89972308      -0.08658527
C        0.36169929      -0.23445903      -0.07504825
C       -0.39289483       0.21432227      -1.21499021
C       -1.62101987       0.14945210      -0.42469770
C       -0.93090127      -0.82273890       0.53526728
O       -0.95428607       1.74877044       0.92616600
C        0.30379652       1.44641053       0.81884398
H        2.42423832      -0.31775439      -0.66661494
H        1.66561350      -1.90330723      -0.51605841
H        2.09143030      -0.99318471       0.93099942
H       -0.13953167       0.86313792      -2.04577312
H       -1.48580041      -0.61548461      -1.53834463
H       -2.59138443       0.62037108      -0.46367708
H       -1.09473221      -1.87414792       0.29337331
H       -1.11081023      -0.64527710       1.59227729
H        0.92600110       2.11841295       0.20017377
H        0.84375938       1.14519967       1.73468856
17
Frame=8 idx=010387 GeodesicLength=0.553597890586713 rxn_smarts="[C:1]([C:2]12[C:3]([H:11])([H:12])[C:4]([H:13])([C:5]1([H:14])[H:15])[O:6][C:7]2([H:16])[H:17])([H:8])([H:9])[H:10]>>[C:1]([C:2]1=[C:3]([H:11])[C:4]([H:12])([H:13])[C:5]1([H:14])[H:15])([H:8])([H:9])[H:10].[O:6]=[C:7]([H:16])[H:17]"
C        1.70683610      -0.90740583      -0.08593297
C        0.36398835      -0.24183599      -0.07730897
C       -0.38893596       0.20527724      -1.21930854
C       -1.61643649       0.15557417      -0.41724113
C       -0.92816884      -0.83053286       0.53196414
O       -0.96247742       1.74893676       0.92338108
C        0.30060216       1.46058127       0.81929658
H        2.42693432      -0.32947660      -0.66910331
H        1.66707053      -1.91327731      -0.51001269
H        2.09325808      -0.99676091       0.93219204
H       -0.12886887       0.86548663      -2.03934169
H       -1.49795064      -0.60835507      -1.54837598
H       -2.58636272       0.62819516      -0.44739675
H       -1.10015470      -1.87903715       0.28348568
H       -1.10322790      -0.66188463       1.59172202
H        0.91166227       2.13799256       0.19637790
H        0.84223173       1.16652253       1.73560259
17
Frame=9 idx=010387 GeodesicLength=0.622779633647507 rxn_smarts="[C:1]([C:2]12[C:3]([H:11])([H:12])[C:4]([H:13])([C:5]1([H:14])[H:15])[O:6][C:7]2([H:16])[H:17])([H:8])([H:9])[H:10]>>[C:1]([C:2]1=[C:3]([H:11])[C:4]([H:12])([H:13])[C:5]1([H:14])[H:15])([H:8])([H:9])[H:10].[O:6]=[C:7]([H:16])[H:17]"
C        1.70883078      -0.91523865      -0.08534100
C        0.36629791      -0.24931006      -0.07959668
C       -0.38502030       0.19638179      -1.22352849
C       -1.61168241       0.16164818      -0.40969337
C       -0.92545920      -0.83829578       0.52865874
O       -0.97056747       1.74914665       0.92083892
C        0.29736679       1.47503505       0.81978021
H        2.42960682      -0.34140308      -0.67166538
H        1.66840712      -1.92336183      -0.50401943
H        2.09508372      -1.00047564       0.93330152
H       -0.11807074       0.86759359      -2.03273954
H       -1.50986965      -0.60081892      -1.55850569
H       -2.58132210       0.63548641      -0.43121905
H       -1.10567681      -1.88378121       0.27363745
H       -1.09562470      -0.67851504       1.59107780
H        0.89699014       2.15782172       0.19256459
H        0.84071008       1.18808681       1.73644940
17
Frame=10 idx=010387 GeodesicLength=0.6919635686423691 rxn_smarts="[C:1]([C:2]12[C:3]([H:11])([H:12])[C:4]([H:13])([C:5]1([H:14])[H:15])[O:6][C:7]2([H:16])[H:17])([H:8])([H:9])[H:10]>>[C:1]([C:2]1=[C:3]([H:11])[C:4]([H:12])([H:13])[C:5]1([H:14])[H:15])([H:8])([H:9])[H:10].[O:6]=[C:7]([H:16])[H:17]"
C        1.71080865      -0.92322728      -0.08480758
C        0.36862870      -0.25688995      -0.08191175
C       -0.38114226       0.18763258      -1.22765111
C       -1.60675535       0.16767296      -0.40204816
C       -0.92277181      -0.84603356       0.52535181
O       -0.97855821       1.74939472       0.91854306
C        0.29408488       1.48978161       0.82028954
H        2.43225680      -0.35354045      -0.67429935
H        1.66962713      -1.93356772      -0.49807377
H        2.09690909      -1.00433034       0.93432993
H       -0.10714041       0.86946738      -2.02596926
H       -1.52155121      -0.59287510      -1.56873852
H       -2.57625963       0.64226274      -0.41513381
H       -1.11129941      -1.88838317       0.26382669
H       -1.08800203      -0.69517979       1.59034201
H        0.88196871       2.17790604       0.18872899
H        0.83919636       1.20990932       1.73722128
17
Frame=11 idx=010387 GeodesicLength=0.7611465591707132 rxn_smarts="[C:1]([C:2]12[C:3]([H:11])([H:12])[C:4]([H:13])([C:5]1([H:14])[H:15])[O:6][C:7]2([H:16])[H:17])([H:8])([H:9])[H:10]>>[C:1]([C:2]1=[C:3]([H:11])[C:4]([H:12])([H:13])[C:5]1([H:14])[H:15])([H:8])([H:9])[H:10].[O:6]=[C:7]([H:16])[H:17]"
C        1.71277206      -0.93137736      -0.08433179
C        0.37098167      -0.26458446      -0.08425488
C       -0.37729609       0.17902635      -1.23167797
C       -1.60165258       0.17364722      -0.39430129
C       -0.92010536      -0.85375199       0.52204374
O       -0.98645262       1.74967661       0.91649491
C        0.29074971       1.50483041       0.82082013
H        2.43488541      -0.36589436      -0.67700456
H        1.67073465      -1.94390165      -0.49217213
H        2.09873674      -1.00832684       0.93527823
H       -0.09608069       0.87111604      -2.01903139
H       -1.53299144      -0.58452068      -1.57907580
H       -2.57117089       0.64853992      -0.39913481
H       -1.11702322      -1.89284597       0.25405249
H       -1.08036092      -0.71188592       1.58951524
H        0.86658162       2.19824890       0.18486878
H        0.83769194       1.23200379       1.73791109
17
Frame=12 idx=010387 GeodesicLength=0.8303281951266938 rxn_smarts="[C:1]([C:2]12[C:3]([H:11])([H:12])[C:4]([H:13])([C:5]1([H:14])[H:15])[O:6][C:7]2([H:16])[H:17])([H:8])([H:9])[H:10]>>[C:1]([C:2]1=[C:3]([H:11])[C:4]([H:12])([H:13])[C:5]1([H:14])[H:15])([H:8])([H:9])[H:10].[O:6]=[C:7]([H:16])[H:17]"
C        1.71472281      -0.93969542      -0.08391211
C        0.37335772      -0.27240208      -0.08662647
C       -0.37347600       0.17056035      -1.23560991
C       -1.59637108       0.17956950      -0.38644645
C       -0.91745952      -0.86145634       0.51873487
O       -0.99425300       1.74998772       0.91469798
C        0.28735539       1.52019101       0.82136683
H        2.43749360      -0.37847208      -0.67977995
H        1.67173253      -1.95437092      -0.48630999
H        2.10056870      -1.01246762       0.93614796
H       -0.08489343       0.87254791      -2.01192538
H       -1.54418426      -0.57575228      -1.58952038
H       -2.56605009       0.65433373      -0.38321533
H       -1.12285012      -1.89717123       0.24431279
H       -1.07270069      -0.72864478       1.58859633
H        0.85080758       2.21885658       0.18097864
H        0.83619988       1.25438595       1.73851057
17
Frame=13 idx=010387 GeodesicLength=0.8995082601827725 rxn_smarts="[C:1]([C:2]12[C:3]([H:11])([H:12])[C:4]([H:13])([C:5]1([H:14])[H:15])[O:6][C:7]2([H:16])[H:17])([H:8])([H:9])[H:10]>>[C:1]([C:2]1=[C:3]([H:11])[C:4]([H:12])([H:13])[C:5]1([H:14])[H:15])([H:8])([H:9])[H:10].[O:6]=[C:7]([H:16])[H:17]"
C        1.71666276      -0.94818765      -0.08354758
C        0.37575769      -0.28035149      -0.08902690
C       -0.36967715       0.16223149      -1.23944742
C       -1.59090783       0.18543769      -0.37847656
C       -0.91483357      -0.86915226       0.51542563
O       -1.00196155       1.75032363       0.91315581
C        0.28389465       1.53587380       0.82192437
H        2.44008168      -0.39128027      -0.68262597
H        1.67262377      -1.96498279      -0.48048306
H        2.10240781      -1.01675447       0.93693977
H       -0.07358050       0.87377301      -2.00464935
H       -1.55512296      -0.56656759      -1.60007517
H       -2.56089088       0.65965968      -0.36737016
H       -1.12878119      -1.90136129       0.23460622
H       -1.06502313      -0.74546446       1.58758446
H        0.83462803       2.23973220       0.17705532
H        0.83472237       1.27707079       1.73901060
17
Frame=14 idx=010387 GeodesicLength=0.968685493789956 rxn_smarts="[C:1]([C:2]12[C:3]([H:11])([H:12])[C:4]([H:13])([C:5]1([H:14])[H:15])[O:6][C:7]2([H:16])[H:17])([H:8])([H:9])[H:10]>>[C:1]([C:2]1=[C:3]([H:11])[C:4]([H:12])([H:13])[C:5]1([H:14])[H:15])([H:8])([H:9])[H:10].[O:6]=[C:7]([H:16])[H:17]"
C        1.71859382      -0.95686076      -0.08323707
C        0.37818259      -0.28844134      -0.09145648
C       -0.36589351       0.15403701      -1.24319105
C       -1.58525857       0.19125096      -0.37038533
C       -0.91222671      -0.87684589       0.51211616
O       -1.00957948       1.75067863       0.91187335
C        0.28036049       1.55188951       0.82248696
H        2.44265041      -0.40432713      -0.68554237
H        1.67341095      -1.97574476      -0.47468694
H        2.10425643      -1.02119007       0.93765467
H       -0.06214253       0.87479929      -1.99719959
H       -1.56580215      -0.55696055      -1.61074251
H       -2.55568522       0.66453248      -0.35159343
H       -1.13481821      -1.90541792       0.22493037
H       -1.05732904      -0.76235533       1.58647885
H        0.81801858       2.26088081       0.17309310
H        0.83326215       1.30007505       1.73940129
17
Frame=15 idx=010387 GeodesicLength=1.0378554083473925 rxn_smarts="[C:1]([C:2]12[C:3]([H:11])([H:12])[C:4]([H:13])([C:5]1([H:14])[H:15])[O:6][C:7]2([H:16])[H:17])([H:8])([H:9])[H:10]>>[C:1]([C:2]1=[C:3]([H:11])[C:4]([H:12])([H:13])[C:5]1([H:14])[H:15])([H:8])([H:9])[H:10].[O:6]=[C:7]([H:16])[H:17]"
C        1.72051789      -0.96572162      -0.08297960
C        0.38063347      -0.29668056      -0.09391563
C       -0.36211944       0.14597412      -1.24684101
C       -1.57941889       0.19700716      -0.36216585
C       -0.90963823      -0.88454315       0.50880652
O       -1.01710794       1.75104719       0.91085519
C        0.27674450       1.56824902       0.82304888
H        2.44520029      -0.41762039      -0.68852951
H        1.67409669      -1.98666455      -0.46891715
H        2.10611742      -1.02577687       0.93829325
H       -0.05057932       0.87563475      -1.98957165
H       -1.57621697      -0.54692333      -1.62152258
H       -2.55042433       0.66896703      -0.33588114
H       -1.14096264      -1.90934277       0.21528296
H       -1.04961938      -0.77932786       1.58527855
H        0.80095548       2.28230636       0.16908723
H        0.83182140       1.32341545       1.73967154
17
Frame=16 idx=010387 GeodesicLength=1.1070157072583648 rxn_smarts="[C:1]([C:2]12[C:3]([H:11])([H:12])[C:4]([H:13])([C:5]1([H:14])[H:15])[O:6][C:7]2([H:16])[H:17])([H:8])([H:9])[H:10]>>[C:1]([C:2]1=[C:3]([H:11])[C:4]([H:12])([H:13])[C:5]1([H:14])[H:15])([H:8])([H:9])[H:10].[O:6]=[C:7]([H:16])[H:17]"
C        1.72243691      -0.97477767      -0.08277424
C        0.38311153      -0.30507829      -0.09640480
C       -0.35834911       0.13804038      -1.25039722
C       -1.57338388       0.20270416      -0.35381023
C       -0.90706754      -0.89225005       0.50549649
O       -1.02454759       1.75142326       0.91010747
C        0.27303789       1.58496398       0.82360398
H        2.44773194      -0.43116919      -0.69158773
H        1.67468318      -1.99775037      -0.46316905
H        2.10799350      -1.03051783       0.93885597
H       -0.03889014       0.87628822      -1.98175974
H       -1.58636144      -0.53644767      -1.63241608
H       -2.54509845       0.67297836      -0.32022936
H       -1.14721630      -1.91313717       0.20566134
H       -1.04189479      -0.79639278       1.58398207
H        0.78341138       2.30401265       0.16503196
H        0.83040290       1.34711001       1.73980920
