13
Frame=0 idx=009761 GeodesicLength=0.0 rxn_smarts="[O:1]([C:2]([C:3]#[C:4][C:5]([C:6](=[O:7])[H:13])([H:11])[H:12])([H:9])[H:10])[H:8]>>[C-:6]#[O+:7].[O:1]([C:2]([C:3](=[C:4]=[C:5]([H:11])[H:12])[H:13])([H:9])[H:10])[H:8]"
O        2.25208532       1.14093261      -0.97988161
C        1.95451739      -0.09436918      -0.36380148
C        0.54253217      -0.18527682       0.07902424
C       -0.27927877      -0.36050010       1.01284908
C       -1.64740902      -0.39352744       1.15032840
C       -1.92788503       0.00642437      -0.74762113
O       -2.92829072       0.10712563      -1.29506893
H        2.02621855       1.84415112      -0.36755298
H        2.61305678      -0.28631487       0.49027419
H        2.15617142      -0.85853641      -1.11570913
H       -2.14148379       0.41725332       1.68068121
H       -2.13400220      -1.35737697       1.28317459
H       -0.48623216       0.02001477      -0.82669648
13
Frame=1 idx=009761 GeodesicLength=0.06627201876312225 rxn_smarts="[O:1]([C:2]([C:3]#[C:4][C:5]([C:6](=[O:7])[H:13])([H:11])[H:12])([H:9])[H:10])[H:8]>>[C-:6]#[O+:7].[O:1]([C:2]([C:3](=[C:4]=[C:5]([H:11])[H:12])[H:13])([H:9])[H:10])[H:8]"
O        2.27094695       1.14134879      -0.96889914
C        1.96035876      -0.09459845      -0.36047039
C        0.54296156      -0.18023760       0.06619923
C       -0.27635139      -0.34925542       1.00403403
C       -1.64446737      -0.39327386       1.14777423
C       -1.95166057      -0.01961390      -0.76460904
O       -2.96348439       0.11506731      -1.28480908
H        2.04201974       1.84358594      -0.35656990
H        2.60954418      -0.29278440       0.49943770
H        2.16670683      -0.85738875      -1.11257191
H       -2.14037641       0.41808423       1.67554799
H       -2.11652839      -1.36114023       1.30328183
H       -0.49966952       0.03020633      -0.84834554
13
Frame=2 idx=009761 GeodesicLength=0.13192274926247988 rxn_smarts="[O:1]([C:2]([C:3]#[C:4][C:5]([C:6](=[O:7])[H:13])([H:11])[H:12])([H:9])[H:10])[H:8]>>[C-:6]#[O+:7].[O:1]([C:2]([C:3](=[C:4]=[C:5]([H:11])[H:12])[H:13])([H:9])[H:10])[H:8]"
O        2.28702899       1.14157103      -0.95935404
C        1.96661169      -0.09453654      -0.35626367
C        0.54392679      -0.17798899       0.05334246
C       -0.27325844      -0.34138440       0.99470977
C       -1.64132120      -0.39339448       1.14500196
C       -1.97510789      -0.04009485      -0.78028610
O       -2.99636851       0.12794383      -1.27350858
H        2.05261629       1.84349412      -0.34873911
H        2.60628860      -0.29522252       0.51027053
H        2.18038795      -0.85698931      -1.10669219
H       -2.13688920       0.41824892       1.67267415
H       -2.10100564      -1.36400648       1.32033777
H       -0.51290943       0.03235966      -0.87149297
13
Frame=3 idx=009761 GeodesicLength=0.19724684763925637 rxn_smarts="[O:1]([C:2]([C:3]#[C:4][C:5]([C:6](=[O:7])[H:13])([H:11])[H:12])([H:9])[H:10])[H:8]>>[C-:6]#[O+:7].[O:1]([C:2]([C:3](=[C:4]=[C:5]([H:11])[H:12])[H:13])([H:9])[H:10])[H:8]"
O        2.30173288       1.14175350      -0.95037874
C        1.97303483      -0.09434236      -0.35162692
C        0.54523490      -0.17710637       0.04046634
C       -0.27008798      -0.33523163       0.98503131
C       -1.63806259      -0.39357503       1.14207899
C       -1.99876203      -0.05696676      -0.79507684
O       -3.02777565       0.14222349      -1.26175017
H        2.06072922       1.84364774      -0.34229771
H        2.60311213      -0.29580418       0.52183710
H        2.19549408      -0.85690986      -1.09947276
H       -2.13198763       0.41811783       1.67122745
H       -2.08649752      -1.36619415       1.33549341
H       -0.52616465       0.03038778      -0.89553146
13
Frame=4 idx=009761 GeodesicLength=0.26251687909489474 rxn_smarts="[O:1]([C:2]([C:3]#[C:4][C:5]([C:6](=[O:7])[H:13])([H:11])[H:12])([H:9])[H:10])[H:8]>>[C-:6]#[O+:7].[O:1]([C:2]([C:3](=[C:4]=[C:5]([H:11])[H:12])[H:13])([H:9])[H:10])[H:8]"
O        2.31642837       1.14197122      -0.94107239
C        1.97939265      -0.09419979      -0.34701878
C        0.54669463      -0.17614211       0.02759382
C       -0.26690049      -0.32927822       0.97515860
C       -1.63474097      -0.39342365       1.13906873
C       -2.02286559      -0.07193787      -0.80932961
O       -3.05878937       0.15383296      -1.25018133
H        2.06903519       1.84373226      -0.33540239
H        2.59983592      -0.29672530       0.53317481
H        2.21033051      -0.85674300      -1.09237961
H       -2.12651021       0.41814544       1.67043374
H       -2.07218366      -1.36765972       1.34970085
H       -0.53972698       0.02842780      -0.91974646
13
Frame=5 idx=009761 GeodesicLength=0.32762230508562373 rxn_smarts="[O:1]([C:2]([C:3]#[C:4][C:5]([C:6](=[O:7])[H:13])([H:11])[H:12])([H:9])[H:10])[H:8]>>[C-:6]#[O+:7].[O:1]([C:2]([C:3](=[C:4]=[C:5]([H:11])[H:12])[H:13])([H:9])[H:10])[H:8]"
O        2.33025347       1.14217800      -0.93212365
C        1.98584830      -0.09394617      -0.34209669
C        0.54845224      -0.17598430       0.01477418
C       -0.26365826      -0.32426608       0.96507328
C       -1.63133842      -0.39340974       1.13590354
C       -2.04736698      -0.08516008      -0.82309713
O       -3.08869923       0.16702609      -1.23816690
H        2.07582359       1.84400785      -0.32945055
H        2.59658891      -0.29643602       0.54496673
H        2.22598693      -0.85677206      -1.08431816
H       -2.12026207       0.41791615       1.67029694
H       -2.05825604      -1.36885221       1.36281814
H       -0.55337243       0.02369858      -0.94457971
13
Frame=6 idx=009761 GeodesicLength=0.3927084146765844 rxn_smarts="[O:1]([C:2]([C:3]#[C:4][C:5]([C:6](=[O:7])[H:13])([H:11])[H:12])([H:9])[H:10])[H:8]>>[C-:6]#[O+:7].[O:1]([C:2]([C:3](=[C:4]=[C:5]([H:11])[H:12])[H:13])([H:9])[H:10])[H:8]"
O        2.34429203       1.14239461      -0.92279654
C        1.99221977      -0.09374815      -0.33723404
C        0.55034942      -0.17546589       0.00201524
C       -0.26040976      -0.31905059       0.95488416
C       -1.62788427      -0.39315061       1.13263396
C       -2.07234669      -0.09771533      -0.83657614
O       -3.11843382       0.17812149      -1.22624791
H        2.08321666       1.84418959      -0.32292561
H        2.59323167      -0.29670773       0.55644389
H        2.24113267      -0.85670088      -1.07649342
H       -2.11382570       0.41784248       1.67029537
H       -2.04415766      -1.36956254       1.37546029
H       -0.56738432       0.01955355      -0.96945925
13
Frame=7 idx=009761 GeodesicLength=0.45771326074983043 rxn_smarts="[O:1]([C:2]([C:3]#[C:4][C:5]([C:6](=[O:7])[H:13])([H:11])[H:12])([H:9])[H:10])[H:8]>>[C-:6]#[O+:7].[O:1]([C:2]([C:3](=[C:4]=[C:5]([H:11])[H:12])[H:13])([H:9])[H:10])[H:8]"
O        2.35802124       1.14262388      -0.91346145
C        1.99860897      -0.09351098      -0.33223848
C        0.55247986      -0.17516144      -0.01067167
C       -0.25712415      -0.31414903       0.94455698
C       -1.62436157      -0.39288560       1.12922559
C       -2.09778773      -0.10942388      -0.84973217
O       -3.14757702       0.18934364      -1.21411607
H        2.09017157       1.84443294      -0.31659512
H        2.58984676      -0.29664693       0.56799489
H        2.25643196      -0.85666429      -1.06829540
H       -2.10698680       0.41770707       1.67052768
H       -2.03009015      -1.36998832       1.38745942
H       -0.58163293       0.01432296      -0.99465421
13
Frame=8 idx=009761 GeodesicLength=0.5226721690067924 rxn_smarts="[O:1]([C:2]([C:3]#[C:4][C:5]([C:6](=[O:7])[H:13])([H:11])[H:12])([H:9])[H:10])[H:8]>>[C-:6]#[O+:7].[O:1]([C:2]([C:3](=[C:4]=[C:5]([H:11])[H:12])[H:13])([H:9])[H:10])[H:8]"
O        2.37176058       1.14286256      -0.90390974
C        2.00497500      -0.09328255      -0.32721157
C        0.55480375      -0.17472688      -0.02328286
C       -0.25381556      -0.30921574       0.93412416
C       -1.62077777      -0.39250921       1.12568484
C       -2.12370410      -0.12069211      -0.86263982
O       -3.17643881       0.19973236      -1.20188741
H        2.09730051       1.84465506      -0.31002789
H        2.58640298      -0.29675223       0.57941178
H        2.27152166      -0.85658814      -1.06006233
H       -2.09993661       0.41763515       1.67079766
H       -2.01587546      -1.37007169       1.39901451
H       -0.59621617       0.00895344      -1.02001134
13
Frame=9 idx=009761 GeodesicLength=0.5875510061957497 rxn_smarts="[O:1]([C:2]([C:3]#[C:4][C:5]([C:6](=[O:7])[H:13])([H:11])[H:12])([H:9])[H:10])[H:8]>>[C-:6]#[O+:7].[O:1]([C:2]([C:3](=[C:4]=[C:5]([H:11])[H:12])[H:13])([H:9])[H:10])[H:8]"
O        2.38506736       1.14313650      -0.89444533
C        2.01139774      -0.09297856      -0.32199671
C        0.55740439      -0.17466383      -0.03580656
C       -0.25045210      -0.30471679       0.92355533
C       -1.61711689      -0.39221842       1.12198830
C       -2.15010178      -0.13123209      -0.87523586
O       -3.20464605       0.21103916      -1.18935817
H        2.10373305       1.84499259      -0.30385839
H        2.58296653      -0.29628528       0.59100621
H        2.28694180      -0.85655833      -1.05129150
H       -2.09245737       0.41743353       1.67123635
H       -2.00171768      -1.36998136       1.40994306
H       -0.61101900       0.00203287      -1.04573672
13
Frame=10 idx=009761 GeodesicLength=0.6524078136229725 rxn_smarts="[O:1]([C:2]([C:3]#[C:4][C:5]([C:6](=[O:7])[H:13])([H:11])[H:12])([H:9])[H:10])[H:8]>>[C-:6]#[O+:7].[O:1]([C:2]([C:3](=[C:4]=[C:5]([H:11])[H:12])[H:13])([H:9])[H:10])[H:8]"
O        2.39841423       1.14342308      -0.88475931
C        2.01781449      -0.09268078      -0.31674615
C        0.56021507      -0.17446395      -0.04824729
C       -0.24705896      -0.30015606       0.91288695
C       -1.61339244      -0.39183727       1.11814917
C       -2.17701002      -0.14156697      -0.88761185
O       -3.23261973       0.22170306      -1.17671298
H        2.11036656       1.84531178      -0.29745000
H        2.57948569      -0.29598961       0.60247289
H        2.30216166      -0.85648454      -1.04248520
H       -2.08480930       0.41730590       1.67160146
H       -1.98737609      -1.36958891       1.42051054
H       -0.62619116      -0.00497575      -1.07160822
13
Frame=11 idx=009761 GeodesicLength=0.7172409284216413 rxn_smarts="[O:1]([C:2]([C:3]#[C:4][C:5]([C:6](=[O:7])[H:13])([H:11])[H:12])([H:9])[H:10])[H:8]>>[C-:6]#[O+:7].[O:1]([C:2]([C:3](=[C:4]=[C:5]([H:11])[H:12])[H:13])([H:9])[H:10])[H:8]"
O        2.41184307       1.14371898      -0.87482171
C        2.02423400      -0.09239484      -0.31146563
C        0.56324070      -0.17409516      -0.06061043
C       -0.24363371      -0.29549887       0.90211265
C       -1.60960162      -0.39135090       1.11415996
C       -2.20444788      -0.15175441      -0.89976884
O       -3.26042652       0.23163525      -1.16394769
H        2.11726160       1.84560309      -0.29075023
H        2.57596506      -0.29591169       0.61380130
H        2.31716847      -0.85636290      -1.03367477
H       -2.07700523       0.41727495       1.67185517
H       -1.97283623      -1.36888158       1.43073502
H       -0.64176174      -0.01198193      -1.09762480
13
Frame=12 idx=009761 GeodesicLength=0.7820420473350637 rxn_smarts="[O:1]([C:2]([C:3]#[C:4][C:5]([C:6](=[O:7])[H:13])([H:11])[H:12])([H:9])[H:10])[H:8]>>[C-:6]#[O+:7].[O:1]([C:2]([C:3](=[C:4]=[C:5]([H:11])[H:12])[H:13])([H:9])[H:10])[H:8]"
O        2.42522301       1.14404070      -0.86471578
C        2.03069007      -0.09209357      -0.30610620
C        0.56651568      -0.17372163      -0.07289668
C       -0.24016190      -0.29089885       0.89121693
C       -1.60573670      -0.39081773       1.11000826
C       -2.23243124      -0.16169469      -0.91168005
O       -3.28797480       0.24136340      -1.15099729
H        2.12415031       1.84591036      -0.28393969
H        2.57243103      -0.29582791       0.62508951
H        2.33214442      -0.85621095      -1.02470972
H       -2.06896848       0.41728712       1.67203136
H       -1.95816963      -1.36790974       1.44055305
H       -0.65771178      -0.01942651      -1.12385370
13
Frame=13 idx=009761 GeodesicLength=0.8468129765483038 rxn_smarts="[O:1]([C:2]([C:3]#[C:4][C:5]([C:6](=[O:7])[H:13])([H:11])[H:12])([H:9])[H:10])[H:8]>>[C-:6]#[O+:7].[O:1]([C:2]([C:3](=[C:4]=[C:5]([H:11])[H:12])[H:13])([H:9])[H:10])[H:8]"
O        2.43856172       1.14439664      -0.85442929
C        2.03719370      -0.09177500      -0.30066643
C        0.57005033      -0.17335053      -0.08510986
C       -0.23663862      -0.28635794       0.88019284
C       -1.60179424      -0.39023687       1.10568662
C       -2.26098344      -0.17142980      -0.92334117
O       -3.31528165       0.25092462      -1.13785312
H        2.13103529       1.84623570      -0.27700082
H        2.56889101      -0.29574173       0.63634020
H        2.34710689      -0.85601958      -1.01559459
H       -2.06069724       0.41735482       1.67209985
H       -1.94337664      -1.36667260       1.44997667
H       -0.67406710      -0.02732773      -1.15030090
13
Frame=14 idx=009761 GeodesicLength=0.9115617524806656 rxn_smarts="[O:1]([C:2]([C:3]#[C:4][C:5]([C:6](=[O:7])[H:13])([H:11])[H:12])([H:9])[H:10])[H:8]>>[C-:6]#[O+:7].[O:1]([C:2]([C:3](=[C:4]=[C:5]([H:11])[H:12])[H:13])([H:9])[H:10])[H:8]"
O        2.45200233       1.14476296      -0.84388147
C        2.04374268      -0.09146344      -0.29517539
C        0.57383591      -0.17283645      -0.09725922
C       -0.23306913      -0.28172915       0.86903559
C       -1.59777489      -0.38955794       1.10118609
C       -2.29012822      -0.18109368      -0.93476236
O       -3.34250682       0.25990121      -1.12453222
H        2.13816365       1.84653984      -0.26977669
H        2.56533377      -0.29583439       0.64749619
H        2.36194331      -0.85578557      -1.00643861
H       -2.05226352       0.41752861       1.67198803
H       -1.92838885      -1.36513016       1.45905272
H       -0.69089022      -0.03530185      -1.17693266
13
Frame=15 idx=009761 GeodesicLength=0.9762884176230501 rxn_smarts="[O:1]([C:2]([C:3]#[C:4][C:5]([C:6](=[O:7])[H:13])([H:11])[H:12])([H:9])[H:10])[H:8]>>[C-:6]#[O+:7].[O:1]([C:2]([C:3](=[C:4]=[C:5]([H:11])[H:12])[H:13])([H:9])[H:10])[H:8]"
O        2.46545280       1.14515363      -0.83313583
C        2.05036462      -0.09113643      -0.28959286
C        0.57790183      -0.17230142      -0.10934716
C       -0.22944129      -0.27712879       0.85772907
C       -1.59367176      -0.38883055       1.09649194
C       -2.31989172      -0.19060517      -0.94592016
O       -3.36957794       0.26869454      -1.11097864
H        2.14534187       1.84685812      -0.26240889
H        2.56177645      -0.29593320       0.65863597
H        2.37679380      -0.85552102      -0.99711845
H       -2.04361070       0.41775918       1.67171959
H       -1.91325719      -1.36333260       1.46772234
H       -0.70818076      -0.04367629      -1.20379691
13
Frame=16 idx=009761 GeodesicLength=1.0410001958739523 rxn_smarts="[O:1]([C:2]([C:3]#[C:4][C:5]([C:6](=[O:7])[H:13])([H:11])[H:12])([H:9])[H:10])[H:8]>>[C-:6]#[O+:7].[O:1]([C:2]([C:3](=[C:4]=[C:5]([H:11])[H:12])[H:13])([H:9])[H:10])[H:8]"
O        2.47899602       1.14554717      -0.82215821
C        2.05706675      -0.09080610      -0.28392368
C        0.58225101      -0.17167054      -0.12138212
C       -0.22575643      -0.27247818       0.84626200
C       -1.58948316      -0.38803525       1.09159031
C       -2.35030273      -0.20003517      -0.95681251
O       -3.39659225       0.27711554      -1.09718253
H        2.15269799       1.84717139      -0.25483983
H        2.55821200      -0.29611073       0.66974886
H        2.39161959      -0.85523699      -0.98766293
H       -2.03477811       0.41806113       1.67125154
H       -1.89794175      -1.36127001       1.47599390
H       -0.72598892      -0.05225228      -1.23088482
