14
Frame=0 idx=005411 GeodesicLength=0.0 rxn_smarts="[C:1]([C:2]1=[C:3]([H:10])[C:4]([H:11])([H:12])[O:5][C:6]1([H:13])[H:14])([H:7])([H:8])[H:9]>>[C:1]([C:2]1=[C:3]=[C:4]([H:12])[O:5][C:6]1([H:13])[H:14])([H:7])([H:8])[H:9].[H:10][H:11]"
C       -1.84696383       0.32038549      -0.47581606
C       -0.43390784      -0.01870023      -0.16246597
C        0.70206287       0.65119992      -0.48407400
C        1.75116197      -0.13666622       0.00362059
O        1.39273654      -1.28227965       0.51429973
C       -0.05482225      -1.27556662       0.55779301
H       -2.36443718      -0.52052793      -0.94707197
H       -1.89161246       1.17687054      -1.14644099
H       -2.40764919       0.57251866       0.43009464
H        1.17775919       1.79740980      -0.35479466
H        1.91079276       2.15134700       0.43246162
H        2.81098086       0.08390271      -0.01707978
H       -0.34095851      -1.35050974       1.61331169
H       -0.40514294      -2.16938374       0.03616212
14
Frame=1 idx=005411 GeodesicLength=0.05294222323187054 rxn_smarts="[C:1]([C:2]1=[C:3]([H:10])[C:4]([H:11])([H:12])[O:5][C:6]1([H:13])[H:14])([H:7])([H:8])[H:9]>>[C:1]([C:2]1=[C:3]=[C:4]([H:12])[O:5][C:6]1([H:13])[H:14])([H:7])([H:8])[H:9].[H:10][H:11]"
C       -1.84729717       0.32059185      -0.47349637
C       -0.43374225      -0.02413998      -0.16771941
C        0.70124244       0.64569426      -0.49104182
C        1.75152234      -0.12219493       0.03446253
O        1.39136897      -1.27410227       0.53905516
C       -0.05517623      -1.28003424       0.55443360
H       -2.36851141      -0.51470786      -0.95055871
H       -1.89326140       1.18566556      -1.13298658
H       -2.40490880       0.56348017       0.43686893
H        1.17313607       1.81091501      -0.36985235
H        1.92279470       2.14461661       0.41933230
H        2.81412576       0.07743770      -0.02800746
H       -0.36056164      -1.35798693       1.60430959
H       -0.39073138      -2.17523497       0.02520059
14
Frame=2 idx=005411 GeodesicLength=0.10592369408402455 rxn_smarts="[C:1]([C:2]1=[C:3]([H:10])[C:4]([H:11])([H:12])[O:5][C:6]1([H:13])[H:14])([H:7])([H:8])[H:9]>>[C:1]([C:2]1=[C:3]=[C:4]([H:12])[O:5][C:6]1([H:13])[H:14])([H:7])([H:8])[H:9].[H:10][H:11]"
C       -1.84748785       0.32077600      -0.47132272
C       -0.43346850      -0.02958379      -0.17324724
C        0.70062501       0.64006544      -0.49827090
C        1.75154706      -0.10788281       0.06319130
O        1.38970696      -1.26559324       0.56312755
C       -0.05516749      -1.28421062       0.55121837
H       -2.37252108      -0.50897907      -0.95384707
H       -1.89464555       1.19415723      -1.11978435
H       -2.40192543       0.55463546       0.44340078
H        1.16872242       1.82442424      -0.38404286
H        1.93438319       2.13748823       0.40712284
H        2.81539773       0.07044466      -0.03802316
H       -0.37908775      -1.36482461       1.59532223
H       -0.37607874      -2.18091711       0.01515522
14
Frame=3 idx=005411 GeodesicLength=0.15880579611451878 rxn_smarts="[C:1]([C:2]1=[C:3]([H:10])[C:4]([H:11])([H:12])[O:5][C:6]1([H:13])[H:14])([H:7])([H:8])[H:9]>>[C:1]([C:2]1=[C:3]=[C:4]([H:12])[O:5][C:6]1([H:13])[H:14])([H:7])([H:8])[H:9].[H:10][H:11]"
C       -1.84760615       0.32085693      -0.46943029
C       -0.43312989      -0.03504300      -0.17924357
C        0.70005259       0.63443456      -0.50591706
C        1.75140312      -0.09421180       0.08850663
O        1.38781730      -1.25663996       0.58637407
C       -0.05477926      -1.28784733       0.54826622
H       -2.37657466      -0.50348061      -0.95688205
H       -1.89592410       1.20211832      -1.10711110
H       -2.39868586       0.54605202       0.44951610
H        1.16446624       1.83795251      -0.39677941
H        1.94541860       2.12926150       0.39676773
H        2.81525626       0.06325471      -0.04714074
H       -0.39630732      -1.37040460       1.58656168
H       -0.36140686      -2.18630324       0.00651181
14
Frame=4 idx=005411 GeodesicLength=0.21167004247671145 rxn_smarts="[C:1]([C:2]1=[C:3]([H:10])[C:4]([H:11])([H:12])[O:5][C:6]1([H:13])[H:14])([H:7])([H:8])[H:9]>>[C:1]([C:2]1=[C:3]=[C:4]([H:12])[O:5][C:6]1([H:13])[H:14])([H:7])([H:8])[H:9].[H:10][H:11]"
C       -1.84766017       0.32084330      -0.46782803
C       -0.43273434      -0.04057868      -0.18577356
C        0.69949596       0.62881626      -0.51405211
C        1.75118391      -0.08129548       0.11047070
O        1.38570383      -1.24740353       0.60870023
C       -0.05407521      -1.29100501       0.54557041
H       -2.38073443      -0.49822782      -0.95961737
H       -1.89710422       1.20954695      -1.09505655
H       -2.39515916       0.53782362       0.45524611
H        1.16021704       1.85162564      -0.40793959
H        1.95584926       2.12006238       0.38826131
H        2.81417115       0.05599388      -0.05538664
H       -0.41227365      -1.37470315       1.57810177
H       -0.34687995      -2.19149835      -0.00069668
14
Frame=5 idx=005411 GeodesicLength=0.26459325128758604 rxn_smarts="[C:1]([C:2]1=[C:3]([H:10])[C:4]([H:11])([H:12])[O:5][C:6]1([H:13])[H:14])([H:7])([H:8])[H:9]>>[C:1]([C:2]1=[C:3]=[C:4]([H:12])[O:5][C:6]1([H:13])[H:14])([H:7])([H:8])[H:9].[H:10][H:11]"
C       -1.84764543       0.32078900      -0.46639644
C       -0.43229992      -0.04618831      -0.19267083
C        0.69896783       0.62313514      -0.52262265
C        1.75091332      -0.06902684       0.12972260
O        1.38332999      -1.23798151       0.63027888
C       -0.05314915      -1.29386381       0.54305822
H       -2.38497910      -0.49309906      -0.96211597
H       -1.89813417       1.21663881      -1.08336326
H       -2.39140266       0.52986386       0.46074186
H        1.15598677       1.86547774      -0.41800375
H        1.96573136       2.11026323       0.38091235
H        2.81245956       0.04877590      -0.06253945
H       -0.42730242      -1.37818315       1.56984038
H       -0.33247599      -2.19660100      -0.00684197
14
Frame=6 idx=005411 GeodesicLength=0.317526424139676 rxn_smarts="[C:1]([C:2]1=[C:3]([H:10])[C:4]([H:11])([H:12])[O:5][C:6]1([H:13])[H:14])([H:7])([H:8])[H:9]>>[C:1]([C:2]1=[C:3]=[C:4]([H:12])[O:5][C:6]1([H:13])[H:14])([H:7])([H:8])[H:9].[H:10][H:11]"
C       -1.84755270       0.32071837      -0.46507098
C       -0.43183825      -0.05187396      -0.19982232
C        0.69847146       0.61733218      -0.53154658
C        1.75058199      -0.05729053       0.14683163
O        1.38067489      -1.22842840       0.65119643
C       -0.05205598      -1.29651479       0.54067530
H       -2.38928430      -0.48800849      -0.96441568
H       -1.89897433       1.22347882      -1.07188006
H       -2.38744275       0.52210870       0.46605692
H        1.15172467       1.87950789      -0.42720398
H        1.97513721       2.10009246       0.37425381
H        2.81030917       0.04161003      -0.06859931
H       -0.44156805      -1.38111045       1.56168248
H       -0.31818302      -2.20162183      -0.01215766
14
Frame=7 idx=005411 GeodesicLength=0.3704632162738229 rxn_smarts="[C:1]([C:2]1=[C:3]([H:10])[C:4]([H:11])([H:12])[O:5][C:6]1([H:13])[H:14])([H:7])([H:8])[H:9]>>[C:1]([C:2]1=[C:3]=[C:4]([H:12])[O:5][C:6]1([H:13])[H:14])([H:7])([H:8])[H:9].[H:10][H:11]"
C       -1.84738332       0.32063141      -0.46384940
C       -0.43136350      -0.05761868      -0.20714342
C        0.69799375       0.61141326      -0.54074277
C        1.75020215      -0.04603157       0.16210425
O        1.37775006      -1.21881242       0.67143014
C       -0.05082973      -1.29899178       0.53842622
H       -2.39361712      -0.48295276      -0.96656149
H       -1.89961012       1.23007129      -1.06060944
H       -2.38333065       0.51454067       0.47117398
H        1.14739244       1.89376288      -0.43555914
H        1.98412582       2.08964213       0.36813953
H        2.80785322       0.03448371      -0.07374913
H       -0.45512366      -1.38357287       1.55364917
H       -0.30405934      -2.20656526      -0.01670849
14
Frame=8 idx=005411 GeodesicLength=0.42338113574214975 rxn_smarts="[C:1]([C:2]1=[C:3]([H:10])[C:4]([H:11])([H:12])[O:5][C:6]1([H:13])[H:14])([H:7])([H:8])[H:9]>>[C:1]([C:2]1=[C:3]=[C:4]([H:12])[O:5][C:6]1([H:13])[H:14])([H:7])([H:8])[H:9].[H:10][H:11]"
C       -1.84712603       0.32055165      -0.46267536
C       -0.43087607      -0.06344252      -0.21458512
C        0.69755690       0.60531651      -0.55016758
C        1.74974876      -0.03513586       0.17598387
O        1.37453234      -1.20912894       0.69112079
C       -0.04950503      -1.30137381       0.53625470
H       -2.39797862      -0.47785890      -0.96855878
H       -1.90000183       1.23649428      -1.04942069
H       -2.37905868       0.50712416       0.47615813
H        1.14294837       1.90823117      -0.44324942
H        1.99277420       2.07909121       0.36218402
H        2.80515473       0.02738232      -0.07797551
H       -0.46814214      -1.38579255       1.54563281
H       -0.29002687      -2.21145874      -0.02070186
14
Frame=9 idx=005411 GeodesicLength=0.476309534397635 rxn_smarts="[C:1]([C:2]1=[C:3]([H:10])[C:4]([H:11])([H:12])[O:5][C:6]1([H:13])[H:14])([H:7])([H:8])[H:9]>>[C:1]([C:2]1=[C:3]=[C:4]([H:12])[O:5][C:6]1([H:13])[H:14])([H:7])([H:8])[H:9].[H:10][H:11]"
C       -1.84677958       0.32049060      -0.46153381
C       -0.43038296      -0.06934204      -0.22209994
C        0.69716336       0.59902900      -0.55978630
C        1.74921742      -0.02455812       0.18869386
O        1.37102358      -1.19941136       0.71030836
C       -0.04810248      -1.30370325       0.53415615
H       -2.40234918      -0.47270123      -0.97043898
H       -1.90013261       1.24278761      -1.03827494
H       -2.37465639       0.49983866       0.48102483
H        1.13837933       1.92294421      -0.45035790
H        2.00111956       2.06852147       0.35624035
H        2.80227236       0.02030307      -0.08134575
H       -0.48069426      -1.38787464       1.53762751
H       -0.27607815      -2.21632398      -0.02421344
14
Frame=10 idx=005411 GeodesicLength=0.5292372936528854 rxn_smarts="[C:1]([C:2]1=[C:3]([H:10])[C:4]([H:11])([H:12])[O:5][C:6]1([H:13])[H:14])([H:7])([H:8])[H:9]>>[C:1]([C:2]1=[C:3]=[C:4]([H:12])[O:5][C:6]1([H:13])[H:14])([H:7])([H:8])[H:9].[H:10][H:11]"
C       -1.84634049       0.32044968      -0.46041879
C       -0.42988779      -0.07531926      -0.22966253
C        0.69681517       0.59253712      -0.56956994
C        1.74860411      -0.01425623       0.20040312
O        1.36722581      -1.18967030       0.72901693
C       -0.04663811      -1.30599833       0.53212528
H       -2.40671703      -0.46746565      -0.97222203
H       -1.89998695       1.24896503      -1.02714862
H       -2.37013586       0.49266550       0.48577531
H        1.13365931       1.93791612      -0.45690063
H        2.00920168       2.05797280       0.35020637
H        2.79924127       0.01323731      -0.08393877
H       -0.49282710      -1.38986905       1.52962385
H       -0.26221400      -2.22116474      -0.02728953
14
Frame=11 idx=005411 GeodesicLength=0.5821617199084781 rxn_smarts="[C:1]([C:2]1=[C:3]([H:10])[C:4]([H:11])([H:12])[O:5][C:6]1([H:13])[H:14])([H:7])([H:8])[H:9]>>[C:1]([C:2]1=[C:3]=[C:4]([H:12])[O:5][C:6]1([H:13])[H:14])([H:7])([H:8])[H:9].[H:10][H:11]"
C       -1.84580637       0.32042722      -0.45933495
C       -0.42939289      -0.08137683      -0.23725900
C        0.69651255       0.58583688      -0.57949640
C        1.74791119      -0.00420581       0.21122415
O        1.36314891      -1.17992086       0.74725223
C       -0.04512328      -1.30826866       0.53016512
H       -2.41107383      -0.46215187      -0.97391946
H       -1.89955394       1.25502511      -1.01605094
H       -2.36550678       0.48560356       0.49040085
H        1.12875718       1.95317155      -0.46284758
H        2.01705092       2.04746526       0.34403432
H        2.79608985       0.00617328      -0.08585228
H       -0.50456781      -1.39179301       1.52163022
H       -0.24844568      -2.22598582      -0.02994629
14
Frame=12 idx=005411 GeodesicLength=0.6350822260757525 rxn_smarts="[C:1]([C:2]1=[C:3]([H:10])[C:4]([H:11])([H:12])[O:5][C:6]1([H:13])[H:14])([H:7])([H:8])[H:9]>>[C:1]([C:2]1=[C:3]=[C:4]([H:12])[O:5][C:6]1([H:13])[H:14])([H:7])([H:8])[H:9].[H:10][H:11]"
C       -1.84517472       0.32042249      -0.45828580
C       -0.42889970      -0.08751733      -0.24487813
C        0.69625656       0.57892190      -0.58955082
C        1.74714171       0.00561296       0.22124832
O        1.35880343      -1.17017564       0.76502140
C       -0.04356739      -1.31052249       0.52827838
H       -2.41541206      -0.45675820      -0.97554173
H       -1.89882378       1.26096843      -1.00498848
H       -2.36077704       0.47865158       0.49489545
H        1.12364736       1.96873150      -0.46817288
H        2.02468935       2.03701346       0.33768174
H        2.79283888      -0.00089649      -0.08716415
H       -0.51594020      -1.39366026       1.51365462
H       -0.23478238      -2.23079191      -0.03219793
14
Frame=13 idx=005411 GeodesicLength=0.6879988996028266 rxn_smarts="[C:1]([C:2]1=[C:3]([H:10])[C:4]([H:11])([H:12])[O:5][C:6]1([H:13])[H:14])([H:7])([H:8])[H:9]>>[C:1]([C:2]1=[C:3]=[C:4]([H:12])[O:5][C:6]1([H:13])[H:14])([H:7])([H:8])[H:9].[H:10][H:11]"
C       -1.84444619       0.32043160      -0.45728197
C       -0.42841026      -0.09373971      -0.25250765
C        0.69604554       0.57179294      -0.59971861
C        1.74630403       0.01521035       0.23053560
O        1.35420550      -1.16044716       0.78232526
C       -0.04197759      -1.31276058       0.52647577
H       -2.41971958      -0.45128846      -0.97711150
H       -1.89779284       1.26679271      -0.99397545
H       -2.35596497       0.47180190       0.49924415
H        1.11830099       1.98462193      -0.47281950
H        2.03214517       2.02661879       0.33112330
H        2.78950605      -0.00798598      -0.08796720
H       -0.52695638      -1.39546405       1.50571903
H       -0.22123949      -2.23558431      -0.03404123
14
Frame=14 idx=005411 GeodesicLength=0.7409083199260071 rxn_smarts="[C:1]([C:2]1=[C:3]([H:10])[C:4]([H:11])([H:12])[O:5][C:6]1([H:13])[H:14])([H:7])([H:8])[H:9]>>[C:1]([C:2]1=[C:3]=[C:4]([H:12])[O:5][C:6]1([H:13])[H:14])([H:7])([H:8])[H:9].[H:10][H:11]"
C       -1.84361921       0.32044578      -0.45633307
C       -0.42792772      -0.10003910      -0.26012769
C        0.69587466       0.56445515      -0.60997730
C        1.74540458       0.02459821       0.23913757
O        1.34936486      -1.15073579       0.79917527
C       -0.04036306      -1.31497938       0.52476919
H       -2.42397500      -0.44575013      -0.97865913
H       -1.89645521       1.27249313      -0.98301534
H       -2.35109214       0.46503246       0.50342661
H        1.11269151       2.00087095      -0.47671758
H        2.03946759       2.01627905       0.32431301
H        2.78609459      -0.01511387      -0.08835650
H       -0.53763490      -1.39719926       1.49783984
H       -0.20783056      -2.24035721      -0.03547488
14
Frame=15 idx=005411 GeodesicLength=0.7938183280706983 rxn_smarts="[C:1]([C:2]1=[C:3]([H:10])[C:4]([H:11])([H:12])[O:5][C:6]1([H:13])[H:14])([H:7])([H:8])[H:9]>>[C:1]([C:2]1=[C:3]=[C:4]([H:12])[O:5][C:6]1([H:13])[H:14])([H:7])([H:8])[H:9].[H:10][H:11]"
C       -1.84268711       0.32047718      -0.45542321
C       -0.42744963      -0.10643609      -0.26775477
C        0.69575400       0.55687534      -0.62034030
C        1.74443001       0.03380668       0.24714943
O        1.34426780      -1.14101513       0.81564734
C       -0.03872934      -1.31720277       0.52313948
H       -2.42818666      -0.44010553      -0.98018639
H       -1.89479319       1.27810712      -0.97205195
H       -2.34614137       0.45833013       0.50747253
H        1.10678915       2.01748122      -0.47989750
H        2.04667997       2.00601988       0.31711560
H        2.78260652      -0.02227953      -0.08829411
H       -0.54803968      -1.39892786       1.48997509
H       -0.19450046      -2.24513065      -0.03655125
14
Frame=16 idx=005411 GeodesicLength=0.8467310946029265 rxn_smarts="[C:1]([C:2]1=[C:3]([H:10])[C:4]([H:11])([H:12])[O:5][C:6]1([H:13])[H:14])([H:7])([H:8])[H:9]>>[C:1]([C:2]1=[C:3]=[C:4]([H:12])[O:5][C:6]1([H:13])[H:14])([H:7])([H:8])[H:9].[H:10][H:11]"
C       -1.84165168       0.32052020      -0.45456835
C       -0.42697732      -0.11293056      -0.27538438
C        0.69568141       0.54905580      -0.63080081
C        1.74339382       0.04283671       0.25458976
O        1.33893473      -1.13129477       0.83173218
C       -0.03707942      -1.31942458       0.52160074
H       -2.43234768      -0.43436459      -0.98170974
H       -1.89280681       1.28362243      -0.96111534
H       -2.34112773       0.45169748       0.51136219
H        1.10056544       2.03447841      -0.48226795
H        2.05380149       1.99582767       0.30952322
H        2.77905321      -0.02949637      -0.08786391
H       -0.55817032      -1.40062477       1.48215313
H       -0.18126915      -2.24990306      -0.03725076
