9
Frame=0 idx=000016 GeodesicLength=0.0 rxn_smarts="[O:1]([c+:2]1[n-:3][c:4]([H:8])[n:5][n:6]1[H:9])[H:7]>>[O:1]([C:2]([N:3]=[C:4]=[N:5][H:8])=[N:6][H:9])[H:7]"
O       -1.96563353      -0.40763177       0.12465407
C       -0.70026535       0.02219073       0.09501362
N        0.21867426      -0.95578780      -0.31025235
C        1.34236257      -0.35113054      -0.27094839
N        1.98703913       0.67218201      -0.04825529
N       -0.32274859       1.19287575       0.39550124
H       -1.96657783      -1.33069201      -0.15061400
H        2.46008523      -0.67445467      -0.50938488
H       -1.05293586       1.83244829       0.67428597
9
Frame=1 idx=000016 GeodesicLength=0.0528383766766597 rxn_smarts="[O:1]([c+:2]1[n-:3][c:4]([H:8])[n:5][n:6]1[H:9])[H:7]>>[O:1]([C:2]([N:3]=[C:4]=[N:5][H:8])=[N:6][H:9])[H:7]"
O       -1.97087032      -0.40509649       0.12713058
C       -0.70320289       0.01667447       0.09074342
N        0.21311839      -0.95943902      -0.31559465
C        1.34399155      -0.36876635      -0.25164073
N        1.96840202       0.67221649      -0.04581981
N       -0.31433446       1.18607947       0.39018868
H       -1.97875019      -1.32802642      -0.14839581
H        2.47837162      -0.64703546      -0.51768532
H       -1.03672573       1.83339331       0.67107364
9
Frame=2 idx=000016 GeodesicLength=0.1059802075788181 rxn_smarts="[O:1]([c+:2]1[n-:3][c:4]([H:8])[n:5][n:6]1[H:9])[H:7]>>[O:1]([C:2]([N:3]=[C:4]=[N:5][H:8])=[N:6][H:9])[H:7]"
O       -1.97576936      -0.40254083       0.12935951
C       -0.70689857       0.01357457       0.07860062
N        0.20841193      -0.96419437      -0.31655799
C        1.34546286      -0.38532688      -0.23518518
N        1.94990440       0.67210864      -0.04476858
N       -0.30503003       1.17678413       0.39327210
H       -1.99038457      -1.32564882      -0.14522458
H        2.49512376      -0.61962828      -0.52504680
H       -1.02082042       1.83487183       0.66555091
9
Frame=3 idx=000016 GeodesicLength=0.1590434954321276 rxn_smarts="[O:1]([c+:2]1[n-:3][c:4]([H:8])[n:5][n:6]1[H:9])[H:7]>>[O:1]([C:2]([N:3]=[C:4]=[N:5][H:8])=[N:6][H:9])[H:7]"
O       -1.97945503      -0.40117880       0.13573722
C       -0.71128818       0.01277626       0.05897966
N        0.20348509      -0.96740083      -0.32179289
C        1.34644321      -0.40125997      -0.22110492
N        1.93285853       0.66875205      -0.03451271
N       -0.29667469       1.16934354       0.38956900
H       -2.00079012      -1.32463506      -0.13713521
H        2.51006033      -0.59179017      -0.53233139
H       -1.00463916       1.83539296       0.66259124
9
Frame=4 idx=000016 GeodesicLength=0.21191294900398733 rxn_smarts="[O:1]([c+:2]1[n-:3][c:4]([H:8])[n:5][n:6]1[H:9])[H:7]>>[O:1]([C:2]([N:3]=[C:4]=[N:5][H:8])=[N:6][H:9])[H:7]"
O       -1.98243845      -0.40011951       0.14336264
C       -0.71538305       0.01154550       0.04081310
N        0.19863137      -0.97017624      -0.32799721
C        1.34704267      -0.41643565      -0.20967876
N        1.91635465       0.66434984      -0.02231592
N       -0.28864708       1.16248800       0.38355966
H       -2.01082208      -1.32345504      -0.12916294
H        2.52373832      -0.56385170      -0.53829325
H       -0.98847634       1.83565481       0.65971267
9
Frame=5 idx=000016 GeodesicLength=0.26494803203680795 rxn_smarts="[O:1]([c+:2]1[n-:3][c:4]([H:8])[n:5][n:6]1[H:9])[H:7]>>[O:1]([C:2]([N:3]=[C:4]=[N:5][H:8])=[N:6][H:9])[H:7]"
O       -1.98586196      -0.39751398       0.14614370
C       -0.71910564       0.00981601       0.02432314
N        0.19395068      -0.97316179      -0.33348620
C        1.34750986      -0.43129808      -0.19998659
N        1.90030584       0.65912795      -0.00883980
N       -0.28054237       1.15516308       0.37865203
H       -2.02004796      -1.32301992      -0.11809698
H        2.53608286      -0.53496675      -0.54505972
H       -0.97229131       1.83585348       0.65635041
9
Frame=6 idx=000016 GeodesicLength=0.31814408323885524 rxn_smarts="[O:1]([c+:2]1[n-:3][c:4]([H:8])[n:5][n:6]1[H:9])[H:7]>>[O:1]([C:2]([N:3]=[C:4]=[N:5][H:8])=[N:6][H:9])[H:7]"
O       -1.98909835      -0.39474761       0.14873185
C       -0.72243994       0.00743332       0.00966887
N        0.18933691      -0.97644261      -0.33863864
C        1.34791586      -0.44615711      -0.19217973
N        1.88514665       0.65182082       0.00995607
N       -0.27226893       1.14735182       0.37457297
H       -2.02902151      -1.32251287      -0.10648357
H        2.54659245      -0.50372112      -0.55494574
H       -0.95616314       1.83697537       0.64931793
9
Frame=7 idx=000016 GeodesicLength=0.37146763316185827 rxn_smarts="[O:1]([c+:2]1[n-:3][c:4]([H:8])[n:5][n:6]1[H:9])[H:7]>>[O:1]([C:2]([N:3]=[C:4]=[N:5][H:8])=[N:6][H:9])[H:7]"
O       -1.99217366      -0.39174246       0.15081356
C       -0.72583444       0.00522377      -0.00551094
N        0.18445327      -0.97890190      -0.34654355
C        1.34793399      -0.46072285      -0.18643886
N        1.87024187       0.64357257       0.02966897
N       -0.26422773       1.14009264       0.36834610
H       -2.03715567      -1.32253710      -0.09206527
H        2.55657586      -0.47243282      -0.56202348
H       -0.93981349       1.83744815       0.64375347
9
Frame=8 idx=000016 GeodesicLength=0.42481424568183235 rxn_smarts="[O:1]([c+:2]1[n-:3][c:4]([H:8])[n:5][n:6]1[H:9])[H:7]>>[O:1]([C:2]([N:3]=[C:4]=[N:5][H:8])=[N:6][H:9])[H:7]"
O       -1.99516029      -0.38858439       0.15259467
C       -0.72908132       0.00272271      -0.01977908
N        0.17953289      -0.98132637      -0.35488049
C        1.34774824      -0.47497908      -0.18297251
N        1.85555180       0.63433554       0.05029030
N       -0.25614430       1.13261060       0.36238387
H       -2.04492140      -1.32247094      -0.07693561
H        2.56582927      -0.44033099      -0.56802622
H       -0.92335489       1.83802292       0.63732507
9
Frame=9 idx=000016 GeodesicLength=0.47827985893988867 rxn_smarts="[O:1]([c+:2]1[n-:3][c:4]([H:8])[n:5][n:6]1[H:9])[H:7]>>[O:1]([C:2]([N:3]=[C:4]=[N:5][H:8])=[N:6][H:9])[H:7]"
O       -1.99778076      -0.38576525       0.15568887
C       -0.73235873       0.00010849      -0.03346497
N        0.17432527      -0.98307413      -0.36560613
C        1.34721604      -0.48900647      -0.18190333
N        1.84101182       0.62373038       0.07247594
N       -0.24805468       1.12501280       0.35644061
H       -2.05218600      -1.32242333      -0.06093931
H        2.57460564      -0.40753532      -0.57215912
H       -0.90677862       1.83895283       0.62946742
9
Frame=10 idx=000016 GeodesicLength=0.5318365435642112 rxn_smarts="[O:1]([c+:2]1[n-:3][c:4]([H:8])[n:5][n:6]1[H:9])[H:7]>>[O:1]([C:2]([N:3]=[C:4]=[N:5][H:8])=[N:6][H:9])[H:7]"
O       -2.00038259      -0.38280774       0.15820540
C       -0.73580891      -0.00230342      -0.04729051
N        0.16874726      -0.98385633      -0.37928150
C        1.34624536      -0.50263578      -0.18340321
N        1.82634065       0.61221246       0.09456794
N       -0.24006749       1.11727548       0.35073785
H       -2.05840644      -1.32280417      -0.04220628
H        2.58343443      -0.37490055      -0.57291563
H       -0.89010228       1.83982005       0.62158595
9
Frame=11 idx=000016 GeodesicLength=0.5854251962253344 rxn_smarts="[O:1]([c+:2]1[n-:3][c:4]([H:8])[n:5][n:6]1[H:9])[H:7]>>[O:1]([C:2]([N:3]=[C:4]=[N:5][H:8])=[N:6][H:9])[H:7]"
O       -2.00328490      -0.37948123       0.15872223
C       -0.73945258      -0.00441355      -0.06125359
N        0.16296096      -0.98380366      -0.39475677
C        1.34491275      -0.51552399      -0.18698987
N        1.81130708       0.60120896       0.11299509
N       -0.23235741       1.10927204       0.34605606
H       -2.06345783      -1.32347592      -0.02094677
H        2.59293080      -0.34393926      -0.56904341
H       -0.87355886       1.84015661       0.61521703
9
Frame=12 idx=000016 GeodesicLength=0.6391610126558795 rxn_smarts="[O:1]([c+:2]1[n-:3][c:4]([H:8])[n:5][n:6]1[H:9])[H:7]>>[O:1]([C:2]([N:3]=[C:4]=[N:5][H:8])=[N:6][H:9])[H:7]"
O       -2.00525119      -0.37708938       0.16305501
C       -0.74332669      -0.00650054      -0.07520940
N        0.15662803      -0.98289500      -0.41346828
C        1.34307911      -0.52844678      -0.19371861
N        1.79637522       0.58658387       0.13762179
N       -0.22455745       1.10179826       0.33906051
H       -2.06772725      -1.32409087       0.00112052
H        2.60137554      -0.31058810      -0.56465479
H       -0.85659532       1.84122855       0.60619326
9
Frame=13 idx=000016 GeodesicLength=0.693007199992769 rxn_smarts="[O:1]([c+:2]1[n-:3][c:4]([H:8])[n:5][n:6]1[H:9])[H:7]>>[O:1]([C:2]([N:3]=[C:4]=[N:5][H:8])=[N:6][H:9])[H:7]"
O       -2.00677227      -0.37499259       0.16839856
C       -0.74755651      -0.00822475      -0.08976412
N        0.14975851      -0.98086395      -0.43536149
C        1.34067998      -0.54089794      -0.20367343
N        1.78097069       0.56967074       0.16416440
N       -0.21684632       1.09478205       0.33041691
H       -2.07046667      -1.32497651       0.02583013
H        2.60964873      -0.27677181      -0.55700622
H       -0.83941615       1.84227474       0.59699526
9
Frame=14 idx=000016 GeodesicLength=0.7469479751733838 rxn_smarts="[O:1]([c+:2]1[n-:3][c:4]([H:8])[n:5][n:6]1[H:9])[H:7]>>[O:1]([C:2]([N:3]=[C:4]=[N:5][H:8])=[N:6][H:9])[H:7]"
O       -2.00798957      -0.37301819       0.17391469
C       -0.75208232      -0.00962377      -0.10477661
N        0.14252900      -0.97805910      -0.45900317
C        1.33786930      -0.55262176      -0.21644455
N        1.76491143       0.55126503       0.19050378
N       -0.20926235       1.08814197       0.32054636
H       -2.07167717      -1.32590566       0.05258862
H        2.61783993      -0.24317865      -0.54580758
H       -0.82213824       1.84300014       0.58847846
9
Frame=15 idx=000016 GeodesicLength=0.8009484976379758 rxn_smarts="[O:1]([c+:2]1[n-:3][c:4]([H:8])[n:5][n:6]1[H:9])[H:7]>>[O:1]([C:2]([N:3]=[C:4]=[N:5][H:8])=[N:6][H:9])[H:7]"
O       -2.00884514      -0.37124350       0.18000989
C       -0.75674675      -0.01096001      -0.11952574
N        0.13518287      -0.97507323      -0.48249952
C        1.33492028      -0.56348220      -0.23131435
N        1.74830484       0.53207312       0.21532484
N       -0.20174802       1.08169217       0.31013589
H       -2.07199175      -1.32652167       0.07927448
H        2.62571326      -0.20995554      -0.53183976
H       -0.80478957       1.84347084       0.58043428
9
Frame=16 idx=000016 GeodesicLength=0.8551411099298415 rxn_smarts="[O:1]([c+:2]1[n-:3][c:4]([H:8])[n:5][n:6]1[H:9])[H:7]>>[O:1]([C:2]([N:3]=[C:4]=[N:5][H:8])=[N:6][H:9])[H:7]"
O       -2.00901813      -0.36980867       0.18761059
C       -0.76171960      -0.01207133      -0.13457615
N        0.12736711      -0.97147631      -0.50756108
C        1.33162455      -0.57330111      -0.24989272
N        1.73077905       0.51007763       0.24178098
N       -0.19416640       1.07565556       0.29811790
H       -2.07078247      -1.32708090       0.10741774
H        2.63300264      -0.17600407      -0.51472320
H       -0.78708676       1.84400920       0.57182594
