13
Frame=0 idx=002021 GeodesicLength=0.0 rxn_smarts="[C:1]([C@@:2]([O:3][H:10])([C:4]([O:5][H:13])([H:11])[H:12])[H:9])([H:6])([H:7])[H:8]>>[C:1]([C:2]([O:3][H:10])([H:9])[H:12])([H:6])([H:7])[H:8].[C:4]([O:5][H:13])[H:11]"
C       -1.53087331       0.29676122       0.22199061
C       -0.41304289      -0.69718323       0.04753214
O       -0.04580249      -0.98359011      -1.23830753
C        1.38340594       0.46746384       0.67410203
O        1.98336520       0.51188246      -0.55380816
H       -1.34159289       1.20439153      -0.35275919
H       -1.65083269       0.56445788       1.27379986
H       -2.47166438      -0.13617648      -0.12909371
H       -0.61244782      -1.63708950       0.57344719
H        0.57841171      -0.29716585      -1.53229944
H        0.73264476       1.34282835       0.73425438
H        0.68004921      -0.51934729       0.83530195
H        2.70837968      -0.11723283      -0.55416016
13
Frame=1 idx=002021 GeodesicLength=0.0829645878283035 rxn_smarts="[C:1]([C@@:2]([O:3][H:10])([C:4]([O:5][H:13])([H:11])[H:12])[H:9])([H:6])([H:7])[H:8]>>[C:1]([C:2]([O:3][H:10])([H:9])[H:12])([H:6])([H:7])[H:8].[C:4]([O:5][H:13])[H:11]"
C       -1.54812128       0.28818029       0.23514169
C       -0.41121665      -0.68131161       0.04173693
O       -0.07103784      -0.94633825      -1.25843799
C        1.38769928       0.48499999       0.65882799
O        2.02079932       0.47630630      -0.55195431
H       -1.38277195       1.20569811      -0.33126121
H       -1.66561330       0.54206188       1.29060898
H       -2.48325386      -0.15812002      -0.11385323
H       -0.60096754      -1.63507829       0.54728664
H        0.58954277      -0.29350041      -1.54462791
H        0.75167137       1.37341309       0.67662143
H        0.66758222      -0.50500019       0.85754454
H        2.74568745      -0.15131089      -0.50763355
13
Frame=2 idx=002021 GeodesicLength=0.16498944556478226 rxn_smarts="[C:1]([C@@:2]([O:3][H:10])([C:4]([O:5][H:13])([H:11])[H:12])[H:9])([H:6])([H:7])[H:8]>>[C:1]([C:2]([O:3][H:10])([H:9])[H:12])([H:6])([H:7])[H:8].[C:4]([O:5][H:13])[H:11]"
C       -1.56481075       0.27965630       0.24836730
C       -0.40964360      -0.66508025       0.03592666
O       -0.09667347      -0.90798881      -1.27785791
C        1.39245900       0.50201755       0.64229893
O        2.05563597       0.44004439      -0.54961875
H       -1.42199358       1.20741267      -0.30742838
H       -1.68086953       0.51798208       1.30757833
H       -2.49388067      -0.17882369      -0.10054860
H       -0.58912700      -1.63210725       0.52103639
H        0.60112191      -0.29408363      -1.55712911
H        0.77206677       1.40172985       0.61808004
H        0.65415513      -0.48923447       0.87979258
H        2.78155981      -0.18152472      -0.46049748
13
Frame=3 idx=002021 GeodesicLength=0.24625057231677402 rxn_smarts="[C:1]([C@@:2]([O:3][H:10])([C:4]([O:5][H:13])([H:11])[H:12])[H:9])([H:6])([H:7])[H:8]>>[C:1]([C:2]([O:3][H:10])([H:9])[H:12])([H:6])([H:7])[H:8].[C:4]([O:5][H:13])[H:11]"
C       -1.58102365       0.27124804       0.26164452
C       -0.40841511      -0.64844352       0.03014937
O       -0.12260184      -0.86840981      -1.29646879
C        1.39772559       0.51832187       0.62460506
O        2.08793329       0.40315374      -0.54683602
H       -1.45924160       1.20963018      -0.28121203
H       -1.69671494       0.49208644       1.32464416
H       -2.50369721      -0.19808502      -0.08931844
H       -0.57707925      -1.62813238       0.49469781
H        0.61295589      -0.29958475      -1.56964019
H        0.79388818       1.42766075       0.55891172
H        0.63984264      -0.47218738       0.90189478
H        2.81642800      -0.20725817      -0.41307194
13
Frame=4 idx=002021 GeodesicLength=0.3272242206512497 rxn_smarts="[C:1]([C@@:2]([O:3][H:10])([C:4]([O:5][H:13])([H:11])[H:12])[H:9])([H:6])([H:7])[H:8]>>[C:1]([C:2]([O:3][H:10])([H:9])[H:12])([H:6])([H:7])[H:8].[C:4]([O:5][H:13])[H:11]"
C       -1.59691892       0.26299861       0.27496252
C       -0.40766375      -0.63136293       0.02446371
O       -0.14866474      -0.82740031      -1.31425161
C        1.40361827       0.53376942       0.60587896
O        2.11790720       0.36564388      -0.54364696
H       -1.49456756       1.21243646      -0.25258461
H       -1.71332959       0.46422081       1.34179810
H       -2.51297655      -0.21574173      -0.08030476
H       -0.56507993      -1.62315796       0.46826256
H        0.62478250      -0.31067312      -1.58201531
H        0.81727751       1.45116009       0.49934522
H        0.62473423      -0.45399860       0.92379682
H        2.85088133      -0.22789461      -0.36570463
13
Frame=5 idx=002021 GeodesicLength=0.40694139477670777 rxn_smarts="[C:1]([C@@:2]([O:3][H:10])([C:4]([O:5][H:13])([H:11])[H:12])[H:9])([H:6])([H:7])[H:8]>>[C:1]([C:2]([O:3][H:10])([H:9])[H:12])([H:6])([H:7])[H:8].[C:4]([O:5][H:13])[H:11]"
C       -1.61234230       0.25496163       0.28821886
C       -0.40727249      -0.61380426       0.01894904
O       -0.17421080      -0.78479992      -1.33083899
C        1.40988027       0.54813921       0.58619108
O        2.14531357       0.32747932      -0.53989376
H       -1.52786408       1.21581558      -0.22147777
H       -1.73065103       0.43442564       1.35863111
H       -2.52136979      -0.23160962      -0.07366671
H       -0.55300120      -1.61710815       0.44159205
H        0.63600458      -0.32763247      -1.59362659
H        0.84205880       1.47215164       0.43970286
H        0.60881712      -0.43479693       0.94528316
H        2.88463735      -0.24322168      -0.31906435
13
Frame=6 idx=002021 GeodesicLength=0.4865809456925692 rxn_smarts="[C:1]([C@@:2]([O:3][H:10])([C:4]([O:5][H:13])([H:11])[H:12])[H:9])([H:6])([H:7])[H:8]>>[C:1]([C:2]([O:3][H:10])([H:9])[H:12])([H:6])([H:7])[H:8].[C:4]([O:5][H:13])[H:11]"
C       -1.62760108       0.24715196       0.30129227
C       -0.40744071      -0.59581613       0.01381524
O       -0.19892374      -0.74056894      -1.34619976
C        1.41694952       0.56124111       0.56587026
O        2.17059544       0.28870331      -0.53569771
H       -1.55923478       1.21976020      -0.18819370
H       -1.74905886       0.40260726       1.37507545
H       -2.52940786      -0.24556384      -0.06972767
H       -0.54135753      -1.61007612       0.41497633
H        0.64591728      -0.35068641      -1.60440018
H        0.86862972       1.49055829       0.38045016
H        0.59229604      -0.41481878       0.96662896
H        2.91863656      -0.25249190      -0.27388965
13
Frame=7 idx=002021 GeodesicLength=0.5658364889141632 rxn_smarts="[C:1]([C@@:2]([O:3][H:10])([C:4]([O:5][H:13])([H:11])[H:12])[H:9])([H:6])([H:7])[H:8]>>[C:1]([C:2]([O:3][H:10])([H:9])[H:12])([H:6])([H:7])[H:8].[C:4]([O:5][H:13])[H:11]"
C       -1.64267009       0.23957479       0.31396279
C       -0.40806290      -0.57744843       0.00930900
O       -0.22202947      -0.69490199      -1.35993773
C        1.42487261       0.57283048       0.54516609
O        2.19373887       0.24917288      -0.53096124
H       -1.58866753       1.22411043      -0.15304064
H       -1.76871340       0.36886886       1.39065351
H       -2.53692469      -0.25753150      -0.06879933
H       -0.53017096      -1.60203799       0.38867155
H        0.65344399      -0.37915654      -1.61388211
H        0.89701916       1.50625991       0.32205419
H        0.57524095      -0.39416101       0.98798756
H        2.95292346      -0.25557988      -0.23118363
13
Frame=8 idx=002021 GeodesicLength=0.6449975650703046 rxn_smarts="[C:1]([C@@:2]([O:3][H:10])([C:4]([O:5][H:13])([H:11])[H:12])[H:9])([H:6])([H:7])[H:8]>>[C:1]([C:2]([O:3][H:10])([H:9])[H:12])([H:6])([H:7])[H:8].[C:4]([O:5][H:13])[H:11]"
C       -1.65765573       0.23220429       0.32601012
C       -0.40907050      -0.55880800       0.00572255
O       -0.24288120      -0.64833958      -1.37178936
C        1.43385911       0.58268369       0.52442672
O        2.21494105       0.20856277      -0.52556983
H       -1.61625260       1.22863894      -0.11646613
H       -1.78994828       0.33335442       1.40499057
H       -2.54395452      -0.26753346      -0.07119994
H       -0.51957061      -1.59300607       0.36315994
H        0.65751194      -0.41173391      -1.62193534
H        0.92743656       1.51915317       0.26494376
H        0.55770594      -0.37281938       1.00972304
H        2.98787884      -0.25235689      -0.19201610
13
Frame=9 idx=002021 GeodesicLength=0.7235569069429356 rxn_smarts="[C:1]([C@@:2]([O:3][H:10])([C:4]([O:5][H:13])([H:11])[H:12])[H:9])([H:6])([H:7])[H:8]>>[C:1]([C:2]([O:3][H:10])([H:9])[H:12])([H:6])([H:7])[H:8].[C:4]([O:5][H:13])[H:11]"
C       -1.67229986       0.22484182       0.33701317
C       -0.41012808      -0.54006266       0.00336691
O       -0.26089612      -0.60174523      -1.38128206
C        1.44388585       0.59066774       0.50402292
O        2.23416637       0.16687338      -0.51910499
H       -1.64216456       1.23278820      -0.07967992
H       -1.81233405       0.29671392       1.41727848
H       -2.55001593      -0.27615239      -0.07672959
H       -0.50921234      -1.58306935       0.33919270
H        0.65690871      -0.44524137      -1.62843807
H        0.95996070       1.52926848       0.20956575
H        0.53970278      -0.35074782       1.03213667
H        3.02242653      -0.24413473      -0.15734197
13
Frame=10 idx=002021 GeodesicLength=0.8022224585053251 rxn_smarts="[C:1]([C@@:2]([O:3][H:10])([C:4]([O:5][H:13])([H:11])[H:12])[H:9])([H:6])([H:7])[H:8]>>[C:1]([C:2]([O:3][H:10])([H:9])[H:12])([H:6])([H:7])[H:8].[C:4]([O:5][H:13])[H:11]"
C       -1.68690204       0.21747775       0.34691533
C       -0.41123215      -0.52128142       0.00238602
O       -0.27611333      -0.55591556      -1.38855697
C        1.45518060       0.59666221       0.48437523
O        2.25186836       0.12364016      -0.51123034
H       -1.66689237       1.23630447      -0.04319140
H       -1.83619184       0.25928327       1.42751607
H       -2.55545154      -0.28358465      -0.08525095
H       -0.49924580      -1.57221922       0.31722604
H        0.65167993      -0.47808173      -1.63388524
H        0.99476282       1.53646605       0.15610279
H        0.52121350      -0.32779733       1.05561868
H        3.05732385      -0.23095401      -0.12802526
13
Frame=11 idx=002021 GeodesicLength=0.8805366855193302 rxn_smarts="[C:1]([C@@:2]([O:3][H:10])([C:4]([O:5][H:13])([H:11])[H:12])[H:9])([H:6])([H:7])[H:8]>>[C:1]([C:2]([O:3][H:10])([H:9])[H:12])([H:6])([H:7])[H:8].[C:4]([O:5][H:13])[H:11]"
C       -1.70134312       0.21004326       0.35562809
C       -0.41220170      -0.50245111       0.00282928
O       -0.28865026      -0.51122033      -1.39353978
C        1.46752928       0.60069429       0.46573140
O        2.26801270       0.07864079      -0.50129234
H       -1.69074686       1.23897882      -0.00743033
H       -1.86120858       0.22132202       1.43541426
H       -2.55995749      -0.29013934      -0.09643626
H       -0.48938977      -1.56047333       0.29746337
H        0.64214158      -0.50887367      -1.63830269
H        1.03174041       1.54075195       0.10452326
H        0.50209827      -0.30374788       1.08022125
H        3.09197554      -0.21352547      -0.10480952
13
Frame=12 idx=002021 GeodesicLength=0.9604133653836894 rxn_smarts="[C:1]([C@@:2]([O:3][H:10])([C:4]([O:5][H:13])([H:11])[H:12])[H:9])([H:6])([H:7])[H:8]>>[C:1]([C:2]([O:3][H:10])([H:9])[H:12])([H:6])([H:7])[H:8].[C:4]([O:5][H:13])[H:11]"
C       -1.71637534       0.20250436       0.36330642
C       -0.41317619      -0.48352406       0.00476821
O       -0.29887083      -0.46779699      -1.39683551
C        1.48143663       0.60280318       0.44849663
O        2.28360142       0.03144015      -0.48873497
H       -1.71468618       1.24078104       0.02754499
H       -1.88820566       0.18270122       1.44144770
H       -2.56450693      -0.29584506      -0.11027811
H       -0.47977966      -1.54784994       0.28022819
H        0.62914879      -0.53721599      -1.64231655
H        1.07145683       1.54204817       0.05454667
H        0.48235396      -0.27828743       1.10652799
H        3.12760314      -0.19175863      -0.08870166
13
Frame=13 idx=002021 GeodesicLength=1.0377384526196751 rxn_smarts="[C:1]([C@@:2]([O:3][H:10])([C:4]([O:5][H:13])([H:11])[H:12])[H:9])([H:6])([H:7])[H:8]>>[C:1]([C:2]([O:3][H:10])([H:9])[H:12])([H:6])([H:7])[H:8].[C:4]([O:5][H:13])[H:11]"
C       -1.73031548       0.19469401       0.36955319
C       -0.41362083      -0.46425453       0.00794231
O       -0.30642505      -0.42477535      -1.39749679
C        1.49543297       0.60339213       0.43247366
O        2.29688297      -0.01641873      -0.47304154
H       -1.73785846       1.24136699       0.06097731
H       -1.91455721       0.14410748       1.44428844
H       -2.56663093      -0.30169698      -0.12562092
H       -0.46965922      -1.53427386       0.26474149
H        0.61294036      -0.56316309      -1.64416441
H        1.11259904       1.54083934       0.00694474
H        0.46159472      -0.25143225       1.13324832
H        3.15961710      -0.16838517      -0.07984580
13
Frame=14 idx=002021 GeodesicLength=1.1159032538212994 rxn_smarts="[C:1]([C@@:2]([O:3][H:10])([C:4]([O:5][H:13])([H:11])[H:12])[H:9])([H:6])([H:7])[H:8]>>[C:1]([C:2]([O:3][H:10])([H:9])[H:12])([H:6])([H:7])[H:8].[C:4]([O:5][H:13])[H:11]"
C       -1.74465421       0.18633967       0.37481909
C       -0.41350780      -0.44444138       0.01242874
O       -0.31177941      -0.38272600      -1.39683423
C        1.51068814       0.60353073       0.41798242
O        2.30987019      -0.06409745      -0.45448247
H       -1.76245182       1.24037911       0.09272950
H       -1.94173921       0.10535009       1.44540153
H       -2.56829731      -0.30838642      -0.14240397
H       -0.45846430      -1.51951098       0.25166517
H        0.59479862      -0.58503336      -1.64590708
H        1.15565548       1.53778365      -0.03895723
H        0.44042821      -0.22206549       1.16142595
H        3.18945342      -0.14712216      -0.07786743
13
Frame=15 idx=002021 GeodesicLength=1.1938960931716383 rxn_smarts="[C:1]([C@@:2]([O:3][H:10])([C:4]([O:5][H:13])([H:11])[H:12])[H:9])([H:6])([H:7])[H:8]>>[C:1]([C:2]([O:3][H:10])([H:9])[H:12])([H:6])([H:7])[H:8].[C:4]([O:5][H:13])[H:11]"
C       -1.75886295       0.17744340       0.37902556
C       -0.41285962      -0.42398031       0.01815603
O       -0.31501763      -0.34109248      -1.39452087
C        1.52669840       0.60309034       0.40495002
O        2.32187823      -0.11152045      -0.43276419
H       -1.78801323       1.23786918       0.12286716
H       -1.96901473       0.06628087       1.44437312
H       -2.56870720      -0.31586162      -0.16048766
H       -0.44630971      -1.50354210       0.24066537
H        0.57487700      -0.60365913      -1.64677553
H        1.20037030       1.53278457      -0.08296677
H        0.41850279      -0.19025310       1.19055934
H        3.21645835      -0.12755918      -0.08308158
13
Frame=16 idx=002021 GeodesicLength=1.2716950139958336 rxn_smarts="[C:1]([C@@:2]([O:3][H:10])([C:4]([O:5][H:13])([H:11])[H:12])[H:9])([H:6])([H:7])[H:8]>>[C:1]([C:2]([O:3][H:10])([H:9])[H:12])([H:6])([H:7])[H:8].[C:4]([O:5][H:13])[H:11]"
C       -1.77284630       0.16785395       0.38226182
C       -0.41159983      -0.40270209       0.02506414
O       -0.31630902      -0.29960939      -1.39066130
C        1.54335676       0.60252202       0.39321881
O        2.33288629      -0.15807993      -0.40797135
H       -1.81478664       1.23368371       0.15144167
H       -1.99604332       0.02664188       1.44131216
H       -2.56765378      -0.32440702      -0.17967830
H       -0.43289998      -1.48623838       0.23166149
H        0.55346925      -0.61890063      -1.64683721
H        1.24651857       1.52613862      -0.12533252
H        0.39581867      -0.15557232       1.22043804
H        3.24008932      -0.11133042      -0.09491744
