16
Frame=0 idx=007632 GeodesicLength=0.0 rxn_smarts="[C:1]([C@:2]12[C:3]([H:11])([H:12])[C@@:4]1([H:13])[C@@:5]1([H:14])[N:6]([H:15])[C@@:7]21[H:16])([H:8])([H:9])[H:10]>>[C:1]([C@:2]12[C:3]([H:11])([H:12])[C@@:4]1([H:13])[C:5]([H:14])([H:16])[N:6]([H:15])[C:7]2)([H:8])([H:9])[H:10]"
C        1.68048525      -0.69411972       0.83187416
C        0.47595827      -0.28951490       0.03805145
C        0.51721582       0.77164197      -1.03005293
C       -0.33486046       0.96670740       0.17526684
C       -1.70203570       0.26138597       0.13891719
N       -1.74350730      -0.75607122      -0.88345731
C       -0.75187093      -1.25165268       0.05550226
H        1.38410002      -1.04165842       1.82358320
H        2.38104065       0.13434037       0.95376614
H        2.20820586      -1.51492660       0.33980291
H        1.43048992       1.35226933      -1.03291848
H        0.10476200       0.63728055      -2.02467780
H       -0.13565542       1.74675842       0.89733833
H       -2.64972085       0.70062906       0.43639711
H       -1.34552030      -0.42297032      -1.75223439
H       -1.51908679      -0.60009915       1.03284132
16
Frame=1 idx=007632 GeodesicLength=0.0619886919879136 rxn_smarts="[C:1]([C@:2]12[C:3]([H:11])([H:12])[C@@:4]1([H:13])[C@@:5]1([H:14])[N:6]([H:15])[C@@:7]21[H:16])([H:8])([H:9])[H:10]>>[C:1]([C@:2]12[C:3]([H:11])([H:12])[C@@:4]1([H:13])[C:5]([H:14])([H:16])[N:6]([H:15])[C:7]2)([H:8])([H:9])[H:10]"
C        1.68263480      -0.69375831       0.83181644
C        0.47770073      -0.28944947       0.03831016
C        0.51858558       0.77300244      -1.02766816
C       -0.33401821       0.96731281       0.17778182
C       -1.70051519       0.26202775       0.14236528
N       -1.74060105      -0.75663890      -0.87952143
C       -0.74809489      -1.25068463       0.04980631
H        1.38806824      -1.04338163       1.82337541
H        2.38128784       0.13601359       0.95570703
H        2.21149351      -1.51266473       0.33789468
H        1.43164512       1.35411139      -1.03142004
H        0.10528190       0.63856010      -2.02181415
H       -0.13354313       1.74694977       0.89994804
H       -2.64726849       0.71507260       0.42032866
H       -1.36444292      -0.43378029      -1.76087603
H       -1.52821385      -0.61269249       1.04396599
16
Frame=2 idx=007632 GeodesicLength=0.12397998179597369 rxn_smarts="[C:1]([C@:2]12[C:3]([H:11])([H:12])[C@@:4]1([H:13])[C@@:5]1([H:14])[N:6]([H:15])[C@@:7]21[H:16])([H:8])([H:9])[H:10]>>[C:1]([C@:2]12[C:3]([H:11])([H:12])[C@@:4]1([H:13])[C:5]([H:14])([H:16])[N:6]([H:15])[C:7]2)([H:8])([H:9])[H:10]"
C        1.68479187      -0.69337527       0.83177756
C        0.47947995      -0.28932416       0.03856893
C        0.52000357       0.77444394      -1.02526176
C       -0.33312823       0.96797696       0.18032515
C       -1.69898086       0.26273827       0.14585575
N       -1.73763223      -0.75703548      -0.87566860
C       -0.74429545      -1.24961554       0.04404792
H        1.39202531      -1.04509142       1.82317036
H        2.38155512       0.13768397       0.95768795
H        2.21478130      -1.51037600       0.33600489
H        1.43285672       1.35601763      -1.02989187
H        0.10578573       0.63991539      -2.01890491
H       -0.13138304       1.74717119       0.90261430
H       -2.64435937       0.72951818       0.40396537
H       -1.38395459      -0.44502916      -1.76926650
H       -1.53754579      -0.62561850       1.05497545
16
Frame=3 idx=007632 GeodesicLength=0.18597256990074817 rxn_smarts="[C:1]([C@:2]12[C:3]([H:11])([H:12])[C@@:4]1([H:13])[C@@:5]1([H:14])[N:6]([H:15])[C@@:7]21[H:16])([H:8])([H:9])[H:10]>>[C:1]([C@:2]12[C:3]([H:11])([H:12])[C@@:4]1([H:13])[C:5]([H:14])([H:16])[N:6]([H:15])[C:7]2)([H:8])([H:9])[H:10]"
C        1.68695398      -0.69296993       0.83175834
C        0.48129703      -0.28913520       0.03882447
C        0.52147630       0.77597188      -1.02283460
C       -0.33218778       0.96870446       0.18289317
C       -1.69743234       0.26352509       0.14938240
N       -1.73459830      -0.75725280      -0.87190651
C       -0.74047266      -1.24843852       0.03821964
H        1.39596471      -1.04678609       1.82296790
H        2.38184187       0.13935026       0.95971176
H        2.21806626      -1.50806116       0.33413642
H        1.43413235       1.35799190      -1.02833041
H        0.10628529       0.64135761      -2.01595351
H       -0.12917312       1.74742646       0.90533448
H       -2.64097492       0.74394824       0.38732224
H       -1.40408545      -0.45674711      -1.77737986
H       -1.54709322      -0.63888508       1.06585406
16
Frame=4 idx=007632 GeodesicLength=0.24796920323180388 rxn_smarts="[C:1]([C@:2]12[C:3]([H:11])([H:12])[C@@:4]1([H:13])[C@@:5]1([H:14])[N:6]([H:15])[C@@:7]21[H:16])([H:8])([H:9])[H:10]>>[C:1]([C@:2]12[C:3]([H:11])([H:12])[C@@:4]1([H:13])[C:5]([H:14])([H:16])[N:6]([H:15])[C:7]2)([H:8])([H:9])[H:10]"
C        1.68911871      -0.69254181       0.83175923
C        0.48315314      -0.28887858       0.03907330
C        0.52301074       0.77759232      -1.02038757
C       -0.33119388       0.96950024       0.18548228
C       -1.69586912       0.26439657       0.15293726
N       -1.73149642      -0.75728191      -0.86824359
C       -0.73662653      -1.24714640       0.03231346
H        1.39987991      -1.04846520       1.82276735
H        2.38214730       0.14101112       0.96178195
H        2.22134597      -1.50572050       0.33229110
H        1.43548007       1.36003875      -1.02673146
H        0.10679333       0.64289888      -2.01296334
H       -0.12691144       1.74771925       0.90810667
H       -2.63709648       0.75834490       0.37041376
H       -1.42486747      -0.46896872      -1.78518658
H       -1.55686782      -0.65249891       1.07658618
16
Frame=5 idx=007632 GeodesicLength=0.30997229260512915 rxn_smarts="[C:1]([C@:2]12[C:3]([H:11])([H:12])[C@@:4]1([H:13])[C@@:5]1([H:14])[N:6]([H:15])[C@@:7]21[H:16])([H:8])([H:9])[H:10]>>[C:1]([C@:2]12[C:3]([H:11])([H:12])[C@@:4]1([H:13])[C:5]([H:14])([H:16])[N:6]([H:15])[C:7]2)([H:8])([H:9])[H:10]"
C        1.69128371      -0.69209039       0.83178127
C        0.48505056      -0.28855001       0.03931103
C        0.52461626       0.77931142      -1.01792211
C       -0.33014243       0.97036955       0.18808692
C       -1.69428913       0.26536172       0.15650859
N       -1.72832135      -0.75711545      -0.86469216
C       -0.73275566      -1.24573105       0.02631909
H        1.40376322      -1.05012837       1.82256831
H        2.38247065       0.14266545       0.96390338
H        2.22461872      -1.50335426       0.33047183
H        1.43691060       1.36216268      -1.02509056
H        0.10732632       0.64455213      -2.00993954
H       -0.12459533       1.74805344       0.91092713
H       -2.63271430       0.77269025       0.35326774
H       -1.44633749      -0.48173147      -1.79265207
H       -1.56688436      -0.66646563       1.08715115
16
Frame=6 idx=007632 GeodesicLength=0.37198460614653694 rxn_smarts="[C:1]([C@:2]12[C:3]([H:11])([H:12])[C@@:4]1([H:13])[C@@:5]1([H:14])[N:6]([H:15])[C@@:7]21[H:16])([H:8])([H:9])[H:10]>>[C:1]([C@:2]12[C:3]([H:11])([H:12])[C@@:4]1([H:13])[C:5]([H:14])([H:16])[N:6]([H:15])[C:7]2)([H:8])([H:9])[H:10]"
C        1.69344624      -0.69161520       0.83182500
C        0.48699084      -0.28814448       0.03953372
C        0.52630199       0.78113636      -1.01543956
C       -0.32902939       0.97131910       0.19070243
C       -1.69269066       0.26643151       0.16008382
N       -1.72506835      -0.75674079      -0.86126553
C       -0.72886075      -1.24418360       0.02022784
H        1.40760694      -1.05177562       1.82236976
H        2.38281114       0.14431115       0.96608027
H        2.22788162      -1.50096307       0.32868041
H        1.43843455       1.36436889      -1.02340312
H        0.10790049       0.64633052      -2.00688649
H       -0.12222224       1.74843390       0.91379360
H       -2.62781482       0.78696197       0.33590842
H       -1.46853103      -0.49507855      -1.79973878
H       -1.57715657      -0.68079209       1.09752821
16
Frame=7 idx=007632 GeodesicLength=0.43400795112184154 rxn_smarts="[C:1]([C@:2]12[C:3]([H:11])([H:12])[C@@:4]1([H:13])[C@@:5]1([H:14])[N:6]([H:15])[C@@:7]21[H:16])([H:8])([H:9])[H:10]>>[C:1]([C@:2]12[C:3]([H:11])([H:12])[C@@:4]1([H:13])[C:5]([H:14])([H:16])[N:6]([H:15])[C:7]2)([H:8])([H:9])[H:10]"
C        1.69560407      -0.69111577       0.83189162
C        0.48897703      -0.28765658       0.03973706
C        0.52807919       0.78307424      -1.01294149
C       -0.32784937       0.97235576       0.19332271
C       -1.69106994       0.26761730       0.16364693
N       -1.72172901      -0.75614597      -0.85798202
C       -0.72494008      -1.24249405       0.01402830
H        1.41140290      -1.05340696       1.82217117
H        2.38316833       0.14594648       0.96831837
H        2.23113306      -1.49854705       0.32691999
H        1.44006469       1.36666212      -1.02166414
H        0.10853430       0.64824673      -2.00380942
H       -0.11978889       1.74886542       0.91670254
H       -2.62239468       0.80114169       0.31837253
H       -1.49149032      -0.50905727      -1.80640374
H       -1.58770128      -0.69548611       1.10768958
16
Frame=8 idx=007632 GeodesicLength=0.4960355413921448 rxn_smarts="[C:1]([C@:2]12[C:3]([H:11])([H:12])[C@@:4]1([H:13])[C@@:5]1([H:14])[N:6]([H:15])[C@@:7]21[H:16])([H:8])([H:9])[H:10]>>[C:1]([C@:2]12[C:3]([H:11])([H:12])[C@@:4]1([H:13])[C:5]([H:14])([H:16])[N:6]([H:15])[C:7]2)([H:8])([H:9])[H:10]"
C        1.69775476      -0.69059151       0.83198228
C        0.49101266      -0.28708106       0.03991554
C        0.52996088       0.78513251      -1.01042979
C       -0.32659692       0.97348626       0.19594023
C       -1.68942239       0.26892979       0.16717980
N       -1.71829610      -0.75532134      -0.85485983
C       -0.72099124      -1.24065307       0.00770924
H        1.41514201      -1.05502261       1.82197142
H        2.38354110       0.14756978       0.97062421
H        2.23437197      -1.49610629       0.32519381
H        1.44181546       1.36904796      -1.01986736
H        0.10925127       0.65031611      -2.00071450
H       -0.11729262       1.74935226       0.91964946
H       -2.61645337       0.81521176       0.30069881
H       -1.51526302      -0.52371616      -1.81259578
H       -1.59853444      -0.71055443       1.11760247
16
Frame=9 idx=007632 GeodesicLength=0.558036113570098 rxn_smarts="[C:1]([C@:2]12[C:3]([H:11])([H:12])[C@@:4]1([H:13])[C@@:5]1([H:14])[N:6]([H:15])[C@@:7]21[H:16])([H:8])([H:9])[H:10]>>[C:1]([C@:2]12[C:3]([H:11])([H:12])[C@@:4]1([H:13])[C:5]([H:14])([H:16])[N:6]([H:15])[C:7]2)([H:8])([H:9])[H:10]"
C        1.69989395      -0.69004276       0.83209762
C        0.49310204      -0.28641408       0.04005674
C        0.53196924       0.78732101      -1.00790914
C       -0.32526517       0.97471770       0.19853847
C       -1.68774034       0.27037800       0.17065563
N       -1.71477742      -0.75427303      -0.85190359
C       -0.71701055      -1.23865329       0.00125758
H        1.41881027      -1.05662287       1.82176903
H        2.38392678       0.14917868       0.97300766
H        2.23759732      -1.49364203       0.32350677
H        1.44371087       1.37153529      -1.01800302
H        0.11009414       0.65256625      -1.99761972
H       -0.11473063       1.74989893       0.92262267
H       -2.61001870       0.82915615       0.28294198
H       -1.53989761      -0.53909926      -1.81824150
H       -1.60966419      -0.72600471       1.12722281
16
Frame=10 idx=007632 GeodesicLength=0.6200443232966283 rxn_smarts="[C:1]([C@:2]12[C:3]([H:11])([H:12])[C@@:4]1([H:13])[C@@:5]1([H:14])[N:6]([H:15])[C@@:7]21[H:16])([H:8])([H:9])[H:10]>>[C:1]([C@:2]12[C:3]([H:11])([H:12])[C@@:4]1([H:13])[C:5]([H:14])([H:16])[N:6]([H:15])[C:7]2)([H:8])([H:9])[H:10]"
C        1.70202266      -0.68946895       0.83223847
C        0.49524964      -0.28564781       0.04016181
C        0.53410901       0.78964825      -1.00537748
C       -0.32384815       0.97605718       0.20112167
C       -1.68602091       0.27197456       0.17406354
N       -1.71114384      -0.75296743      -0.84915310
C       -0.71299548      -1.23648231      -0.00534281
H        1.42240422      -1.05821166       1.82156170
H        2.38432746       0.15077124       0.97547331
H        2.24080974      -1.49115244       0.32185760
H        1.44575714       1.37412954      -1.01606707
H        0.11106369       0.65500159      -1.99451838
H       -0.11209860       1.75050897       0.92562983
H       -2.60306573       0.84296178       0.26510458
H       -1.56545099      -0.55527542      -1.82328067
H       -1.62111986      -0.74184708       1.13652699
16
Frame=11 idx=007632 GeodesicLength=0.682064631469682 rxn_smarts="[C:1]([C@:2]12[C:3]([H:11])([H:12])[C@@:4]1([H:13])[C@@:5]1([H:14])[N:6]([H:15])[C@@:7]21[H:16])([H:8])([H:9])[H:10]>>[C:1]([C@:2]12[C:3]([H:11])([H:12])[C@@:4]1([H:13])[C:5]([H:14])([H:16])[N:6]([H:15])[C:7]2)([H:8])([H:9])[H:10]"
C        1.70413949      -0.68887055       0.83240489
C        0.49746075      -0.28477605       0.04022360
C        0.53639589       0.79212593      -1.00283615
C       -0.32233851       0.97751249       0.20368336
C       -1.68425744       0.27373029       0.17738202
N       -1.70738495      -0.75139027      -0.84663221
C       -0.70894153      -1.23412989      -0.01210967
H        1.42591463      -1.05979288       1.82134641
H        2.38474320       0.15234462       0.97802953
H        2.24400975      -1.48863724       0.32024705
H        1.44797169       1.37684070      -1.01405072
H        0.11218512       0.65764264      -1.99141791
H       -0.10939273       1.75118623       0.92866990
H       -2.59559885       0.85661725       0.24721279
H       -1.59198077      -0.57231198      -1.82762945
H       -1.63292574      -0.75809128       1.14547655
16
Frame=12 idx=007632 GeodesicLength=0.7440936558464334 rxn_smarts="[C:1]([C@:2]12[C:3]([H:11])([H:12])[C@@:4]1([H:13])[C@@:5]1([H:14])[N:6]([H:15])[C@@:7]21[H:16])([H:8])([H:9])[H:10]>>[C:1]([C@:2]12[C:3]([H:11])([H:12])[C@@:4]1([H:13])[C:5]([H:14])([H:16])[N:6]([H:15])[C:7]2)([H:8])([H:9])[H:10]"
C        1.70624296      -0.68824771       0.83259743
C        0.49974108      -0.28379233       0.04023505
C        0.53884637       0.79476475      -1.00028624
C       -0.32072875       0.97909121       0.20621595
C       -1.68244231       0.27565619       0.18058817
N       -1.70348910      -0.74952789      -0.84436718
C       -0.70484344      -1.23158517      -0.01906110
H        1.42933159      -1.06136929       1.82112032
H        2.38517383       0.15389589       0.98068459
H        2.24719801      -1.48609608       0.31867727
H        1.45037270       1.37967718      -1.01194486
H        0.11348502       0.66050880      -1.98832488
H       -0.10660955       1.75193413       0.93174042
H       -2.58762996       0.87011526       0.22929850
H       -1.61954573      -0.59027483      -1.83120108
H       -1.64510273      -0.77475010       1.15402764
16
Frame=13 idx=007632 GeodesicLength=0.8061226249093401 rxn_smarts="[C:1]([C@:2]12[C:3]([H:11])([H:12])[C@@:4]1([H:13])[C@@:5]1([H:14])[N:6]([H:15])[C@@:7]21[H:16])([H:8])([H:9])[H:10]>>[C:1]([C@:2]12[C:3]([H:11])([H:12])[C@@:4]1([H:13])[C:5]([H:14])([H:16])[N:6]([H:15])[C:7]2)([H:8])([H:9])[H:10]"
C        1.70833192      -0.68760098       0.83281641
C        0.50209706      -0.28268973       0.04018889
C        0.54147793       0.79757716      -0.99772857
C       -0.31901087       0.98080145       0.20871234
C       -1.68056745       0.27776279       0.18365795
N       -1.69944125      -0.74736342      -0.84239012
C       -0.70069552      -1.22883689      -0.02621682
H        1.43264513      -1.06294552       1.82088016
H        2.38561938       0.15542189       0.98344784
H        2.25037570      -1.48352856       0.31714894
H        1.45297949       1.38264943      -1.00973911
H        0.11499112       0.66362128      -1.98524580
H       -0.10374520       1.75275619       0.93484061
H       -2.57917134       0.88345130       0.21138826
H       -1.64821173      -0.60923917      -1.83388993
H       -1.65767438      -0.79183723       1.16212895
16
Frame=14 idx=007632 GeodesicLength=0.8681483243306363 rxn_smarts="[C:1]([C@:2]12[C:3]([H:11])([H:12])[C@@:4]1([H:13])[C@@:5]1([H:14])[N:6]([H:15])[C@@:7]21[H:16])([H:8])([H:9])[H:10]>>[C:1]([C@:2]12[C:3]([H:11])([H:12])[C@@:4]1([H:13])[C:5]([H:14])([H:16])[N:6]([H:15])[C:7]2)([H:8])([H:9])[H:10]"
C        1.71040559      -0.68693079       0.83306133
C        0.50453621      -0.28146098       0.04007660
C        0.54430925       0.80057664      -0.99516267
C       -0.31717699       0.98265039       0.21116548
C       -1.67862389       0.28005964       0.18656585
N       -1.69522551      -0.74488077      -0.84073413
C       -0.69648910      -1.22587306      -0.03360018
H        1.43584499      -1.06452663       1.82062036
H        2.38607925       0.15691897       0.98632931
H        2.25354569      -1.48093302       0.31566265
H        1.45581177       1.38576900      -1.00741987
H        0.11673379       0.66700378      -1.98218527
H       -0.10079786       1.75365348       0.93797040
H       -2.57023044       0.89662523       0.19349624
H       -1.67805619      -0.62928339      -1.83557185
H       -1.67066655      -0.80936849       1.16972573
16
Frame=15 idx=007632 GeodesicLength=0.9301685731228364 rxn_smarts="[C:1]([C@:2]12[C:3]([H:11])([H:12])[C@@:4]1([H:13])[C@@:5]1([H:14])[N:6]([H:15])[C@@:7]21[H:16])([H:8])([H:9])[H:10]>>[C:1]([C@:2]12[C:3]([H:11])([H:12])[C@@:4]1([H:13])[C:5]([H:14])([H:16])[N:6]([H:15])[C:7]2)([H:8])([H:9])[H:10]"
C        1.71246282      -0.68623853       0.83333177
C        0.50706754      -0.28009757       0.03988831
C        0.54736241       0.80378004      -0.99258782
C       -0.31521770       0.98464674       0.21356705
C       -1.67660088       0.28255795       0.18927980
N       -1.69081907      -0.74205715      -0.83944429
C       -0.69221378      -1.22267979      -0.04123964
H        1.43891872      -1.06612119       1.82033421
H        2.38655216       0.15838236       0.98934214
H        2.25671133      -1.47830766       0.31421803
H        1.45889277       1.38905067      -1.00497096
H        0.11874767       0.67068504      -1.97915022
H       -0.09776503       1.75462724       0.94113078
H       -2.56082053       0.90964022       0.17563511
H       -1.70917049      -0.65050493      -1.83608497
H       -1.68410792      -0.82736343       1.17675070
16
Frame=16 idx=007632 GeodesicLength=0.9921886570297349 rxn_smarts="[C:1]([C@:2]12[C:3]([H:11])([H:12])[C@@:4]1([H:13])[C@@:5]1([H:14])[N:6]([H:15])[C@@:7]21[H:16])([H:8])([H:9])[H:10]>>[C:1]([C@:2]12[C:3]([H:11])([H:12])[C@@:4]1([H:13])[C:5]([H:14])([H:16])[N:6]([H:15])[C:7]2)([H:8])([H:9])[H:10]"
C        1.71450244      -0.68552572       0.83362713
C        0.50970141      -0.27858999       0.03961195
C        0.55066271       0.80720749      -0.99000372
C       -0.31312257       0.98679986       0.21590862
C       -1.67448733       0.28526773       0.19176441
N       -1.68619430      -0.73886521      -0.83857432
C       -0.68785882      -1.21924347      -0.04916930
H        1.44185123      -1.06774162       1.82001358
H        2.38703585       0.15980758       0.99250397
H        2.25987764      -1.47564911       0.31281325
H        1.46224946       1.39251346      -1.00237333
H        0.12107242       0.67469866      -1.97614915
H       -0.09464446       1.75567800       0.94432514
H       -2.55095108       0.92250262       0.15780363
H       -1.74166555      -0.67301356      -1.83523189
H       -1.69802903      -0.84584669       1.18313003
