15
Frame=0 idx=007303 GeodesicLength=0.0 rxn_smarts="[C:1]([C:2]([C:3](=[O:4])[C:5]#[C:6][C:7]([H:13])([H:14])[H:15])([H:11])[H:12])([H:8])([H:9])[H:10]>>[C:1]([C:2]([C:3](=[C:5])[C:6](=[O:4])[C:7]([H:13])([H:14])[H:15])([H:11])[H:12])([H:8])([H:9])[H:10]"
C       -2.05671706      -0.12303841       0.70723230
C       -1.45249266      -0.37264765      -0.66535567
C       -0.12444846       0.27049819      -0.88589449
O        0.27405189       1.27697608      -0.14382670
C        0.94985408      -0.25377867      -1.70144625
C        1.52593978       0.26091132      -0.62148271
C        2.55000367       0.15296652       0.42576905
H       -1.43616668      -0.55419120       1.49410965
H       -3.04628059      -0.57622799       0.77119730
H       -2.15155726       0.94391912       0.90753915
H       -2.09036020       0.04160201      -1.45569734
H       -1.35512463      -1.43402044      -0.89604328
H        3.02491059       1.11967628       0.59476530
H        2.09533875      -0.17576749       1.36155960
H        3.29304879      -0.57687767       0.10757415
15
Frame=1 idx=007303 GeodesicLength=0.10772559417631453 rxn_smarts="[C:1]([C:2]([C:3](=[O:4])[C:5]#[C:6][C:7]([H:13])([H:14])[H:15])([H:11])[H:12])([H:8])([H:9])[H:10]>>[C:1]([C:2]([C:3](=[C:5])[C:6](=[O:4])[C:7]([H:13])([H:14])[H:15])([H:11])[H:12])([H:8])([H:9])[H:10]"
C       -2.10984601      -0.10939057       0.68947791
C       -1.44868450      -0.38567800      -0.65095468
C       -0.13236738       0.28837593      -0.85059663
O        0.26725617       1.27300155      -0.05320678
C        0.93318979      -0.19685301      -1.69326406
C        1.52805755       0.28415066      -0.58909142
C        2.59799136       0.13996192       0.40529929
H       -1.50885137      -0.49851326       1.51245374
H       -3.08847318      -0.58835334       0.73283731
H       -2.24415607       0.95997105       0.85057760
H       -2.07264786      -0.02001931      -1.47547141
H       -1.31357851      -1.45180239      -0.83753806
H        3.08642831       1.09998110       0.57447472
H        2.18493951      -0.21013603       1.35237778
H        3.32074219      -0.58469629       0.03262470
15
Frame=2 idx=007303 GeodesicLength=0.21396644035184054 rxn_smarts="[C:1]([C:2]([C:3](=[O:4])[C:5]#[C:6][C:7]([H:13])([H:14])[H:15])([H:11])[H:12])([H:8])([H:9])[H:10]>>[C:1]([C:2]([C:3](=[C:5])[C:6](=[O:4])[C:7]([H:13])([H:14])[H:15])([H:11])[H:12])([H:8])([H:9])[H:10]"
C       -2.16263018      -0.09626388       0.66963391
C       -1.44496911      -0.39783025      -0.63544689
C       -0.14049716       0.30562335      -0.81366894
O        0.26122367       1.26322596       0.04116083
C        0.91604872      -0.14102580      -1.68077058
C        1.52993274       0.30436370      -0.55293527
C        2.64531230       0.12825172       0.38345746
H       -1.58558494      -0.44582317       1.52665790
H       -3.13069377      -0.59786291       0.69226402
H       -2.33056488       0.97359700       0.79106544
H       -2.05136295      -0.08048698      -1.49228328
H       -1.27446819      -1.46605639      -0.77672024
H        3.14628948       1.08240720       0.54969387
H        2.27651840      -0.24278916       1.34059536
H        3.34544586      -0.58933039      -0.04270358
15
Frame=3 idx=007303 GeodesicLength=0.3185533130825312 rxn_smarts="[C:1]([C:2]([C:3](=[O:4])[C:5]#[C:6][C:7]([H:13])([H:14])[H:15])([H:11])[H:12])([H:8])([H:9])[H:10]>>[C:1]([C:2]([C:3](=[C:5])[C:6](=[O:4])[C:7]([H:13])([H:14])[H:15])([H:11])[H:12])([H:8])([H:9])[H:10]"
C       -2.21410733      -0.08372150       0.64794078
C       -1.44155097      -0.40895007      -0.61923862
C       -0.14879155       0.32205453      -0.77569128
O        0.25591397       1.24741263       0.13798245
C        0.89873100      -0.08725565      -1.66415987
C        1.53161027       0.32089320      -0.51328274
C        2.69129372       0.11799328       0.36066440
H       -1.66443664      -0.39652761       1.53645530
H       -3.17214556      -0.60493037       0.64995216
H       -2.40974745       0.98518374       0.73013932
H       -2.02714499      -0.13876380      -1.50600806
H       -1.23883271      -1.47681394      -0.71478011
H        3.20339653       1.06739935       0.52067541
H        2.36910372      -0.27302059       1.32646496
H        3.36670799      -0.59095321      -0.11711411
15
Frame=4 idx=007303 GeodesicLength=0.4216281591527378 rxn_smarts="[C:1]([C:2]([C:3](=[O:4])[C:5]#[C:6][C:7]([H:13])([H:14])[H:15])([H:11])[H:12])([H:8])([H:9])[H:10]>>[C:1]([C:2]([C:3](=[C:5])[C:6](=[O:4])[C:7]([H:13])([H:14])[H:15])([H:11])[H:12])([H:8])([H:9])[H:10]"
C       -2.26378456      -0.07172926       0.62460322
C       -1.43867433      -0.41897026      -0.60270318
C       -0.15715984       0.33737265      -0.73682602
O        0.25127702       1.22512882       0.23654679
C        0.88151444      -0.03626366      -1.64357573
C        1.53317504       0.33300391      -0.47023723
C        2.73571702       0.10934795       0.33720392
H       -1.74408521      -0.35074371       1.54182884
H       -3.21246701      -0.60966749       0.60614041
H       -2.48141414       0.99520074       0.66867505
H       -2.00061537      -0.19392846      -1.51676589
H       -1.20760646      -1.48435425      -0.65284557
H        3.25701279       1.05544974       0.48741708
H        2.46257121      -0.30009519       1.31029658
H        3.38453940      -0.58975152      -0.18975827
15
Frame=5 idx=007303 GeodesicLength=0.5233056415406631 rxn_smarts="[C:1]([C:2]([C:3](=[O:4])[C:5]#[C:6][C:7]([H:13])([H:14])[H:15])([H:11])[H:12])([H:8])([H:9])[H:10]>>[C:1]([C:2]([C:3](=[C:5])[C:6](=[O:4])[C:7]([H:13])([H:14])[H:15])([H:11])[H:12])([H:8])([H:9])[H:10]"
C       -2.31113131      -0.06028263       0.59993635
C       -1.43653662      -0.42783461      -0.58627323
C       -0.16546341       0.35127416      -0.69729015
O        0.24722894       1.19612190       0.33598906
C        0.86469799       0.01133022      -1.61931749
C        1.53474764       0.34006627      -0.42405663
C        2.77832066       0.10246575       0.31341929
H       -1.82311096      -0.30866078       1.54290802
H       -3.25123740      -0.61219918       0.56121730
H       -2.54535927       1.00404086       0.60771073
H       -1.97248606      -0.24496459      -1.52481264
H       -1.18159118      -1.48909869      -0.59227515
H        3.30648397       1.04695738       0.44976165
H        2.55661284      -0.32287976       1.29259638
H        3.39882418      -0.58633631      -0.25951348
15
Frame=6 idx=007303 GeodesicLength=0.6237955289294735 rxn_smarts="[C:1]([C:2]([C:3](=[O:4])[C:5]#[C:6][C:7]([H:13])([H:14])[H:15])([H:11])[H:12])([H:8])([H:9])[H:10]>>[C:1]([C:2]([C:3](=[C:5])[C:6](=[O:4])[C:7]([H:13])([H:14])[H:15])([H:11])[H:12])([H:8])([H:9])[H:10]"
C       -2.35577342      -0.04927445       0.57428443
C       -1.43517167      -0.43559489      -0.57026875
C       -0.17353491       0.36359149      -0.65723747
O        0.24366896       1.16026582       0.43562577
C        0.84854697       0.05538936      -1.59185736
C        1.53650892       0.34179127      -0.37517817
C        2.81883905       0.09736812       0.28957447
H       -1.90035976      -0.27008103       1.54006124
H       -3.28810416      -0.61267630       0.51562394
H       -2.60175785       1.01214551       0.54796164
H       -1.94333469      -0.29133288      -1.53050911
H       -1.16105140      -1.49164123      -0.53403936
H        3.35115705       1.04210347       0.40781699
H        2.65080037      -0.34062881       1.27373777
H        3.40956654      -0.58142543      -0.32559602
15
Frame=7 idx=007303 GeodesicLength=0.7233393387261345 rxn_smarts="[C:1]([C:2]([C:3](=[O:4])[C:5]#[C:6][C:7]([H:13])([H:14])[H:15])([H:11])[H:12])([H:8])([H:9])[H:10]>>[C:1]([C:2]([C:3](=[C:5])[C:6](=[O:4])[C:7]([H:13])([H:14])[H:15])([H:11])[H:12])([H:8])([H:9])[H:10]"
C       -2.39781709      -0.03772636       0.54769681
C       -1.43464070      -0.44269534      -0.55442805
C       -0.18120433       0.37358378      -0.61655943
O        0.24066753       1.11671096       0.53507477
C        0.83309788       0.09502782      -1.56142737
C        1.53857496       0.33713921      -0.32392331
C        2.85731206       0.09408938       0.26564712
H       -1.97567403      -0.23273883       1.53384105
H       -3.32318151      -0.61032139       0.46974455
H       -2.65120662       1.02064590       0.48845112
H       -1.91343198      -0.33414282      -1.53401160
H       -1.14601998      -1.49280078      -0.47719467
H        3.38855826       1.04162213       0.36536990
H        2.74574068      -0.35705406       1.25171591
H        3.41922486      -0.57133962      -0.38999680
15
Frame=8 idx=007303 GeodesicLength=0.8220655968622249 rxn_smarts="[C:1]([C:2]([C:3](=[O:4])[C:5]#[C:6][C:7]([H:13])([H:14])[H:15])([H:11])[H:12])([H:8])([H:9])[H:10]>>[C:1]([C:2]([C:3](=[C:5])[C:6](=[O:4])[C:7]([H:13])([H:14])[H:15])([H:11])[H:12])([H:8])([H:9])[H:10]"
C       -2.43663694      -0.02632264       0.52074684
C       -1.43489691      -0.44880434      -0.53954271
C       -0.18829759       0.38158315      -0.57550029
O        0.23803263       1.06583582       0.63365266
C        0.81863965       0.13103066      -1.52862700
C        1.54112943       0.32643088      -0.27084483
C        2.89330279       0.09265122       0.24207476
H       -2.04737338      -0.19821397       1.52449196
H       -3.35587020      -0.60601023       0.42405222
H       -2.69361424       1.02909140       0.43114510
H       -1.88356043      -0.37153362      -1.53594618
H       -1.13662926      -1.49287337      -0.42436446
H        3.42001930       1.04492538       0.31906540
H        2.84023940      -0.36678962       1.22908463
H        3.42551576      -0.56100073      -0.44948810
15
Frame=9 idx=007303 GeodesicLength=0.9202396703831862 rxn_smarts="[C:1]([C:2]([C:3](=[O:4])[C:5]#[C:6][C:7]([H:13])([H:14])[H:15])([H:11])[H:12])([H:8])([H:9])[H:10]>>[C:1]([C:2]([C:3](=[C:5])[C:6](=[O:4])[C:7]([H:13])([H:14])[H:15])([H:11])[H:12])([H:8])([H:9])[H:10]"
C       -2.47241066      -0.01401970       0.49342549
C       -1.43567775      -0.45467095      -0.52494071
C       -0.19461748       0.38696174      -0.53398782
O        0.23583689       1.00718274       0.73085511
C        0.80506983       0.16289388      -1.49391311
C        1.54447168       0.30980127      -0.21684280
C        2.92668347       0.09303628       0.21870894
H       -2.11575415      -0.16378740       1.51263427
H       -3.38636678      -0.59890026       0.37897955
H       -2.72953350       1.03849421       0.37442817
H       -1.85352087      -0.40579549      -1.53613922
H       -1.13217535      -1.49272115      -0.37346855
H        3.44349649       1.05230037       0.27392434
H        2.93377794      -0.37453402       1.20316087
H        3.43072024      -0.54624151      -0.50682453
15
Frame=10 idx=007303 GeodesicLength=1.0181414726223579 rxn_smarts="[C:1]([C:2]([C:3](=[O:4])[C:5]#[C:6][C:7]([H:13])([H:14])[H:15])([H:11])[H:12])([H:8])([H:9])[H:10]>>[C:1]([C:2]([C:3](=[C:5])[C:6](=[O:4])[C:7]([H:13])([H:14])[H:15])([H:11])[H:12])([H:8])([H:9])[H:10]"
C       -2.50506863      -0.00079760       0.46597390
C       -1.43716571      -0.46019389      -0.51106042
C       -0.19998703       0.38933871      -0.49181012
O        0.23413982       0.93954179       0.82679361
C        0.79247307       0.19059253      -1.45741182
C        1.54870129       0.28626466      -0.16207139
C        2.95749112       0.09546033       0.19570913
H       -2.18025622      -0.12976686       1.49852619
H       -3.41479747      -0.58879799       0.33456982
H       -2.75895579       1.04904413       0.31909888
H       -1.82388017      -0.43596391      -1.53516107
H       -1.13309388      -1.49276666      -0.32595070
H        3.45902126       1.06392042       0.22831619
H        3.02683774      -0.37708347       1.17523698
H        3.43454058      -0.52879218      -0.56075918
15
Frame=11 idx=007303 GeodesicLength=1.1156036461203584 rxn_smarts="[C:1]([C:2]([C:3](=[O:4])[C:5]#[C:6][C:7]([H:13])([H:14])[H:15])([H:11])[H:12])([H:8])([H:9])[H:10]>>[C:1]([C:2]([C:3](=[C:5])[C:6](=[O:4])[C:7]([H:13])([H:14])[H:15])([H:11])[H:12])([H:8])([H:9])[H:10]"
C       -2.53378596       0.01325759       0.43898143
C       -1.43860419      -0.46573980      -0.49763541
C       -0.20449217       0.38961840      -0.45040383
O        0.23256138       0.86618159       0.91867560
C        0.78065288       0.21482964      -1.42075783
C        1.55394070       0.25905066      -0.10863253
C        2.98452346       0.09924521       0.17361123
H       -2.23897221      -0.09445131       1.48283859
H       -3.43985249      -0.57699441       0.29281397
H       -2.78252288       1.06016573       0.26452913
H       -1.79472239      -0.46403484      -1.53273789
H       -1.13727593      -1.49303421      -0.28063536
H        3.46684370       1.07794373       0.18706948
H        3.11523421      -0.37827716       1.14429333
H        3.43647191      -0.50776082      -0.61200990
15
Frame=12 idx=007303 GeodesicLength=1.2128485820698875 rxn_smarts="[C:1]([C:2]([C:3](=[O:4])[C:5]#[C:6][C:7]([H:13])([H:14])[H:15])([H:11])[H:12])([H:8])([H:9])[H:10]>>[C:1]([C:2]([C:3](=[C:5])[C:6](=[O:4])[C:7]([H:13])([H:14])[H:15])([H:11])[H:12])([H:8])([H:9])[H:10]"
C       -2.55873412       0.02820227       0.41263677
C       -1.44016871      -0.47128117      -0.48490705
C       -0.20805522       0.38752674      -0.40974960
O        0.23114383       0.78647659       1.00645841
C        0.76957522       0.23543444      -1.38420150
C        1.56021284       0.22766170      -0.05676176
C        3.00804381       0.10449168       0.15255786
H       -2.29177240      -0.05784382       1.46589896
H       -3.46191420      -0.56329446       0.25384589
H       -2.80048710       1.07195454       0.21111341
H       -1.76644001      -0.48966426      -1.52932187
H       -1.14488513      -1.49377665      -0.23824479
H        3.46735371       1.09438783       0.14939532
H        3.19935430      -0.37637842       1.11134589
H        3.43677318      -0.48389700      -0.66006592
15
Frame=13 idx=007303 GeodesicLength=1.309773866917185 rxn_smarts="[C:1]([C:2]([C:3](=[O:4])[C:5]#[C:6][C:7]([H:13])([H:14])[H:15])([H:11])[H:12])([H:8])([H:9])[H:10]>>[C:1]([C:2]([C:3](=[C:5])[C:6](=[O:4])[C:7]([H:13])([H:14])[H:15])([H:11])[H:12])([H:8])([H:9])[H:10]"
C       -2.57963756       0.04310428       0.38744430
C       -1.44123369      -0.47656000      -0.47304319
C       -0.21103042       0.38481401      -0.37078224
O        0.22934162       0.70408332       1.08858575
C        0.75895414       0.25463664      -1.34876193
C        1.56732263       0.19583935      -0.00745950
C        3.02752804       0.11020890       0.13297269
H       -2.33740995      -0.02022635       1.44821007
H       -3.48009540      -0.54989078       0.21885824
H       -2.81425518       1.08302444       0.15909564
H       -1.73904704      -0.51316985      -1.52511455
H       -1.15372368      -1.49442687      -0.19897462
H        3.46307620       1.11070118       0.11527310
H        3.27653311      -0.37192359       1.07762154
H        3.43367718      -0.46021467      -0.70392530
15
Frame=14 idx=007303 GeodesicLength=1.4065759224498573 rxn_smarts="[C:1]([C:2]([C:3](=[O:4])[C:5]#[C:6][C:7]([H:13])([H:14])[H:15])([H:11])[H:12])([H:8])([H:9])[H:10]>>[C:1]([C:2]([C:3](=[C:5])[C:6](=[O:4])[C:7]([H:13])([H:14])[H:15])([H:11])[H:12])([H:8])([H:9])[H:10]"
C       -2.59693022       0.05818321       0.36342898
C       -1.44196873      -0.48175175      -0.46196844
C       -0.21343924       0.38123352      -0.33363888
O        0.22714774       0.61926716       1.16494012
C        0.74874801       0.27181955      -1.31466021
C        1.57519366       0.16332285       0.03929902
C        3.04350301       0.11649050       0.11488916
H       -2.37629527       0.01893915       1.43001124
H       -3.49500773      -0.53650632       0.18806086
H       -2.82430899       1.09351487       0.10810667
H       -1.71270488      -0.53507036      -1.52028664
H       -1.16383274      -1.49519985      -0.16244750
H        3.45427721       1.12722972       0.08559302
H        3.34737392      -0.36590329       1.04307259
H        3.42824424      -0.43556895      -0.74440000
15
Frame=15 idx=007303 GeodesicLength=1.5032706257031432 rxn_smarts="[C:1]([C:2]([C:3](=[O:4])[C:5]#[C:6][C:7]([H:13])([H:14])[H:15])([H:11])[H:12])([H:8])([H:9])[H:10]>>[C:1]([C:2]([C:3](=[C:5])[C:6](=[O:4])[C:7]([H:13])([H:14])[H:15])([H:11])[H:12])([H:8])([H:9])[H:10]"
C       -2.61093907       0.07303490       0.34069233
C       -1.44223691      -0.48668891      -0.45175122
C       -0.21548103       0.37752715      -0.29845057
O        0.22433090       0.53342468       1.23544318
C        0.73882278       0.28799310      -1.28206518
C        1.58365083       0.13143453       0.08360281
C        3.05624765       0.12293431       0.09835744
H       -2.40857752       0.05927219       1.41149049
H       -3.50680038      -0.52392563       0.16160466
H       -2.83160453       1.10284875       0.05822660
H       -1.68735392      -0.55534404      -1.51507672
H       -1.17438931      -1.49585165      -0.12875196
H        3.44245335       1.14308854       0.05945260
H        3.41175666      -0.35834326       1.00846732
H        3.42012050      -0.41140463      -0.78124180
15
Frame=16 idx=007303 GeodesicLength=1.5998763675809438 rxn_smarts="[C:1]([C:2]([C:3](=[O:4])[C:5]#[C:6][C:7]([H:13])([H:14])[H:15])([H:11])[H:12])([H:8])([H:9])[H:10]>>[C:1]([C:2]([C:3](=[C:5])[C:6](=[O:4])[C:7]([H:13])([H:14])[H:15])([H:11])[H:12])([H:8])([H:9])[H:10]"
C       -2.62206771       0.08732776       0.31927603
C       -1.44195004      -0.49120797      -0.44243247
C       -0.21732654       0.37431369      -0.26525306
O        0.22069721       0.44782658       1.30022082
C        0.72910558       0.30394055      -1.25099594
C        1.59250986       0.10109484       0.12575594
C        3.06612534       0.12920328       0.08334745
H       -2.43466836       0.10031584       1.39278340
H       -3.51573014      -0.51272767       0.13945298
H       -2.83702033       1.11059120       0.00954839
H       -1.66287213      -0.57391273      -1.50970998
H       -1.18474940      -1.49618009      -0.09790156
H        3.42879905       1.15770147       0.03595587
H        3.46990658      -0.34945268       0.97436533
H        3.40924102      -0.38883404      -0.81441318
