13
Frame=0 idx=004988 GeodesicLength=0.0 rxn_smarts="[C:1]1([H:7])([H:8])[C:2]([H:9])([H:10])[O:3][C:4]([H:11])=[N:5][C:6]1([H:12])[H:13]>>[C:1]1([H:7])([H:8])[C:2]([H:9])([H:10])[O:3][C:4]([H:11])=[N+:5]=[C-:6]1.[H:12][H:13]"
C        0.49481677      -0.72559152       0.37856584
C       -0.93464152      -1.02689990      -0.08003803
O       -1.75715449       0.14892168      -0.13915201
C       -1.10127331       1.32252357      -0.15470199
N        0.13994599       1.45379032      -0.38632327
C        0.88673322       0.35250316      -0.60432955
H        0.46706106      -0.39262510       1.42049698
H        1.10036792      -1.62819398       0.29918535
H       -0.94336879      -1.48444128      -1.07141411
H       -1.42280089      -1.69930886       0.62448051
H       -1.76114679       2.16760869       0.00066906
H        2.53342812       0.86211173       0.23513873
H        2.29803266       0.64960144      -0.52257746
13
Frame=1 idx=004988 GeodesicLength=0.05136274995882397 rxn_smarts="[C:1]1([H:7])([H:8])[C:2]([H:9])([H:10])[O:3][C:4]([H:11])=[N:5][C:6]1([H:12])[H:13]>>[C:1]1([H:7])([H:8])[C:2]([H:9])([H:10])[O:3][C:4]([H:11])=[N+:5]=[C-:6]1.[H:12][H:13]"
C        0.48980798      -0.72286946       0.39252243
C       -0.93313573      -1.02631304      -0.08441325
O       -1.75917136       0.14685885      -0.14604674
C       -1.10683481       1.32254982      -0.15033370
N        0.13635668       1.45949386      -0.36705882
C        0.89202533       0.36100228      -0.57983586
H        0.44862567      -0.39510688       1.43567371
H        1.09724040      -1.62474005       0.32030563
H       -0.92870302      -1.47750653      -1.07880940
H       -1.42867308      -1.70491761       0.60889443
H       -1.77313837       2.16349893       0.00077857
H        2.55288232       0.85909210       0.20676212
H        2.31271799       0.63895773      -0.55843912
13
Frame=2 idx=004988 GeodesicLength=0.10267183764136828 rxn_smarts="[C:1]1([H:7])([H:8])[C:2]([H:9])([H:10])[O:3][C:4]([H:11])=[N:5][C:6]1([H:12])[H:13]>>[C:1]1([H:7])([H:8])[C:2]([H:9])([H:10])[O:3][C:4]([H:11])=[N+:5]=[C-:6]1.[H:12][H:13]"
C        0.48465054      -0.71998357       0.40733570
C       -0.93111540      -1.02557560      -0.08905272
O       -1.76079735       0.14481239      -0.15359400
C       -1.11234700       1.32265039      -0.14580607
N        0.13277875       1.46547588      -0.34644111
C        0.89767154       0.37002614      -0.55364604
H        0.42917052      -0.39782431       1.45158533
H        1.09406547      -1.62100652       0.34245688
H       -0.91262788      -1.47005954      -1.08639066
H       -1.43425023      -1.71060643       0.59232971
H       -1.78525403       2.15929805       0.00067493
H        2.57275914       0.85539829       0.17631491
H        2.32529593       0.62739482      -0.59576686
13
Frame=3 idx=004988 GeodesicLength=0.15388474042163885 rxn_smarts="[C:1]1([H:7])([H:8])[C:2]([H:9])([H:10])[O:3][C:4]([H:11])=[N:5][C:6]1([H:12])[H:13]>>[C:1]1([H:7])([H:8])[C:2]([H:9])([H:10])[O:3][C:4]([H:11])=[N+:5]=[C-:6]1.[H:12][H:13]"
C        0.47934711      -0.71694383       0.42304165
C       -0.92851022      -1.02466926      -0.09397155
O       -1.76194587       0.14280466      -0.16185812
C       -1.11774767       1.32283191      -0.14117439
N        0.12923323       1.47171818      -0.32448737
C        0.90374003       0.37957647      -0.52563715
H        0.40864725      -0.40080703       1.46822893
H        1.09083368      -1.61700865       0.36568500
H       -0.89502868      -1.46206779      -1.09413290
H       -1.43946172      -1.71634375       0.57473752
H       -1.79739439       2.15501166       0.00042284
H        2.59287881       0.85101324       0.14370178
H        2.33540844       0.61488416      -0.63455623
13
Frame=4 idx=004988 GeodesicLength=0.20495265422084205 rxn_smarts="[C:1]1([H:7])([H:8])[C:2]([H:9])([H:10])[O:3][C:4]([H:11])=[N:5][C:6]1([H:12])[H:13]>>[C:1]1([H:7])([H:8])[C:2]([H:9])([H:10])[O:3][C:4]([H:11])=[N+:5]=[C-:6]1.[H:12][H:13]"
C        0.47392277      -0.71377634       0.43966640
C       -0.92522375      -1.02356662      -0.09916004
O       -1.76250920       0.14087242      -0.17076772
C       -1.12296732       1.32312154      -0.13626942
N        0.12573902       1.47823704      -0.30103230
C        0.91028282       0.38970475      -0.49562110
H        0.38706208      -0.40416528       1.48561004
H        1.08755982      -1.61277726       0.38993773
H       -0.87578042      -1.45343129      -1.10201256
H       -1.44418517      -1.72213060       0.55605793
H       -1.80954719       2.15070075      -0.00038750
H        2.61304369       0.84580870       0.10879286
H        2.34260285       0.60140220      -0.67481432
13
Frame=5 idx=004988 GeodesicLength=0.25584897175826143 rxn_smarts="[C:1]1([H:7])([H:8])[C:2]([H:9])([H:10])[O:3][C:4]([H:11])=[N:5][C:6]1([H:12])[H:13]>>[C:1]1([H:7])([H:8])[C:2]([H:9])([H:10])[O:3][C:4]([H:11])=[N+:5]=[C-:6]1.[H:12][H:13]"
C        0.46835366      -0.71047163       0.45729897
C       -0.92118387      -1.02224616      -0.10468300
O       -1.76237696       0.13902900      -0.18062049
C       -1.12790825       1.32349446      -0.13144956
N        0.12235356       1.48495527      -0.27627672
C        0.91741687       0.40034489      -0.46347566
H        0.36427618      -0.40784346       1.50373353
H        1.08419530      -1.60830591       0.41547319
H       -0.85471218      -1.44415818      -1.11000541
H       -1.44839664      -1.72788719       0.53619877
H       -1.82146779       2.14628481      -0.00108708
H        2.63300858       0.83988826       0.07140118
H        2.34644155       0.58691584      -0.71650774
13
Frame=6 idx=004988 GeodesicLength=0.30670224049131256 rxn_smarts="[C:1]1([H:7])([H:8])[C:2]([H:9])([H:10])[O:3][C:4]([H:11])=[N:5][C:6]1([H:12])[H:13]>>[C:1]1([H:7])([H:8])[C:2]([H:9])([H:10])[O:3][C:4]([H:11])=[N+:5]=[C-:6]1.[H:12][H:13]"
C        0.46269508      -0.70708412       0.47593439
C       -0.91621352      -1.02071187      -0.11047990
O       -1.76142525       0.13735022      -0.19110894
C       -1.13255671       1.32409881      -0.12613905
N        0.11905519       1.49204522      -0.24976175
C        0.92517264       0.41167925      -0.42892724
H        0.34030315      -0.41204592       1.52261039
H        1.08084151      -1.60370639       0.44204151
H       -0.83155020      -1.43414521      -1.11808257
H       -1.45186680      -1.73373159       0.51510721
H       -1.83334460       2.14205384      -0.00286372
H        2.65255226       0.83278899       0.03135775
H        2.34633725       0.57140877      -0.75968807
13
Frame=7 idx=004988 GeodesicLength=0.356820468510835 rxn_smarts="[C:1]1([H:7])([H:8])[C:2]([H:9])([H:10])[O:3][C:4]([H:11])=[N:5][C:6]1([H:12])[H:13]>>[C:1]1([H:7])([H:8])[C:2]([H:9])([H:10])[O:3][C:4]([H:11])=[N+:5]=[C-:6]1.[H:12][H:13]"
C        0.45695765      -0.70358711       0.49551961
C       -0.91033107      -1.01882318      -0.11663671
O       -1.75942195       0.13581579      -0.20267019
C       -1.13652926       1.32460835      -0.12112900
N        0.11607354       1.49895038      -0.22220032
C        0.93369780       0.42322270      -0.39213849
H        0.31530666      -0.41658411       1.54202274
H        1.07728956      -1.59884704       0.46989943
H       -0.80654303      -1.42333591      -1.12614421
H       -1.45458695      -1.73920007       0.49277913
H       -1.84433873       2.13753301      -0.00435810
H        2.67082408       0.82518358      -0.01118130
H        2.34160170       0.55506363      -0.80376258
13
Frame=8 idx=004988 GeodesicLength=0.4070892871247177 rxn_smarts="[C:1]1([H:7])([H:8])[C:2]([H:9])([H:10])[O:3][C:4]([H:11])=[N:5][C:6]1([H:12])[H:13]>>[C:1]1([H:7])([H:8])[C:2]([H:9])([H:10])[O:3][C:4]([H:11])=[N+:5]=[C-:6]1.[H:12][H:13]"
C        0.45115401      -0.70011651       0.51624916
C       -0.90332334      -1.01665706      -0.12315495
O       -1.75636750       0.13461771      -0.21540328
C       -1.14001345       1.32541485      -0.11627853
N        0.11331874       1.50607002      -0.19331906
C        0.94311713       0.43520704      -0.35282692
H        0.28892292      -0.42172228       1.56219492
H        1.07374380      -1.59406580       0.49928259
H       -0.77903655      -1.41172609      -1.13422393
H       -1.45644181      -1.74459097       0.46913281
H       -1.85488253       2.13317545      -0.00588763
H        2.68790757       0.81662576      -0.05672807
H        2.33190101       0.53776788      -0.84903710
13
Frame=9 idx=004988 GeodesicLength=0.4568481862200331 rxn_smarts="[C:1]1([H:7])([H:8])[C:2]([H:9])([H:10])[O:3][C:4]([H:11])=[N:5][C:6]1([H:12])[H:13]>>[C:1]1([H:7])([H:8])[C:2]([H:9])([H:10])[O:3][C:4]([H:11])=[N+:5]=[C-:6]1.[H:12][H:13]"
C        0.44517147      -0.69612934       0.53798595
C       -0.89486938      -1.01421776      -0.13017376
O       -1.75163399       0.13346142      -0.22965242
C       -1.14250707       1.32629455      -0.11172200
N        0.11102066       1.51336528      -0.16310682
C        0.95335316       0.44795331      -0.31083097
H        0.26100705      -0.42663919       1.58261687
H        1.06987464      -1.58863612       0.53019554
H       -0.74859602      -1.39961746      -1.14209999
H       -1.45705349      -1.74977925       0.44378009
H       -1.86449810       2.12860363      -0.00658810
H        2.70290746       0.80625772      -0.10531999
H        2.31582361       0.51908321      -0.89508439
13
Frame=10 idx=004988 GeodesicLength=0.5065728026375506 rxn_smarts="[C:1]1([H:7])([H:8])[C:2]([H:9])([H:10])[O:3][C:4]([H:11])=[N:5][C:6]1([H:12])[H:13]>>[C:1]1([H:7])([H:8])[C:2]([H:9])([H:10])[O:3][C:4]([H:11])=[N+:5]=[C-:6]1.[H:12][H:13]"
C        0.43925734      -0.69220623       0.56038588
C       -0.88521730      -1.01142426      -0.13747520
O       -1.74546532       0.13276936      -0.24516751
C       -1.14398799       1.32736826      -0.10792381
N        0.10928467       1.52039053      -0.13251242
C        0.96456093       0.46058321      -0.26716887
H        0.23224986      -0.43194574       1.60312532
H        1.06586015      -1.58338957       0.56231262
H       -0.71600914      -1.38687301      -1.14966211
H       -1.45653832      -1.75444972       0.41751399
H       -1.87292909       2.12397250      -0.00654641
H        2.71506484       0.79537028      -0.15596102
H        2.29386937       0.49983439      -0.94092046
13
Frame=11 idx=004988 GeodesicLength=0.5562344955207388 rxn_smarts="[C:1]1([H:7])([H:8])[C:2]([H:9])([H:10])[O:3][C:4]([H:11])=[N:5][C:6]1([H:12])[H:13]>>[C:1]1([H:7])([H:8])[C:2]([H:9])([H:10])[O:3][C:4]([H:11])=[N+:5]=[C-:6]1.[H:12][H:13]"
C        0.43360825      -0.68853822       0.58314697
C       -0.87431932      -1.00825313      -0.14485977
O       -1.73770063       0.13266781      -0.26135486
C       -1.14426501       1.32865784      -0.10419278
N        0.10822202       1.52702067      -0.10108261
C        0.97665424       0.47294910      -0.22211635
H        0.20323703      -0.43803086       1.62340583
H        1.06178947      -1.57858041       0.59503118
H       -0.68158162      -1.37332971      -1.15668392
H       -1.45464654      -1.75860369       0.39054748
H       -1.88004177       2.11964166      -0.00767396
H        2.72358091       0.78400682      -0.20824906
H        2.26546297       0.48039212      -0.98591815
13
Frame=12 idx=004988 GeodesicLength=0.6058306122050984 rxn_smarts="[C:1]1([H:7])([H:8])[C:2]([H:9])([H:10])[O:3][C:4]([H:11])=[N:5][C:6]1([H:12])[H:13]>>[C:1]1([H:7])([H:8])[C:2]([H:9])([H:10])[O:3][C:4]([H:11])=[N+:5]=[C-:6]1.[H:12][H:13]"
C        0.42814177      -0.68462553       0.60542788
C       -0.86236781      -1.00505358      -0.15230856
O       -1.72819464       0.13277934      -0.27835344
C       -1.14304031       1.33011271      -0.10126245
N        0.10803276       1.53329779      -0.07024883
C        0.98938349       0.48507644      -0.17730958
H        0.17430902      -0.44352936       1.64244659
H        1.05731092      -1.57375268       0.62762674
H       -0.64589240      -1.36027666      -1.16290465
H       -1.45147590      -1.76229096       0.36343130
H       -1.88546560       2.11541614      -0.00753809
H        2.72783870       0.77193687      -0.26020025
H        2.23141998       0.46090949      -1.02880665
13
Frame=13 idx=004988 GeodesicLength=0.6553842011278418 rxn_smarts="[C:1]1([H:7])([H:8])[C:2]([H:9])([H:10])[O:3][C:4]([H:11])=[N:5][C:6]1([H:12])[H:13]>>[C:1]1([H:7])([H:8])[C:2]([H:9])([H:10])[O:3][C:4]([H:11])=[N+:5]=[C-:6]1.[H:12][H:13]"
C        0.42362524      -0.68174815       0.62660129
C       -0.85015369      -1.00158832      -0.15905173
O       -1.71793737       0.13365259      -0.29368144
C       -1.14067534       1.33152070      -0.09701571
N        0.10862691       1.53831520      -0.03899915
C        1.00257645       0.49568672      -0.13378767
H        0.14781878      -0.45060638       1.66029166
H        1.05319592      -1.57034152       0.65824934
H       -0.61143263      -1.34658802      -1.16821635
H       -1.44727129      -1.76524015       0.33745606
H       -1.88894273       2.11239372      -0.01307703
H        2.72753225       0.76140477      -0.31022281
H        2.19303750       0.44313885      -1.06854646
13
Frame=14 idx=004988 GeodesicLength=0.7049785182505702 rxn_smarts="[C:1]1([H:7])([H:8])[C:2]([H:9])([H:10])[O:3][C:4]([H:11])=[N:5][C:6]1([H:12])[H:13]>>[C:1]1([H:7])([H:8])[C:2]([H:9])([H:10])[O:3][C:4]([H:11])=[N+:5]=[C-:6]1.[H:12][H:13]"
C        0.41943634      -0.67866128       0.64573715
C       -0.83808612      -0.99836730      -0.16546268
O       -1.70703398       0.13457460      -0.30907876
C       -1.13715874       1.33289118      -0.09486578
N        0.10995918       1.54246488      -0.01131110
C        1.01573724       0.50512447      -0.09415799
H        0.12308388      -0.45618625       1.67559613
H        1.04859615      -1.56707840       0.68706373
H       -0.57856539      -1.33457788      -1.17246015
H       -1.44260679      -1.76741319       0.31327606
H       -1.89081661       2.10908568      -0.01479109
H        2.72375709       0.75203467      -0.35544716
H        2.15369775       0.42610882      -1.10409838
13
Frame=15 idx=004988 GeodesicLength=0.7546796825607494 rxn_smarts="[C:1]1([H:7])([H:8])[C:2]([H:9])([H:10])[O:3][C:4]([H:11])=[N:5][C:6]1([H:12])[H:13]>>[C:1]1([H:7])([H:8])[C:2]([H:9])([H:10])[O:3][C:4]([H:11])=[N+:5]=[C-:6]1.[H:12][H:13]"
C        0.41596811      -0.67619944       0.66293815
C       -0.82656328      -0.99531044      -0.17111777
O       -1.69623188       0.13583437      -0.32286759
C       -1.13301686       1.33423387      -0.09275091
N        0.11176131       1.54558933       0.01446115
C        1.02878544       0.51304120      -0.05806212
H        0.10106944      -0.46191319       1.68904668
H        1.04412376      -1.56488413       0.71324572
H       -0.54829721      -1.32335398      -1.17585294
H       -1.43769356      -1.76904405       0.29127193
H       -1.89131364       2.10655029      -0.01832937
H        2.71726538       0.74469627      -0.39602526
H        2.11414300       0.41075990      -1.13595768
13
Frame=16 idx=004988 GeodesicLength=0.8044481121086974 rxn_smarts="[C:1]1([H:7])([H:8])[C:2]([H:9])([H:10])[O:3][C:4]([H:11])=[N:5][C:6]1([H:12])[H:13]>>[C:1]1([H:7])([H:8])[C:2]([H:9])([H:10])[O:3][C:4]([H:11])=[N+:5]=[C-:6]1.[H:12][H:13]"
C        0.41302292      -0.67407163       0.67836331
C       -0.81560525      -0.99247302      -0.17617451
O       -1.68556913       0.13723119      -0.33547968
C       -1.12836841       1.33550462      -0.09102085
N        0.11393047       1.54788631       0.03813462
C        1.04163115       0.51974230      -0.02531995
H        0.08129511      -0.46733197       1.70075175
H        1.03963088      -1.56335893       0.73717283
H       -0.52035336      -1.31311154      -1.17851793
H       -1.43269894      -1.77023419       0.27119471
H       -1.89071961       2.10445297      -0.02228186
H        2.70887179       0.73900382      -0.43219564
H        2.07493239       0.39676007      -1.16462683
