13
Frame=0 idx=000470 GeodesicLength=0.0 rxn_smarts="[O:1]([C@@:2]1([H:8])[C:3]([H:9])([H:10])[C@@:4]2([H:11])[N:5]([H:12])[C@@:6]12[H:13])[H:7]>>[H:12][H:13].[O:1]([C@@:2]1([H:8])[C:3]([H:9])([H:10])[C@:6]12[C:4]([H:11])=[N:5]2)[H:7]"
O        1.86759264       0.67864270       0.45483229
C        1.03885418       0.19706068      -0.53690508
C        0.44303749      -1.15849991      -0.37340080
C       -1.16495378      -0.57031938       0.33820528
N       -0.83079684       0.30356142       1.22202043
C       -0.44102593       0.45687504      -0.38960936
H        1.32831882       0.72273609       1.25858509
H        1.43439829       0.44042885      -1.51588859
H        0.78066766      -1.73109014       0.48099662
H        0.22385852      -1.70739283      -1.28064522
H       -1.96622271      -1.28600374       0.19329091
H       -1.45576335       1.81880243       0.47226067
H       -1.25796493       1.83519880      -0.32374230
13
Frame=1 idx=000470 GeodesicLength=0.07512085225390187 rxn_smarts="[O:1]([C@@:2]1([H:8])[C:3]([H:9])([H:10])[C@@:4]2([H:11])[N:5]([H:12])[C@@:6]12[H:13])[H:7]>>[H:12][H:13].[O:1]([C@@:2]1([H:8])[C:3]([H:9])([H:10])[C@:6]12[C:4]([H:11])=[N:5]2)[H:7]"
O        1.86717761       0.68776499       0.45004484
C        1.03632039       0.19825037      -0.53699512
C        0.44512527      -1.16266550      -0.37036874
C       -1.17497111      -0.57901387       0.33341855
N       -0.83869731       0.30303997       1.21401549
C       -0.44267007       0.44611364      -0.38590230
H        1.33378074       0.72981807       1.25729928
H        1.42640021       0.44164685      -1.51839993
H        0.79298961      -1.73184045       0.48268394
H        0.23996662      -1.71812548      -1.27718696
H       -1.98926767      -1.27864806       0.18521429
H       -1.44589875       1.82187016       0.48921553
H       -1.25025555       1.84178931      -0.32303887
13
Frame=2 idx=000470 GeodesicLength=0.150232164904663 rxn_smarts="[O:1]([C@@:2]1([H:8])[C:3]([H:9])([H:10])[C@@:4]2([H:11])[N:5]([H:12])[C@@:6]12[H:13])[H:7]>>[H:12][H:13].[O:1]([C@@:2]1([H:8])[C:3]([H:9])([H:10])[C@:6]12[C:4]([H:11])=[N:5]2)[H:7]"
O        1.86668987       0.69697945       0.44509095
C        1.03372889       0.19939026      -0.53710096
C        0.44725016      -1.16689644      -0.36721308
C       -1.18506052      -0.58776811       0.32846453
N       -0.84665094       0.30225819       1.20602806
C       -0.44427882       0.43527009      -0.38213757
H        1.33930929       0.73706939       1.25586995
H        1.41827693       0.44268538      -1.52095088
H        0.80548995      -1.73246851       0.48442884
H        0.25629627      -1.72882758      -1.27344763
H       -2.01253236      -1.27052455       0.17675862
H       -1.43597892       1.82461002       0.50663994
H       -1.24253981       1.84822242      -0.32243077
13
Frame=3 idx=000470 GeodesicLength=0.2253263066573467 rxn_smarts="[O:1]([C@@:2]1([H:8])[C:3]([H:9])([H:10])[C@@:4]2([H:11])[N:5]([H:12])[C@@:6]12[H:13])[H:7]>>[H:12][H:13].[O:1]([C@@:2]1([H:8])[C:3]([H:9])([H:10])[C@:6]12[C:4]([H:11])=[N:5]2)[H:7]"
O        1.86613058       0.70627031       0.43997701
C        1.03108246       0.20047921      -0.53721956
C        0.44940710      -1.17119036      -0.36393846
C       -1.19522776      -0.59656715       0.32332834
N       -0.85466060       0.30123355       1.19804953
C       -0.44584731       0.42435040      -0.37831970
H        1.34490680       0.74447171       1.25430148
H        1.41004328       0.44353982      -1.52353329
H        0.81815170      -1.73297436       0.48622260
H        0.27282947      -1.73947886      -1.26943426
H       -2.03595616      -1.26164179       0.16796672
H       -1.42602457       1.82700924       0.52454478
H       -1.23483500       1.85449828      -0.32194519
13
Frame=4 idx=000470 GeodesicLength=0.30039505542806144 rxn_smarts="[O:1]([C@@:2]1([H:8])[C:3]([H:9])([H:10])[C@@:4]2([H:11])[N:5]([H:12])[C@@:6]12[H:13])[H:7]>>[H:12][H:13].[O:1]([C@@:2]1([H:8])[C:3]([H:9])([H:10])[C@:6]12[C:4]([H:11])=[N:5]2)[H:7]"
O        1.86550105       0.71562079       0.43471136
C        1.02838407       0.20151670      -0.53734725
C        0.45158990      -1.17554416      -0.36055062
C       -1.20547889      -0.60539328       0.31799448
N       -0.86272944       0.29998617       1.19007029
C       -0.44737090       0.41336177      -0.37445408
H        1.35057542       0.75200468       1.25259993
H        1.40171569       0.44420718      -1.52613786
H        0.83095524      -1.73335917       0.48805527
H        0.28954540      -1.75005769      -1.26515617
H       -2.05947383      -1.25201967       0.15888819
H       -1.41605639       1.82905731       0.54294029
H       -1.22715732       1.86061936      -0.32161383
13
Frame=5 idx=000470 GeodesicLength=0.3754301347332194 rxn_smarts="[O:1]([C@@:2]1([H:8])[C:3]([H:9])([H:10])[C@@:4]2([H:11])[N:5]([H:12])[C@@:6]12[H:13])[H:7]>>[H:12][H:13].[O:1]([C@@:2]1([H:8])[C:3]([H:9])([H:10])[C@:6]12[C:4]([H:11])=[N:5]2)[H:7]"
O        1.86480263       0.72501403       0.42930370
C        1.02563666       0.20250277      -0.53747985
C        0.45379149      -1.17995416      -0.35705567
C       -1.21582015      -0.61422640       0.31244749
N       -0.87086087       0.29853856       1.18208014
C       -0.44884546       0.40231228      -0.37054650
H        1.35631748       0.75964632       1.25077275
H        1.39331126       0.44468595      -1.52875456
H        0.84387895      -1.73362486       0.48991663
H        0.30642107      -1.76054176      -1.26062409
H       -2.08301758      -1.24168861       0.14957507
H       -1.40609109       1.83074729       0.56183797
H       -1.21952439       1.86658859      -0.32147308
13
Frame=6 idx=000470 GeodesicLength=0.4504232952730225 rxn_smarts="[O:1]([C@@:2]1([H:8])[C:3]([H:9])([H:10])[C@@:4]2([H:11])[N:5]([H:12])[C@@:6]12[H:13])[H:7]>>[H:12][H:13].[O:1]([C@@:2]1([H:8])[C:3]([H:9])([H:10])[C@:6]12[C:4]([H:11])=[N:5]2)[H:7]"
O        1.86403775       0.73443167       0.42376643
C        1.02284374       0.20343807      -0.53761238
C        0.45600422      -1.18441620      -0.35346114
C       -1.22625691      -0.62304353       0.30667358
N       -0.87905818       0.29691765       1.17406909
C       -0.45026721       0.39121132      -0.36660305
H        1.36213640       0.76737130       1.24883041
H        1.38484873       0.44497685      -1.53137247
H        0.85690036      -1.73377560       0.49179458
H        0.32343039      -1.77090729      -1.25585229
H       -2.10651776      -1.23068972       0.14008553
H       -1.39614738       1.83207503       0.58124778
H       -1.21195417       1.87241045      -0.32156607
13
Frame=7 idx=000470 GeodesicLength=0.5253648336505136 rxn_smarts="[O:1]([C@@:2]1([H:8])[C:3]([H:9])([H:10])[C@@:4]2([H:11])[N:5]([H:12])[C@@:6]12[H:13])[H:7]>>[H:12][H:13].[O:1]([C@@:2]1([H:8])[C:3]([H:9])([H:10])[C@:6]12[C:4]([H:11])=[N:5]2)[H:7]"
O        1.86320687       0.74385771       0.41811224
C        1.02000758       0.20432515      -0.53773865
C        0.45821817      -1.18892417      -0.34977383
C       -1.23679434      -0.63182046       0.30065831
N       -0.88732386       0.29515021       1.16602468
C       -0.45163242       0.38006851      -0.36262960
H        1.36803450       0.77515442       1.24678269
H        1.37634636       0.44508325      -1.53397786
H        0.86999203      -1.73381336       0.49367762
H        0.34054460      -1.78113053      -1.25085258
H       -2.12990424      -1.21907709       0.13047420
H       -1.38622402       1.83304065       0.60118490
H       -1.20447122       1.87808572      -0.32194210
13
Frame=8 idx=000470 GeodesicLength=0.6002638020963419 rxn_smarts="[O:1]([C@@:2]1([H:8])[C:3]([H:9])([H:10])[C@@:4]2([H:11])[N:5]([H:12])[C@@:6]12[H:13])[H:7]>>[H:12][H:13].[O:1]([C@@:2]1([H:8])[C:3]([H:9])([H:10])[C@:6]12[C:4]([H:11])=[N:5]2)[H:7]"
O        1.86229965       0.75330625       0.41232758
C        1.01712254       0.20515978      -0.53786407
C        0.46043335      -1.19348209      -0.34598006
C       -1.24744691      -0.64055278       0.29437731
N       -0.89566922       0.29323229       1.15793974
C       -0.45294736       0.36888037      -0.35863091
H        1.37400960       0.78300333       1.24461911
H        1.36779433       0.44499199      -1.53658095
H        0.88315640      -1.73372590       0.49558539
H        0.35777381      -1.79122386      -1.24560652
H       -2.15316033      -1.20684905       0.12070806
H       -1.37628499       1.83364016       0.62171509
H       -1.19708087       1.88361951      -0.32260976
13
Frame=9 idx=000470 GeodesicLength=0.6751242802699502 rxn_smarts="[O:1]([C@@:2]1([H:8])[C:3]([H:9])([H:10])[C@@:4]2([H:11])[N:5]([H:12])[C@@:6]12[H:13])[H:7]>>[H:12][H:13].[O:1]([C@@:2]1([H:8])[C:3]([H:9])([H:10])[C@:6]12[C:4]([H:11])=[N:5]2)[H:7]"
O        1.86130408       0.76279067       0.40639849
C        1.01418266       0.20593812      -0.53799248
C        0.46264569      -1.19809154      -0.34206628
C       -1.25822927      -0.64923383       0.28780188
N       -0.90410420       0.29115867       1.14980321
C       -0.45421656       0.35764455      -0.35461145
H        1.38005452       0.79093645       1.24232358
H        1.35918591       0.44468639      -1.53918771
H        0.89638829      -1.73350037       0.49753414
H        0.37512379      -1.80119472      -1.24009376
H       -2.17626466      -1.19401304       0.11075964
H       -1.36629244       1.83385954       0.64290788
H       -1.18977782       1.88901911      -0.32357714
13
Frame=10 idx=000470 GeodesicLength=0.7499398527902569 rxn_smarts="[O:1]([C@@:2]1([H:8])[C:3]([H:9])([H:10])[C@@:4]2([H:11])[N:5]([H:12])[C@@:6]12[H:13])[H:7]>>[H:12][H:13].[O:1]([C@@:2]1([H:8])[C:3]([H:9])([H:10])[C@:6]12[C:4]([H:11])=[N:5]2)[H:7]"
O        1.86022218       0.77229526       0.40033442
C        1.01119017       0.20666207      -0.53812007
C        0.46484548      -1.20274632      -0.33803641
C       -1.26914673      -0.65783513       0.28091635
N       -0.91263148       0.28895700       1.14160458
C       -0.45543781       0.34637303      -0.35057667
H        1.38617170       0.79894026       1.23990230
H        1.35053849       0.44416774      -1.54178916
H        0.90966103      -1.73313713       0.49951833
H        0.39256568      -1.81102783      -1.23431900
H       -2.19915496      -1.18062966       0.10066269
H       -1.35623494       1.83369300       0.66479969
H       -1.18258881       1.89428772      -0.32489705
13
Frame=11 idx=000470 GeodesicLength=0.8247185651873509 rxn_smarts="[O:1]([C@@:2]1([H:8])[C:3]([H:9])([H:10])[C@@:4]2([H:11])[N:5]([H:12])[C@@:6]12[H:13])[H:7]>>[H:12][H:13].[O:1]([C@@:2]1([H:8])[C:3]([H:9])([H:10])[C@:6]12[C:4]([H:11])=[N:5]2)[H:7]"
O        1.85904245       0.78183767       0.39411675
C        1.00813842       0.20732768      -0.53825291
C        0.46703013      -1.20744869      -0.33387298
C       -1.28021271      -0.66634815       0.27369250
N       -0.92126212       0.28662480       1.13333479
C       -0.45661706       0.33506484      -0.34652989
H        1.39235910       0.80703133       1.23733809
H        1.34184153       0.44341776      -1.54439586
H        0.92297212      -1.73262125       0.50156126
H        0.41010417      -1.82073437      -1.22825706
H       -2.22181440      -1.16670675       0.09037280
H       -1.34607294       1.83311990       0.68747455
H       -1.17550869       1.89943523      -0.32658204
13
Frame=12 idx=000470 GeodesicLength=0.8994675972987769 rxn_smarts="[O:1]([C@@:2]1([H:8])[C:3]([H:9])([H:10])[C@@:4]2([H:11])[N:5]([H:12])[C@@:6]12[H:13])[H:7]>>[H:12][H:13].[O:1]([C@@:2]1([H:8])[C:3]([H:9])([H:10])[C@:6]12[C:4]([H:11])=[N:5]2)[H:7]"
O        1.85775216       0.79143568       0.38772376
C        1.00502003       0.20793139      -0.53839809
C        0.46919622      -1.21219930      -0.32955692
C       -1.29144241      -0.67476269       0.26609630
N       -0.93000868       0.28415687       1.12498208
C       -0.45776042       0.32371981      -0.34247577
H        1.39861328       0.81523098       1.23460986
H        1.33308484       0.44241603      -1.54701919
H        0.93631669      -1.73193210       0.50369000
H        0.42774703      -1.83032740      -1.22187691
H       -2.24422939      -1.15225194       0.07983967
H       -1.33575146       1.83211393       0.71103029
H       -1.16853790       1.90446875      -0.32864508
13
Frame=13 idx=000470 GeodesicLength=0.9741969248282738 rxn_smarts="[O:1]([C@@:2]1([H:8])[C:3]([H:9])([H:10])[C@@:4]2([H:11])[N:5]([H:12])[C@@:6]12[H:13])[H:7]>>[H:12][H:13].[O:1]([C@@:2]1([H:8])[C:3]([H:9])([H:10])[C@:6]12[C:4]([H:11])=[N:5]2)[H:7]"
O        1.85633625       0.80111038       0.38113075
C        1.00182635       0.20846926      -0.53856335
C        0.47134004      -1.21699862      -0.32506595
C       -1.30284997      -0.68306864       0.25809682
N       -0.93888483       0.28155022       1.11653578
C       -0.45887548       0.31233697      -0.33841773
H        1.40493208       0.82355931       1.23169518
H        1.32425546       0.44114101      -1.54967156
H        0.94968876      -1.73104709       0.50593611
H        0.44550308      -1.83981876      -1.21514374
H       -2.26638513      -1.13726739       0.06899595
H       -1.32519300       1.83064626       0.73557865
H       -1.16169360       1.90938710      -0.33110691
13
Frame=14 idx=000470 GeodesicLength=1.048912728217331 rxn_smarts="[O:1]([C@@:2]1([H:8])[C:3]([H:9])([H:10])[C@@:4]2([H:11])[N:5]([H:12])[C@@:6]12[H:13])[H:7]>>[H:12][H:13].[O:1]([C@@:2]1([H:8])[C:3]([H:9])([H:10])[C@:6]12[C:4]([H:11])=[N:5]2)[H:7]"
O        1.85478060       0.81087948       0.37431511
C        0.99855072       0.20893884      -0.53875678
C        0.47345756      -1.22184514      -0.32038015
C       -1.31444786      -0.69125181       0.24965626
N       -0.94790425       0.27880435       1.10798155
C       -0.45996747       0.30091878      -0.33436118
H        1.41131265       0.83203573       1.22857201
H        1.31534507       0.43957067      -1.55236477
H        0.96308357      -1.72994225       0.50832653
H        0.46337705      -1.84922023      -1.20802234
H       -2.28826928      -1.12175609       0.05779406
H       -1.31434096       1.82867045       0.76123216
H       -1.15497740       1.91419722      -0.33399246
13
Frame=15 idx=000470 GeodesicLength=1.1236086215481336 rxn_smarts="[O:1]([C@@:2]1([H:8])[C:3]([H:9])([H:10])[C@@:4]2([H:11])[N:5]([H:12])[C@@:6]12[H:13])[H:7]>>[H:12][H:13].[O:1]([C@@:2]1([H:8])[C:3]([H:9])([H:10])[C@:6]12[C:4]([H:11])=[N:5]2)[H:7]"
O        1.85308677       0.82073855       0.36728209
C        0.99519692       0.20934515      -0.53897375
C        0.47554030      -1.22672867      -0.31549855
C       -1.32623149      -0.69927875       0.24076834
N       -0.95706732       0.27596075       1.09931038
C       -0.46103402       0.28947901      -0.33030727
H        1.41777103       0.84063537       1.22524816
H        1.30637268       0.43770528      -1.55508943
H        0.97647982      -1.72861687       0.51085626
H        0.48132603      -1.85851184      -1.20051226
H       -2.30983266      -1.10576700       0.04625266
H       -1.30318915       1.82614263       0.78805573
H       -1.14841892       1.91889640      -0.33739235
13
Frame=16 idx=000470 GeodesicLength=1.1982928808116784 rxn_smarts="[O:1]([C@@:2]1([H:8])[C:3]([H:9])([H:10])[C@@:4]2([H:11])[N:5]([H:12])[C@@:6]12[H:13])[H:7]>>[H:12][H:13].[O:1]([C@@:2]1([H:8])[C:3]([H:9])([H:10])[C@:6]12[C:4]([H:11])=[N:5]2)[H:7]"
O        1.85124010       0.83070848       0.36000282
C        0.99175676       0.20968520      -0.53922336
C        0.47758385      -1.23164696      -0.31039546
C       -1.33821211      -0.70713422       0.23139757
N       -0.96638998       0.27302124       1.09050854
C       -0.46208198       0.27801980      -0.32625910
H        1.42430648       0.84938518       1.22169526
H        1.29732489       0.43552264      -1.55785929
H        0.98987170      -1.72704421       0.51355953
H        0.49935546      -1.86770581      -1.19257185
H       -2.33106754      -1.08929579       0.03430230
H       -1.29166417       1.82299734       0.81619063
H       -1.14202346       1.92348711      -0.34134759
