13
Frame=0 idx=001553 GeodesicLength=0.0 rxn_smarts="[N:1](=[C:2]1/[C:3]([H:8])([H:9])[C:4]([H:10])([H:11])[C:5]([H:12])([H:13])[O:6]1)\[H:7]>>[N:1](=[C:2]=[C:3]([C:4]([C:5]([O:6][H:9])([H:12])[H:13])([H:10])[H:11])[H:8])[H:7]"
N        2.46651605      -0.09311391      -0.03650546
C        1.29191414      -0.29297380       0.16049081
C        0.15322099      -1.03995492       0.45452089
C       -1.04809464      -0.57829579      -0.35294847
C       -0.86808725       0.97551703      -0.33777382
O        0.17857830       1.23992207       0.56404420
H        2.89922167       0.78872802       0.19134697
H        0.28560240      -2.07175319       0.75297862
H        0.05787429       0.11301615       1.19688461
H       -1.97239672      -0.90301697       0.12833552
H       -1.05351538      -0.96179548      -1.37469344
H       -1.78226221       1.47860879      -0.01200683
H       -0.60857167       1.34511203      -1.33467363
13
Frame=1 idx=001553 GeodesicLength=0.06348181111122173 rxn_smarts="[N:1](=[C:2]1/[C:3]([H:8])([H:9])[C:4]([H:10])([H:11])[C:5]([H:12])([H:13])[O:6]1)\[H:7]>>[N:1](=[C:2]=[C:3]([C:4]([C:5]([O:6][H:9])([H:12])[H:13])([H:10])[H:11])[H:8])[H:7]"
N        2.46941115      -0.09803472      -0.03886543
C        1.29119959      -0.28851678       0.15587731
C        0.15467786      -1.03863731       0.45680015
C       -1.04725340      -0.57775460      -0.35144918
C       -0.86917932       0.97414693      -0.34169315
O        0.17862179       1.24453694       0.55958141
H        2.90141351       0.78257287       0.19727971
H        0.29348921      -2.07507619       0.73567749
H        0.04679337       0.12089976       1.21839517
H       -1.97104779      -0.89956563       0.13293869
H       -1.05491406      -0.96466029      -1.37180913
H       -1.78331183       1.47647870      -0.01442968
H       -0.60990008       1.34361033      -1.33830336
13
Frame=2 idx=001553 GeodesicLength=0.12696178219104176 rxn_smarts="[N:1](=[C:2]1/[C:3]([H:8])([H:9])[C:4]([H:10])([H:11])[C:5]([H:12])([H:13])[O:6]1)\[H:7]>>[N:1](=[C:2]=[C:3]([C:4]([C:5]([O:6][H:9])([H:12])[H:13])([H:10])[H:11])[H:8])[H:7]"
N        2.47232417      -0.10295155      -0.04137544
C        1.29056713      -0.28416743       0.15091627
C        0.15625853      -1.03735715       0.45898398
C       -1.04633970      -0.57725355      -0.35001089
C       -0.87022635       0.97273394      -0.34555121
O        0.17867460       1.24894299       0.55525672
H        2.90354175       0.77633829       0.20322081
H        0.30124257      -2.07794720       0.71871378
H        0.03530944       0.12891305       1.23995517
H       -1.96959911      -0.89620311       0.13746304
H       -1.05626570      -0.96749611      -1.36899325
H       -1.78431268       1.47427896      -0.01674926
H       -0.61117465       1.34216886      -1.34182972
13
Frame=3 idx=001553 GeodesicLength=0.19043982064154535 rxn_smarts="[N:1](=[C:2]1/[C:3]([H:8])([H:9])[C:4]([H:10])([H:11])[C:5]([H:12])([H:13])[O:6]1)\[H:7]>>[N:1](=[C:2]=[C:3]([C:4]([C:5]([O:6][H:9])([H:12])[H:13])([H:10])[H:11])[H:8])[H:7]"
N        2.47526348      -0.10786176      -0.04404154
C        1.29002022      -0.27992289       0.14558333
C        0.15797205      -1.03610820       0.46106101
C       -1.04535412      -0.57679136      -0.34863164
C       -0.87122992       0.97128045      -0.34935065
O        0.17874350       1.25314384       0.55106120
H        2.90561306       0.77001307       0.20919703
H        0.30887327      -2.08038850       0.70209484
H        0.02339512       0.13706682       1.26157054
H       -1.96804645      -0.89292916       0.14191996
H       -1.05758033      -0.97030414      -1.36624333
H       -1.78526410       1.47201215      -0.01896304
H       -0.61240578       1.34078967      -1.34525772
13
Frame=4 idx=001553 GeodesicLength=0.25391574336210015 rxn_smarts="[N:1](=[C:2]1/[C:3]([H:8])([H:9])[C:4]([H:10])([H:11])[C:5]([H:12])([H:13])[O:6]1)\[H:7]>>[N:1](=[C:2]=[C:3]([C:4]([C:5]([O:6][H:9])([H:12])[H:13])([H:10])[H:11])[H:8])[H:7]"
N        2.47823688      -0.11276532      -0.04686448
C        1.28956216      -0.27578204       0.13986044
C        0.15982612      -1.03488490       0.46302340
C       -1.04429555      -0.57636662      -0.34731017
C       -0.87218939       0.96978888      -0.35309248
O        0.17883457       1.25714113       0.54699151
H        2.90762818       0.76359221       0.21521447
H        0.31638991      -2.08242367       0.68582740
H        0.01101761       0.14537134       1.28325016
H       -1.96638565      -0.88974355       0.14631647
H       -1.05886273      -0.97308439      -1.36355793
H       -1.78616406       1.46968096      -0.02106940
H       -0.61359805       1.33947596      -1.34858939
13
Frame=5 idx=001553 GeodesicLength=0.317389431138406 rxn_smarts="[N:1](=[C:2]1/[C:3]([H:8])([H:9])[C:4]([H:10])([H:11])[C:5]([H:12])([H:13])[O:6]1)\[H:7]>>[N:1](=[C:2]=[C:3]([C:4]([C:5]([O:6][H:9])([H:12])[H:13])([H:10])[H:11])[H:8])[H:7]"
N        2.48125081      -0.11765995      -0.04985168
C        1.28919622      -0.27174318       0.13372770
C        0.16182927      -1.03368073       0.46486434
C       -1.04316302      -0.57597813      -0.34604371
C       -0.87310432       0.96826146      -0.35677813
O        0.17895380       1.26093657       0.54304362
H        2.90958927       0.75706597       0.22128891
H        0.32380352      -2.08407550       0.66991341
H       -0.00185742       0.15383950       1.30500193
H       -1.96461208      -0.88664579       0.15066239
H       -1.06011889      -0.97583820      -1.36093354
H       -1.78701065       1.46728831      -0.02306768
H       -0.61475651       1.33822967      -1.35182756
13
Frame=6 idx=001553 GeodesicLength=0.38086076158991433 rxn_smarts="[N:1](=[C:2]1/[C:3]([H:8])([H:9])[C:4]([H:10])([H:11])[C:5]([H:12])([H:13])[O:6]1)\[H:7]>>[N:1](=[C:2]=[C:3]([C:4]([C:5]([O:6][H:9])([H:12])[H:13])([H:10])[H:11])[H:8])[H:7]"
N        2.48431080      -0.12254372      -0.05301082
C        1.28892558      -0.26780525       0.12716797
C        0.16398978      -1.03248922       0.46657939
C       -1.04195471      -0.57562473      -0.34482907
C       -0.87397306       0.96670024      -0.36040828
O        0.17910681       1.26453082       0.53921635
H        2.91149609       0.75042585       0.22742930
H        0.33112511      -2.08536682       0.65435192
H       -0.01526846       0.16248520       1.32683480
H       -1.96272090      -0.88363528       0.15496663
H       -1.06135266      -0.97856692      -1.35836610
H       -1.78780126       1.46483719      -0.02495833
H       -0.61588312       1.33705265      -1.35497377
13
Frame=7 idx=001553 GeodesicLength=0.4443295584321528 rxn_smarts="[N:1](=[C:2]1/[C:3]([H:8])([H:9])[C:4]([H:10])([H:11])[C:5]([H:12])([H:13])[O:6]1)\[H:7]>>[N:1](=[C:2]=[C:3]([C:4]([C:5]([O:6][H:9])([H:12])[H:13])([H:10])[H:11])[H:8])[H:7]"
N        2.48742186      -0.12741715      -0.05634537
C        1.28875330      -0.26396898       0.12016977
C        0.16631486      -1.03130507       0.46816669
C       -1.04066727      -0.57530522      -0.34366369
C       -0.87479172       0.96510727      -0.36398202
O        0.17929873       1.26792236       0.53551408
H        2.91334363       0.74366953       0.23362563
H        0.33836354      -2.08632079       0.63914261
H       -0.02926006       0.17132162       1.34875992
H       -1.96070738      -0.88071156       0.15923419
H       -1.06256348      -0.98127064      -1.35585269
H       -1.78853186       1.46233069      -0.02674257
H       -0.61697418       1.33594793      -1.35802656
13
Frame=8 idx=001553 GeodesicLength=0.5077956277887381 rxn_smarts="[N:1](=[C:2]1/[C:3]([H:8])([H:9])[C:4]([H:10])([H:11])[C:5]([H:12])([H:13])[O:6]1)\[H:7]>>[N:1](=[C:2]=[C:3]([C:4]([C:5]([O:6][H:9])([H:12])[H:13])([H:10])[H:11])[H:8])[H:7]"
N        2.49058792      -0.13228093      -0.05986089
C        1.28868240      -0.26023574       0.11272424
C        0.16881157      -1.03012331       0.46962617
C       -1.03929653      -0.57501851      -0.34254478
C       -0.87555524       0.96348444      -0.36749758
O        0.17953441       1.27110854       0.53194405
H        2.91512583       0.73679572       0.23986220
H        0.34552755      -2.08696004       0.62428434
H       -0.04388161       0.18036287       1.37078888
H       -1.95856664      -0.87787434       0.16346897
H       -1.06374873      -0.98394928      -1.35339020
H       -1.78919778       1.45977184      -0.02842236
H       -0.61802315       1.33491876      -1.36098304
13
Frame=9 idx=001553 GeodesicLength=0.571258658246012 rxn_smarts="[N:1](=[C:2]1/[C:3]([H:8])([H:9])[C:4]([H:10])([H:11])[C:5]([H:12])([H:13])[O:6]1)\[H:7]>>[N:1](=[C:2]=[C:3]([C:4]([C:5]([O:6][H:9])([H:12])[H:13])([H:10])[H:11])[H:8])[H:7]"
N        2.49381219      -0.13713840      -0.06355933
C        1.28871574      -0.25660882       0.10482904
C        0.17148570      -1.02894049       0.47096032
C       -1.03783692      -0.57476351      -0.34147015
C       -0.87625608       0.96183358      -0.37095147
O        0.17981821       1.27408432       0.52851960
H        2.91683294       0.72981040       0.24610328
H        0.35262371      -2.08730767       0.60977712
H       -0.05918982       0.18962213       1.39293516
H       -1.95629414      -0.87512347       0.16767087
H       -1.06490142      -0.98660143      -1.35097672
H       -1.78979284       1.45716380      -0.03000064
H       -0.61901726       1.33396956      -1.36383708
13
Frame=10 idx=001553 GeodesicLength=0.6347186366266147 rxn_smarts="[N:1](=[C:2]1/[C:3]([H:8])([H:9])[C:4]([H:10])([H:11])[C:5]([H:12])([H:13])[O:6]1)\[H:7]>>[N:1](=[C:2]=[C:3]([C:4]([C:5]([O:6][H:9])([H:12])[H:13])([H:10])[H:11])[H:8])[H:7]"
N        2.49709626      -0.14198459      -0.06746312
C        1.28885646      -0.25308806       0.09647058
C        0.17434680      -1.02775043       0.47216875
C       -1.03628458      -0.57453976      -0.34043445
C       -0.87688996       0.96015595      -0.37434240
O        0.18015525       1.27684708       0.52524626
H        2.91846452       0.72270031       0.25235663
H        0.35966559      -2.08738256       0.59561500
H       -0.07523893       0.19911929       1.41520591
H       -1.95388368      -0.87245895       0.17184952
H       -1.06602236      -0.98922919      -1.34860579
H       -1.79031306       1.45450919      -0.03147988
H       -0.61995231       1.33310170      -1.36658702
13
Frame=11 idx=001553 GeodesicLength=0.6981754859434051 rxn_smarts="[N:1](=[C:2]1/[C:3]([H:8])([H:9])[C:4]([H:10])([H:11])[C:5]([H:12])([H:13])[O:6]1)\[H:7]>>[N:1](=[C:2]=[C:3]([C:4]([C:5]([O:6][H:9])([H:12])[H:13])([H:10])[H:11])[H:8])[H:7]"
N        2.50044138      -0.14681787      -0.07158886
C        1.28910748      -0.24967547       0.08764361
C        0.17740293      -1.02654902       0.47325379
C       -1.03463395      -0.57434677      -0.33943317
C       -0.87744959       0.95845274      -0.37766689
O        0.18055003       1.27939151       0.52213687
H        2.92001532       0.71546116       0.25860431
H        0.36666392      -2.08720452       0.58179376
H       -0.09209163       0.20887313       1.43761040
H       -1.95132942      -0.86988097       0.17600959
H       -1.06710712      -0.99183283      -1.34627258
H       -1.79075266       1.45181080      -0.03286360
H       -0.62081669       1.33231812      -1.36922722
13
Frame=12 idx=001553 GeodesicLength=0.7616297352731249 rxn_smarts="[N:1](=[C:2]1/[C:3]([H:8])([H:9])[C:4]([H:10])([H:11])[C:5]([H:12])([H:13])[O:6]1)\[H:7]>>[N:1](=[C:2]=[C:3]([C:4]([C:5]([O:6][H:9])([H:12])[H:13])([H:10])[H:11])[H:8])[H:7]"
N        2.50384827      -0.15163820      -0.07595184
C        1.28947165      -0.24637443       0.07834847
C        0.18066125      -1.02533383       0.47421960
C       -1.03287839      -0.57418421      -0.33846198
C       -0.87792565       0.95672515      -0.38091996
O        0.18100681       1.28171061       0.51920924
H        2.92147834       0.70809376       0.26481368
H        0.37362804      -2.08679403       0.56830968
H       -0.10981786       0.21890281       1.46015844
H       -1.94862581      -0.86739007       0.18015329
H       -1.06814818      -0.99441186      -1.34397305
H       -1.79110468       1.44907160      -0.03415601
H       -0.62159380       1.33162271      -1.37174955
13
Frame=13 idx=001553 GeodesicLength=0.8250805242809441 rxn_smarts="[N:1](=[C:2]1/[C:3]([H:8])([H:9])[C:4]([H:10])([H:11])[C:5]([H:12])([H:13])[O:6]1)\[H:7]>>[N:1](=[C:2]=[C:3]([C:4]([C:5]([O:6][H:9])([H:12])[H:13])([H:10])[H:11])[H:8])[H:7]"
N        2.50731730      -0.15644670      -0.08056722
C        1.28995175      -0.24318893       0.06858958
C        0.18412894      -1.02410350       0.47507051
C       -1.03101040      -0.57405148      -0.33751680
C       -0.87830747       0.95497407      -0.38409526
O        0.18152933       1.28379490       0.51648506
H        2.92284685       0.70060220       0.27094134
H        0.38056657      -2.08617139       0.55516164
H       -0.12849436       0.22922731       1.48285856
H       -1.94576706      -0.86498648       0.18428096
H       -1.06913615      -0.99696421      -1.34170339
H       -1.79136153       1.44629422      -0.03536198
H       -0.62226376       1.33102000      -1.37414302
13
Frame=14 idx=001553 GeodesicLength=0.8885219972212599 rxn_smarts="[N:1](=[C:2]1/[C:3]([H:8])([H:9])[C:4]([H:10])([H:11])[C:5]([H:12])([H:13])[O:6]1)\[H:7]>>[N:1](=[C:2]=[C:3]([C:4]([C:5]([O:6][H:9])([H:12])[H:13])([H:10])[H:11])[H:8])[H:7]"
N        2.51084810      -0.16125660      -0.08542561
C        1.29054969      -0.24013460       0.05839473
C        0.18780544      -1.02286559       0.47581731
C       -1.02901925      -0.57394794      -0.33659798
C       -0.87857527       0.95320005      -0.38718039
O        0.18212286       1.28562679       0.51400419
H        2.92409803       0.69302963       0.27686738
H        0.38747632      -2.08536182       0.54236154
H       -0.14821113       0.23985853       1.50572419
H       -1.94275134      -0.86267058       0.18837565
H       -1.07004729      -0.99948101      -1.33946803
H       -1.79150791       1.44348265      -0.03648700
H       -0.62278824       1.33052048      -1.37638598
13
Frame=15 idx=001553 GeodesicLength=0.9519617354797079 rxn_smarts="[N:1](=[C:2]1/[C:3]([H:8])([H:9])[C:4]([H:10])([H:11])[C:5]([H:12])([H:13])[O:6]1)\[H:7]>>[N:1](=[C:2]=[C:3]([C:4]([C:5]([O:6][H:9])([H:12])[H:13])([H:10])[H:11])[H:8])[H:7]"
N        2.51443933      -0.16604998      -0.09058732
C        1.29126871      -0.23720249       0.04774639
C        0.19170730      -1.02161248       0.47645869
C       -1.02690157      -0.57387485      -0.33569205
C       -0.87872680       0.95140348      -0.39017433
O        0.18279052       1.28720588       0.51177094
H        2.92525114       0.68533020       0.28264703
H        0.39438427      -2.08437946       0.52988229
H       -0.16904387       0.25083539       1.52874979
H       -1.93956851      -0.86044375       0.19246411
H       -1.07089152      -1.00197068      -1.33725043
H       -1.79154380       1.44063860      -0.03753609
H       -0.62316520       1.33012013      -1.37847903
13
Frame=16 idx=001553 GeodesicLength=1.015398741726211 rxn_smarts="[N:1](=[C:2]1/[C:3]([H:8])([H:9])[C:4]([H:10])([H:11])[C:5]([H:12])([H:13])[O:6]1)\[H:7]>>[N:1](=[C:2]=[C:3]([C:4]([C:5]([O:6][H:9])([H:12])[H:13])([H:10])[H:11])[H:8])[H:7]"
N        2.51808990      -0.17082735      -0.09607359
C        1.29211085      -0.23439768       0.03665951
C        0.19584174      -1.02034732       0.47700097
C       -1.02464920      -0.57383252      -0.33479170
C       -0.87874830       0.94958398      -0.39306789
O        0.18353602       1.28851991       0.50981425
H        2.92630343       0.67750960       0.28822707
H        0.40130172      -2.08324380       0.51771303
H       -0.19108623       0.26218616       1.55193628
H       -1.93621262      -0.85830646       0.19654939
H       -1.07165953      -1.00443129      -1.33504409
H       -1.79145985       1.43776451      -0.03851592
H       -0.62336794       1.32982225      -1.38040732
