14
Frame=0 idx=009201 GeodesicLength=0.0 rxn_smarts="[O:1]([C:2]([C:3]#[C:4][C@@:5]1([H:11])[C:6]([H:12])([H:13])[N:7]1[H:14])([H:9])[H:10])[H:8]>>[O:1]([C:2]([C:3](=[C:4])[C@@:5]1([H:11])[C:6]([H:12])([H:13])[N:7]1[H:14])([H:9])[H:10])[H:8]"
O        1.64020670      -1.07179086       1.21457898
C        1.91279685      -0.39959843       0.00973106
C        0.77212858      -0.30130198      -0.91326551
C       -0.10365483      -0.16253853      -1.79906232
C       -0.67977807       0.69024325      -0.47346691
C       -2.08949049       0.36801090      -0.15158572
N       -1.06885178       0.13572908       0.84760154
H        1.13218221      -0.48409788       1.78077280
H        2.31133133       0.60486972       0.19266329
H        2.68538006      -0.96351196      -0.51777059
H       -0.38195039       1.73020581      -0.44200223
H       -2.51973003      -0.48170299      -0.66628555
H       -2.76551521       1.19008994       0.05414917
H       -0.84505497      -0.85460604       0.86394203
14
Frame=1 idx=009201 GeodesicLength=0.06558279255489871 rxn_smarts="[O:1]([C:2]([C:3]#[C:4][C@@:5]1([H:11])[C:6]([H:12])([H:13])[N:7]1[H:14])([H:9])[H:10])[H:8]>>[O:1]([C:2]([C:3](=[C:4])[C@@:5]1([H:11])[C:6]([H:12])([H:13])[N:7]1[H:14])([H:9])[H:10])[H:8]"
O        1.66069770      -1.06662117       1.21748630
C        1.92836741      -0.40632671       0.00476456
C        0.77379688      -0.29514792      -0.89963866
C       -0.09626530      -0.15246834      -1.78836411
C       -0.68726803       0.69579549      -0.45808537
C       -2.10151311       0.36671626      -0.16276090
N       -1.09695959       0.13833583       0.85400063
H        1.15867578      -0.47211569       1.78180030
H        2.34468241       0.59308386       0.17559241
H        2.68371736      -0.98692928      -0.52923467
H       -0.39513411       1.73741755      -0.41809362
H       -2.51842391      -0.48531185      -0.68470786
H       -2.78591255       1.18431853       0.03241028
H       -0.86846094      -0.85074655       0.87483071
14
Frame=2 idx=009201 GeodesicLength=0.13084659785285607 rxn_smarts="[O:1]([C:2]([C:3]#[C:4][C@@:5]1([H:11])[C:6]([H:12])([H:13])[N:7]1[H:14])([H:9])[H:10])[H:8]>>[O:1]([C:2]([C:3](=[C:4])[C@@:5]1([H:11])[C:6]([H:12])([H:13])[N:7]1[H:14])([H:9])[H:10])[H:8]"
O        1.68210515      -1.06145745       1.22036343
C        1.94397800      -0.41308529      -0.00027755
C        0.77557459      -0.28875221      -0.88539362
C       -0.08872216      -0.14245523      -1.77710924
C       -0.69505027       0.70125922      -0.44241355
C       -2.11344397       0.36554168      -0.17418505
N       -1.12567040       0.14086899       0.86021029
H        1.18621081      -0.46029048       1.78296029
H        2.37785553       0.58094306       0.15801567
H        2.68154668      -1.01011942      -0.54069007
H       -0.40883187       1.74450996      -0.39396490
H       -2.51685960      -0.48869794      -0.70322682
H       -2.80597489       1.17871729       0.01002099
H       -0.89271758      -0.84698216       0.88569014
14
Frame=3 idx=009201 GeodesicLength=0.19581137896063278 rxn_smarts="[O:1]([C:2]([C:3]#[C:4][C@@:5]1([H:11])[C:6]([H:12])([H:13])[N:7]1[H:14])([H:9])[H:10])[H:8]>>[O:1]([C:2]([C:3](=[C:4])[C@@:5]1([H:11])[C:6]([H:12])([H:13])[N:7]1[H:14])([H:9])[H:10])[H:8]"
O        1.70448636      -1.05631547       1.22319654
C        1.95961928      -0.41987311      -0.00539228
C        0.77745904      -0.28211805      -0.87048555
C       -0.08102569      -0.13252399      -1.76526365
C       -0.70314343       0.70662331      -0.42644873
C       -2.12528491       0.36449701      -0.18587323
N       -1.15501526       0.14333034       0.86620670
H        1.21490099      -0.44863945       1.78427462
H        2.41081306       0.56845054       0.13991961
H        2.67885941      -1.03304860      -0.55212785
H       -0.42305823       1.75146784      -0.36962081
H       -2.51504791      -0.49184694      -0.72185392
H       -2.82568338       1.17330924      -0.01303833
H       -0.91787934      -0.84331267       0.89650689
14
Frame=4 idx=009201 GeodesicLength=0.26052191504119104 rxn_smarts="[O:1]([C:2]([C:3]#[C:4][C@@:5]1([H:11])[C:6]([H:12])([H:13])[N:7]1[H:14])([H:9])[H:10])[H:8]>>[O:1]([C:2]([C:3](=[C:4])[C@@:5]1([H:11])[C:6]([H:12])([H:13])[N:7]1[H:14])([H:9])[H:10])[H:8]"
O        1.72790360      -1.05118999       1.22598884
C        1.97528732      -0.42669196      -0.01057861
C        0.77944382      -0.27523644      -0.85485036
C       -0.07316973      -0.12267074      -1.75278231
C       -0.71157073       0.71188028      -0.41016825
C       -2.13704432       0.36358728      -0.19784892
N       -1.18505075       0.14570136       0.87196763
H        1.24488981      -0.43712297       1.78577579
H        2.44356384       0.55560215       0.12124604
H        2.67562140      -1.05574189      -0.56354834
H       -0.43783279       1.75828148      -0.34502295
H       -2.51299108      -0.49474455      -0.74062859
H       -2.84503101       1.16810304      -0.03680085
H       -0.94401939      -0.83975704       0.90725090
14
Frame=5 idx=009201 GeodesicLength=0.32497365357607927 rxn_smarts="[O:1]([C:2]([C:3]#[C:4][C@@:5]1([H:11])[C:6]([H:12])([H:13])[N:7]1[H:14])([H:9])[H:10])[H:8]>>[O:1]([C:2]([C:3](=[C:4])[C@@:5]1([H:11])[C:6]([H:12])([H:13])[N:7]1[H:14])([H:9])[H:10])[H:8]"
O        1.75242489      -1.04610931       1.22870608
C        1.99096231      -0.43354323      -0.01582644
C        0.78152942      -0.26811444      -0.83844366
C       -0.06515566      -0.11293932      -1.73962499
C       -0.72035059       0.71701508      -0.39358005
C       -2.14871771       0.36282714      -0.21012484
N       -1.21579887       0.14800007       0.87746428
H        1.27629207      -0.42579254       1.78746661
H        2.47602851       0.54240069       0.10200748
H        2.67182954      -1.07812355      -0.57493131
H       -0.45316961       1.76492864      -0.32020303
H       -2.51069623      -0.49738020      -0.75953787
H       -2.86399081       1.16313376      -0.06128747
H       -0.97118726      -0.83630280       0.91791520
14
Frame=6 idx=009201 GeodesicLength=0.38922610417399994 rxn_smarts="[O:1]([C:2]([C:3]#[C:4][C@@:5]1([H:11])[C:6]([H:12])([H:13])[N:7]1[H:14])([H:9])[H:10])[H:8]>>[O:1]([C:2]([C:3](=[C:4])[C@@:5]1([H:11])[C:6]([H:12])([H:13])[N:7]1[H:14])([H:9])[H:10])[H:8]"
O        1.77811823      -1.04107831       1.23134658
C        2.00664282      -0.44042474      -0.02113625
C        0.78370813      -0.26074092      -0.82118342
C       -0.05697810      -0.10333442      -1.72573344
C       -0.72951165       0.72202137      -0.37665519
C       -2.16031210       0.36222391      -0.22272673
N       -1.24733118       0.15021131       0.88267212
H        1.30928578      -0.41461486       1.78938144
H        2.50821245       0.52885228       0.08213585
H        2.66744703      -1.10022330      -0.58627597
H       -0.46909573       1.77140397      -0.29512060
H       -2.50816246      -0.49974118      -0.77862079
H       -2.88255124       1.15841157      -0.08654784
H       -0.99947198      -0.83296668       0.92846422
14
Frame=7 idx=009201 GeodesicLength=0.4533022663400855 rxn_smarts="[O:1]([C:2]([C:3]#[C:4][C@@:5]1([H:11])[C:6]([H:12])([H:13])[N:7]1[H:14])([H:9])[H:10])[H:8]>>[O:1]([C:2]([C:3](=[C:4])[C@@:5]1([H:11])[C:6]([H:12])([H:13])[N:7]1[H:14])([H:9])[H:10])[H:8]"
O        1.80506240      -1.03612130       1.23387488
C        2.02231491      -0.44732720      -0.02650069
C        0.78597536      -0.25312477      -0.80299912
C       -0.04863737      -0.09390159      -1.71104609
C       -0.73907893       0.72688084      -0.35938402
C       -2.17182905       0.36179446      -0.23567572
N       -1.27969490       0.15234267       0.88756316
H        1.34403721      -0.40361740       1.79151707
H        2.54005078       0.51496310       0.06162145
H        2.66245898      -1.12198632      -0.59756170
H       -0.48562816       1.77768412      -0.26978411
H       -2.50539419      -0.50181434      -0.79788430
H       -2.90068498       1.15397671      -0.11262287
H       -1.02895206      -0.82974897       0.93888207
14
Frame=8 idx=009201 GeodesicLength=0.5172474055258606 rxn_smarts="[O:1]([C:2]([C:3]#[C:4][C@@:5]1([H:11])[C:6]([H:12])([H:13])[N:7]1[H:14])([H:9])[H:10])[H:8]>>[O:1]([C:2]([C:3](=[C:4])[C@@:5]1([H:11])[C:6]([H:12])([H:13])[N:7]1[H:14])([H:9])[H:10])[H:8]"
O        1.83334845      -1.03124089       1.23627167
C        2.03796968      -0.45424743      -0.03191531
C        0.78832732      -0.24526599      -0.78379952
C       -0.04012622      -0.08466533      -1.69549310
C       -0.74908077       0.73157547      -0.34173811
C       -2.18327201       0.36155657      -0.24899893
N       -1.31296320       0.15437592       0.89210604
H        1.38072777      -0.39276616       1.79388537
H        2.57151253       0.50074308       0.04040105
H        2.65683270      -1.14341750      -0.60877139
H       -0.50278964       1.78374993      -0.24415844
H       -2.50239393      -0.50357857      -0.81735521
H       -2.91836463       1.14986334      -0.13956117
H       -1.05972806      -0.82668243       0.94912704
14
Frame=9 idx=009201 GeodesicLength=0.5812791438734359 rxn_smarts="[O:1]([C:2]([C:3]#[C:4][C@@:5]1([H:11])[C:6]([H:12])([H:13])[N:7]1[H:14])([H:9])[H:10])[H:8]>>[O:1]([C:2]([C:3](=[C:4])[C@@:5]1([H:11])[C:6]([H:12])([H:13])[N:7]1[H:14])([H:9])[H:10])[H:8]"
O        1.86324590      -1.02624423       1.23856226
C        2.05363936      -0.46117759      -0.03738437
C        0.79066451      -0.23732862      -0.76333086
C       -0.03145738      -0.07567178      -1.67886843
C       -0.75955819       0.73601957      -0.32355361
C       -2.19469784       0.36157379      -0.26279668
N       -1.34740753       0.15610300       0.89624343
H        1.41982911      -0.38169521       1.79647706
H        2.60263144       0.48618995       0.01822156
H        2.65053994      -1.16462542      -0.61988964
H       -0.52050122       1.78947516      -0.21792761
H       -2.49922964      -0.50485911      -0.83728530
H       -2.93554023       1.14621272      -0.16744332
H       -1.09215824      -0.82397222       0.95897551
14
Frame=10 idx=009201 GeodesicLength=0.6452138703347537 rxn_smarts="[O:1]([C:2]([C:3]#[C:4][C@@:5]1([H:11])[C:6]([H:12])([H:13])[N:7]1[H:14])([H:9])[H:10])[H:8]>>[O:1]([C:2]([C:3](=[C:4])[C@@:5]1([H:11])[C:6]([H:12])([H:13])[N:7]1[H:14])([H:9])[H:10])[H:8]"
O        1.89467080      -1.02128288       1.24067210
C        2.06925342      -0.46810393      -0.04288843
C        0.79306993      -0.22918814      -0.74164145
C       -0.02261714      -0.06696697      -1.66120194
C       -0.77052706       0.74023592      -0.30491482
C       -2.20603312       0.36182549      -0.27702288
N       -1.38290162       0.15767345       0.89994868
H        1.46126318      -0.37067297       1.79925405
H        2.63324401       0.47132997      -0.00480505
H        2.64353653      -1.18548898      -0.63085780
H       -0.53886386       1.79490907      -0.19129885
H       -2.49583080      -0.50575886      -0.85749861
H       -2.95215271       1.14298291      -0.19627197
H       -1.12611156      -0.82149409       0.96852696
14
Frame=11 idx=009201 GeodesicLength=0.7090448010771099 rxn_smarts="[O:1]([C:2]([C:3]#[C:4][C@@:5]1([H:11])[C:6]([H:12])([H:13])[N:7]1[H:14])([H:9])[H:10])[H:8]>>[O:1]([C:2]([C:3](=[C:4])[C@@:5]1([H:11])[C:6]([H:12])([H:13])[N:7]1[H:14])([H:9])[H:10])[H:8]"
O        1.92772425      -1.01633626       1.24257944
C        2.08478246      -0.47501144      -0.04841815
C        0.79552956      -0.22090037      -0.71864100
C       -0.01361807      -0.05863113      -1.64240855
C       -0.78200386       0.74417582      -0.28579517
C       -2.21726424       0.36234179      -0.29169581
N       -1.41949543       0.15905999       0.90317236
H        1.50520918      -0.35966233       1.80218914
H        2.66322824       0.45620354      -0.02873669
H        2.63581471      -1.20596226      -0.64162511
H       -0.55785757       1.79999077      -0.16423303
H       -2.49221476      -0.50622211      -0.87803494
H       -2.96813394       1.14024613      -0.22606045
H       -1.16170056      -0.81929215       0.97770796
14
Frame=12 idx=009201 GeodesicLength=0.7727852424501845 rxn_smarts="[O:1]([C:2]([C:3]#[C:4][C@@:5]1([H:11])[C:6]([H:12])([H:13])[N:7]1[H:14])([H:9])[H:10])[H:8]>>[O:1]([C:2]([C:3](=[C:4])[C@@:5]1([H:11])[C:6]([H:12])([H:13])[N:7]1[H:14])([H:9])[H:10])[H:8]"
O        1.96250017      -1.01131918       1.24428931
C        2.10020112      -0.48188793      -0.05397073
C        0.79802893      -0.21251532      -0.69422365
C       -0.00446572      -0.05070948      -1.62239183
C       -0.79400947       0.74778352      -0.26612932
C       -2.22837269       0.36315366      -0.30683982
N       -1.45727114       0.16018191       0.90585885
H        1.55186647      -0.34850081       1.80524052
H        2.69251286       0.44082848      -0.05371187
H        2.62732891      -1.22609586      -0.65211917
H       -0.57746200       1.80464893      -0.13660116
H       -2.48839015      -0.50617228      -0.89896971
H       -2.98339688       1.13807351      -0.25682240
H       -1.19907040      -0.81746915       0.98639097
14
Frame=13 idx=009201 GeodesicLength=0.8364137332051806 rxn_smarts="[O:1]([C:2]([C:3]#[C:4][C@@:5]1([H:11])[C:6]([H:12])([H:13])[N:7]1[H:14])([H:9])[H:10])[H:8]>>[O:1]([C:2]([C:3](=[C:4])[C@@:5]1([H:11])[C:6]([H:12])([H:13])[N:7]1[H:14])([H:9])[H:10])[H:8]"
O        1.99909602      -1.00624363       1.24572192
C        2.11546550      -0.48870198      -0.05952128
C        0.80055266      -0.20413192      -0.66830398
C        0.00481559      -0.04335137      -1.60106273
C       -0.80655670       0.75099730      -0.24591265
C       -2.23932839       0.36429922      -0.32246425
N       -1.49625474       0.16106132       0.90795687
H        1.60138813      -0.33723780       1.80832932
H        2.72088467       0.42528265      -0.07971337
H        2.61812342      -1.24574977      -0.66227082
H       -0.59763997       1.80880806      -0.10842716
H       -2.48437345      -0.50556680      -0.92029078
H       -2.99784055       1.13656771      -0.28856300
H       -1.23833219      -0.81603299       0.99452190
14
Frame=14 idx=009201 GeodesicLength=0.8999585598353038 rxn_smarts="[O:1]([C:2]([C:3]#[C:4][C@@:5]1([H:11])[C:6]([H:12])([H:13])[N:7]1[H:14])([H:9])[H:10])[H:8]>>[O:1]([C:2]([C:3](=[C:4])[C@@:5]1([H:11])[C:6]([H:12])([H:13])[N:7]1[H:14])([H:9])[H:10])[H:8]"
O        2.03762555      -1.00093577       1.24689807
C        2.13054627      -0.49544476      -0.06506418
C        0.80308142      -0.19584802      -0.64075770
C        0.01421021      -0.03661818      -1.57830402
C       -0.81966301       0.75372083      -0.22503282
C       -2.25010255       0.36583527      -0.33859832
N       -1.53655753       0.16154647       0.90939255
H        1.65399504      -0.32556577       1.81136653
H        2.74825200       0.40958746      -0.10695832
H        2.60814943      -1.26504717      -0.67195848
H       -0.61834309       1.81235259      -0.07948000
H       -2.48017644      -0.50427387      -0.94212342
H       -3.01133531       1.13585889      -0.32127888
H       -1.27968198      -0.81516796       1.00189899
14
Frame=15 idx=009201 GeodesicLength=0.9634069943025633 rxn_smarts="[O:1]([C:2]([C:3]#[C:4][C@@:5]1([H:11])[C:6]([H:12])([H:13])[N:7]1[H:14])([H:9])[H:10])[H:8]>>[O:1]([C:2]([C:3](=[C:4])[C@@:5]1([H:11])[C:6]([H:12])([H:13])[N:7]1[H:14])([H:9])[H:10])[H:8]"
O        2.07819842      -0.99534360       1.24773909
C        2.14539627      -0.50207290      -0.07056975
C        0.80559229      -0.18782451      -0.61149145
C        0.02367663      -0.03070602      -1.55401043
C       -0.83333327       0.75584965      -0.20344989
C       -2.26064913       0.36782842      -0.35524530
N       -1.57822327       0.16161515       0.91009406
H        1.70982920      -0.31343445       1.81422151
H        2.77435683       0.39385647      -0.13546999
H        2.59747831      -1.28389477      -0.68107705
H       -0.63950051       1.81515896      -0.04970955
H       -2.47582418      -0.50220410      -0.96447677
H       -3.02372722       1.13610439      -0.35496172
H       -1.32327035      -0.81493269       1.00840725
14
Frame=16 idx=009201 GeodesicLength=1.0267484586459537 rxn_smarts="[O:1]([C:2]([C:3]#[C:4][C@@:5]1([H:11])[C:6]([H:12])([H:13])[N:7]1[H:14])([H:9])[H:10])[H:8]>>[O:1]([C:2]([C:3](=[C:4])[C@@:5]1([H:11])[C:6]([H:12])([H:13])[N:7]1[H:14])([H:9])[H:10])[H:8]"
O        2.12090246      -0.98924065       1.24823897
C        2.15997535      -0.50856572      -0.07602635
C        0.80806931      -0.18021908      -0.58041263
C        0.03317879      -0.02573453      -1.52806670
C       -0.84756885       0.75724243      -0.18104506
C       -2.27091042       0.37035959      -0.37241093
N       -1.62133330       0.16110457       0.90997262
H        1.76901453      -0.30048830       1.81671021
H        2.79903229       0.37812121      -0.16544798
H        2.58610654      -1.30240471      -0.68943400
H       -0.66102350       1.81705490      -0.01886756
H       -2.47132546      -0.49919192      -0.98746232
H       -3.03483277       1.13749636      -0.38955567
H       -1.36928497      -0.81553416       1.01380740
