17
Frame=0 idx=011557 GeodesicLength=0.0 rxn_smarts="[C:1]([O:2][C:3]([C@@:4]1([H:13])[C:5]([H:14])([H:15])[C@:6]1([O:7][H:17])[H:16])([H:11])[H:12])([H:8])([H:9])[H:10]>>[C:1]([O+:2]=[C-:3][H:12])([H:8])([H:9])[H:10].[C:4]1([H:11])([H:13])[C:5]([H:14])([H:15])[C:6]1([O:7][H:17])[H:16]"
C        2.07094452      -0.51261259       0.88575152
O        1.29306297      -1.28125477      -0.02932326
C        1.07858605      -0.68336865      -1.19882046
C       -0.89831918       0.15030445      -1.06267995
C       -1.56523533      -0.40127109       0.14831441
C       -1.41382872       1.07631958      -0.02039746
O       -0.46436029       1.76363190       0.74466045
H        3.01781782      -0.23113463       0.42333215
H        2.24681776      -1.14540622       1.75431966
H        1.52542711       0.38789092       1.17527167
H        0.41746813       0.36712881      -1.18578631
H        0.62663030      -1.40339191      -1.88563028
H       -1.37292048       0.10735565      -2.03419827
H       -2.54563389      -0.85280374       0.05763693
H       -0.90343823      -0.88285480       0.86473616
H       -2.29434659       1.66518390      -0.26617718
H       -0.81867188       1.87628323       1.62899014
17
Frame=1 idx=011557 GeodesicLength=0.07764265278260128 rxn_smarts="[C:1]([O:2][C:3]([C@@:4]1([H:13])[C:5]([H:14])([H:15])[C@:6]1([O:7][H:17])[H:16])([H:11])[H:12])([H:8])([H:9])[H:10]>>[C:1]([O+:2]=[C-:3][H:12])([H:8])([H:9])[H:10].[C:4]1([H:11])([H:13])[C:5]([H:14])([H:15])[C:6]1([O:7][H:17])[H:16]"
C        2.09319185      -0.49803945       0.88251988
O        1.28241697      -1.27178419       0.00165987
C        1.06771047      -0.70049941      -1.18214613
C       -0.89960441       0.15736334      -1.06509479
C       -1.59097117      -0.39852205       0.13192467
C       -1.42220871       1.07886680      -0.02134244
O       -0.47940246       1.76027025       0.75592911
H        3.03500167      -0.24490683       0.39370060
H        2.27707207      -1.11440474       1.76117521
H        1.57089037       0.41877843       1.16354522
H        0.42183765       0.37671415      -1.18963568
H        0.63264567      -1.44277465      -1.85674397
H       -1.36860551       0.12665305      -2.04012690
H       -2.57460799      -0.83873642       0.02351927
H       -0.94535323      -0.88990843       0.85603771
H       -2.29545907       1.67615299      -0.27223761
H       -0.80455415       1.80477718       1.65731597
17
Frame=2 idx=011557 GeodesicLength=0.15530059681974895 rxn_smarts="[C:1]([O:2][C:3]([C@@:4]1([H:13])[C:5]([H:14])([H:15])[C@:6]1([O:7][H:17])[H:16])([H:11])[H:12])([H:8])([H:9])[H:10]>>[C:1]([O+:2]=[C-:3][H:12])([H:8])([H:9])[H:10].[C:4]1([H:11])([H:13])[C:5]([H:14])([H:15])[C:6]1([O:7][H:17])[H:16]"
C        2.11586732      -0.48260402       0.87887050
O        1.27155716      -1.25995064       0.03413925
C        1.05618815      -0.71724442      -1.16408275
C       -0.90116116       0.16450559      -1.06719484
C       -1.61765375      -0.39611166       0.11457422
C       -1.43072202       1.08077906      -0.02132217
O       -0.49459577       1.75459768       0.76935647
H        3.05176479      -0.26030809       0.36398920
H        2.30752338      -1.08162949       1.76778842
H        1.61830327       0.45098705       1.14941876
H        0.42600915       0.38634739      -1.19329984
H        0.63876596      -1.48257904      -1.82478582
H       -1.36393540       0.14704438      -2.04585239
H       -2.60440752      -0.82399719      -0.01237901
H       -0.98912520      -0.89876121       0.84558225
H       -2.29602345       1.68734010      -0.27704787
H       -0.78835490       1.73158449       1.68224560
17
Frame=3 idx=011557 GeodesicLength=0.2328994397612597 rxn_smarts="[C:1]([O:2][C:3]([C@@:4]1([H:13])[C:5]([H:14])([H:15])[C@:6]1([O:7][H:17])[H:16])([H:11])[H:12])([H:8])([H:9])[H:10]>>[C:1]([O+:2]=[C-:3][H:12])([H:8])([H:9])[H:10].[C:4]1([H:11])([H:13])[C:5]([H:14])([H:15])[C:6]1([O:7][H:17])[H:16]"
C        2.13879639      -0.46633602       0.87475928
O        1.26055674      -1.24564853       0.06798916
C        1.04405048      -0.73361445      -1.14464699
C       -0.90296203       0.17167639      -1.06897845
C       -1.64513619      -0.39396531       0.09629591
C       -1.43925458       1.08203227      -0.02033770
O       -0.50982351       1.74651836       0.78488032
H        3.06781592      -0.27722501       0.33439300
H        2.33807039      -1.04709014       1.77406060
H        1.66730645       0.48421802       1.13272590
H        0.42999447       0.39597890      -1.19690148
H        0.64507212      -1.52270767      -1.78960695
H       -1.35894769       0.16843656      -2.05128674
H       -2.63485366      -0.80844333      -0.04988788
H       -1.03457379      -0.90933902       0.83326195
H       -2.29590563       1.69872459      -0.28051296
H       -0.77020589       1.65678439       1.70379304
17
Frame=4 idx=011557 GeodesicLength=0.31035978553297056 rxn_smarts="[C:1]([O:2][C:3]([C@@:4]1([H:13])[C:5]([H:14])([H:15])[C@:6]1([O:7][H:17])[H:16])([H:11])[H:12])([H:8])([H:9])[H:10]>>[C:1]([O+:2]=[C-:3][H:12])([H:8])([H:9])[H:10].[C:4]1([H:11])([H:13])[C:5]([H:14])([H:15])[C:6]1([O:7][H:17])[H:16]"
C        2.16176314      -0.44936249       0.87016361
O        1.24953144      -1.22886238       0.10295704
C        1.03135750      -0.74958280      -1.12391904
C       -0.90497098       0.17881165      -1.07042933
C       -1.67320659      -0.39200054       0.07720944
C       -1.44771799       1.08261639      -0.01840062
O       -0.52500121       1.73600418       0.80238376
H        3.08281556      -0.29542500       0.30516878
H        2.36864542      -1.01101392       1.77982567
H        1.71735138       0.51797707       1.11350805
H        0.43381311       0.40558053      -1.20055121
H        0.65173156      -1.56297635      -1.75122087
H       -1.35370120       0.19068215      -2.05631777
H       -2.66568200      -0.79199749      -0.08870566
H       -1.08140061      -0.92147299       0.81907290
H       -2.29503750       1.71024455      -0.28255712
H       -0.75029102       1.58077744       1.72181234
17
Frame=5 idx=011557 GeodesicLength=0.3876539771530364 rxn_smarts="[C:1]([O:2][C:3]([C@@:4]1([H:13])[C:5]([H:14])([H:15])[C@:6]1([O:7][H:17])[H:16])([H:11])[H:12])([H:8])([H:9])[H:10]>>[C:1]([O+:2]=[C-:3][H:12])([H:8])([H:9])[H:10].[C:4]1([H:11])([H:13])[C:5]([H:14])([H:15])[C:6]1([O:7][H:17])[H:16]"
C        2.18452811      -0.43180841       0.86508207
O        1.23860252      -1.20971028       0.13871409
C        1.01820809      -0.76512039      -1.10204546
C       -0.90712869       0.18584870      -1.07154193
C       -1.70158276      -0.39010060       0.05750682
C       -1.45602392       1.08256572      -0.01558292
O       -0.54000621       1.72320636       0.82160711
H        3.09650743      -0.31466385       0.27664103
H        2.39914138      -0.97371052       1.78489249
H        1.76788528       0.55180166       1.09201720
H        0.43750920       0.41512142      -1.20436072
H        0.65876705      -1.60319840      -1.70989890
H       -1.34827074       0.21356467      -2.06083765
H       -2.69654018      -0.77463488      -0.12840135
H       -1.12918957      -0.93483933       0.80312501
H       -2.29339598       1.72181314      -0.28319054
H       -0.72901103       1.50386499       1.73627368
17
Frame=6 idx=011557 GeodesicLength=0.4647529691150419 rxn_smarts="[C:1]([O:2][C:3]([C@@:4]1([H:13])[C:5]([H:14])([H:15])[C@:6]1([O:7][H:17])[H:16])([H:11])[H:12])([H:8])([H:9])[H:10]>>[C:1]([O+:2]=[C-:3][H:12])([H:8])([H:9])[H:10].[C:4]1([H:11])([H:13])[C:5]([H:14])([H:15])[C:6]1([O:7][H:17])[H:16]"
C        2.20686068      -0.41396262       0.85951921
O        1.22795502      -1.18838332       0.17483538
C        1.00467638      -0.78018392      -1.07917247
C       -0.90938729       0.19273429      -1.07227172
C       -1.72998657      -0.38818327       0.03740092
C       -1.46415267       1.08191609      -0.01194898
O       -0.55497346       1.70833769       0.84236000
H        3.10861118      -0.33465749       0.24902873
H        2.42938905      -0.93566561       1.78911099
H        1.81822955       0.58506090       1.06842286
H        0.44110633       0.42461829      -1.20835429
H        0.66655322      -1.64302174      -1.66584095
H       -1.34272854       0.23685192      -2.06471743
H       -2.72708929      -0.75641283      -0.16855391
H       -1.17750373      -0.94910137       0.78560590
H       -2.29106416       1.73328529      -0.28243983
H       -0.70649570       1.42676772       1.74701560
17
Frame=7 idx=011557 GeodesicLength=0.5415729463101656 rxn_smarts="[C:1]([O:2][C:3]([C@@:4]1([H:13])[C:5]([H:14])([H:15])[C@:6]1([O:7][H:17])[H:16])([H:11])[H:12])([H:8])([H:9])[H:10]>>[C:1]([O+:2]=[C-:3][H:12])([H:8])([H:9])[H:10].[C:4]1([H:11])([H:13])[C:5]([H:14])([H:15])[C:6]1([O:7][H:17])[H:16]"
C        2.22853567      -0.39616695       0.85349306
O        1.21777415      -1.16524971       0.21083338
C        0.99085796      -0.79475705      -1.05550652
C       -0.91168622       0.19940374      -1.07258151
C       -1.75810982      -0.38615152       0.01718052
C       -1.47209224       1.08074790      -0.00761635
O       -0.57000950       1.69171909       0.86433487
H        3.11893341      -0.35504401       0.22252979
H        2.45931392      -0.89753170       1.79225561
H        1.86769851       0.61711097       1.04317119
H        0.44464654       0.43407534      -1.21254393
H        0.67545706      -1.68203124      -1.61947403
H       -1.33715319       0.26024332      -2.06784907
H       -2.75695873      -0.73744802      -0.20863188
H       -1.22584451      -0.96382549       0.76684811
H       -2.28816556       1.74452799      -0.28043925
H       -0.68319745       1.35037735       1.75399600
17
Frame=8 idx=011557 GeodesicLength=0.6180596684823272 rxn_smarts="[C:1]([O:2][C:3]([C@@:4]1([H:13])[C:5]([H:14])([H:15])[C@:6]1([O:7][H:17])[H:16])([H:11])[H:12])([H:8])([H:9])[H:10]>>[C:1]([O+:2]=[C-:3][H:12])([H:8])([H:9])[H:10].[C:4]1([H:11])([H:13])[C:5]([H:14])([H:15])[C:6]1([O:7][H:17])[H:16]"
C        2.24941883      -0.37875936       0.84703272
O        1.20824046      -1.14075677       0.24625467
C        0.97684780      -0.80882926      -1.03127118
C       -0.91397111       0.20580605      -1.07242948
C       -1.78568163      -0.38392905      -0.00286340
C       -1.47988068       1.07916145      -0.00272738
O       -0.58527831       1.67371447       0.88724480
H        3.12740231      -0.37548078       0.19724766
H        2.48888303      -0.86002698       1.79415394
H        1.91570988       0.64737422       1.01679762
H        0.44817406       0.44351862      -1.21688458
H        0.68585342      -1.71988318      -1.57138216
H       -1.33161466       0.28345558      -2.07014517
H       -2.78582439      -0.71792187      -0.24814542
H       -1.27375243      -0.97855178       0.74726582
H       -2.28488841       1.75541411      -0.27738995
H       -0.65963816       1.27569455       1.75724147
17
Frame=9 idx=011557 GeodesicLength=0.6941891378927169 rxn_smarts="[C:1]([O:2][C:3]([C@@:4]1([H:13])[C:5]([H:14])([H:15])[C@:6]1([O:7][H:17])[H:16])([H:11])[H:12])([H:8])([H:9])[H:10]>>[C:1]([O+:2]=[C-:3][H:12])([H:8])([H:9])[H:10].[C:4]1([H:11])([H:13])[C:5]([H:14])([H:15])[C:6]1([O:7][H:17])[H:16]"
C        2.26941764      -0.36200605       0.84019585
O        1.19952441      -1.11543927       0.28069769
C        0.96276363      -0.82239850      -1.00669828
C       -0.91617134       0.21190838      -1.07177664
C       -1.81244287      -0.38143889      -0.02244730
C       -1.48758059       1.07729143       0.00254303
O       -0.60092214       1.65489641       0.91069656
H        3.13407770      -0.39564665       0.17329159
H        2.51812412      -0.82380878       1.79464716
H        1.96182485       0.67546184       0.99002349
H        0.45173400       0.45300010      -1.22130077
H        0.69778702      -1.75634393      -1.52232559
H       -1.32614846       0.30619206      -2.07154301
H       -2.81335270      -0.69806796      -0.28663920
H       -1.32080264      -0.99279123       0.72733777
H       -2.28146533       1.76581697      -0.27357488
H       -0.63636733       1.20337407       1.75687252
17
Frame=10 idx=011557 GeodesicLength=0.7699003101431859 rxn_smarts="[C:1]([O:2][C:3]([C@@:4]1([H:13])[C:5]([H:14])([H:15])[C@:6]1([O:7][H:17])[H:16])([H:11])[H:12])([H:8])([H:9])[H:10]>>[C:1]([O+:2]=[C-:3][H:12])([H:8])([H:9])[H:10].[C:4]1([H:11])([H:13])[C:5]([H:14])([H:15])[C:6]1([O:7][H:17])[H:16]"
C        2.28853856      -0.34620267       0.83298211
O        1.19172451      -1.08970541       0.31392235
C        0.94859380      -0.83557734      -0.98188867
C       -0.91826866       0.21768628      -1.07059388
C       -1.83832422      -0.37868139      -0.04142859
C       -1.49526708       1.07522487       0.00808133
O       -0.61724317       1.63546909       0.93460391
H        3.13902232      -0.41543656       0.15049089
H        2.54701428      -0.78931892       1.79370042
H        2.00586314       0.70111193       0.96302901
H        0.45535578       0.46250613      -1.22567702
H        0.71185810      -1.79104275      -1.47264060
H       -1.32076568       0.32830320      -2.07203824
H       -2.83949008      -0.67805406      -0.32393643
H       -1.36683694      -1.00630629       0.70737778
H       -2.27806601       1.77569685      -0.26920822
H       -0.61370865       1.13432702       1.75322383
17
Frame=11 idx=011557 GeodesicLength=0.8451782177072474 rxn_smarts="[C:1]([O:2][C:3]([C@@:4]1([H:13])[C:5]([H:14])([H:15])[C@:6]1([O:7][H:17])[H:16])([H:11])[H:12])([H:8])([H:9])[H:10]>>[C:1]([O+:2]=[C-:3][H:12])([H:8])([H:9])[H:10].[C:4]1([H:11])([H:13])[C:5]([H:14])([H:15])[C:6]1([O:7][H:17])[H:16]"
C        2.30682545      -0.33152137       0.82541774
O        1.18492097      -1.06394770       0.34579334
C        0.93435465      -0.84847054      -0.95692720
C       -0.92023644       0.22312184      -1.06886072
C       -1.86327377      -0.37564320      -0.05968208
C       -1.50301201       1.07305506       0.01376592
O       -0.63442118       1.61571375       0.95876993
H        3.14238206      -0.43472122       0.12871089
H        2.57563344      -0.75692693       1.79127794
H        2.04775077       0.72421869       0.93615924
H        0.45906176       0.47202669      -1.22992479
H        0.72830328      -1.82377352      -1.42281419
H       -1.31545274       0.34964267      -2.07163988
H       -2.86417626      -0.65803488      -0.35989358
H       -1.41174938      -1.01886120       0.68770959
H       -2.27483827       1.78503628      -0.26451962
H       -0.59207232       1.06908559       1.74665747
17
Frame=12 idx=011557 GeodesicLength=0.9200613649059742 rxn_smarts="[C:1]([O:2][C:3]([C@@:4]1([H:13])[C:5]([H:14])([H:15])[C@:6]1([O:7][H:17])[H:16])([H:11])[H:12])([H:8])([H:9])[H:10]>>[C:1]([O+:2]=[C-:3][H:12])([H:8])([H:9])[H:10].[C:4]1([H:11])([H:13])[C:5]([H:14])([H:15])[C:6]1([O:7][H:17])[H:16]"
C        2.32437321      -0.31803322       0.81749932
O        1.17914726      -1.03842478       0.37629407
C        0.92003658      -0.86119936      -0.93183303
C       -0.92205976       0.22821205      -1.06657656
C       -1.88732324      -0.37233563      -0.07718207
C       -1.51086133       1.07084879       0.01950911
O       -0.65258782       1.59574573       0.98312830
H        3.14433222      -0.45346832       0.10774543
H        2.60406405      -0.72676712       1.78742066
H        2.08758150       0.74483982       0.90957035
H        0.46287808       0.48153851      -1.23397295
H        0.74726524      -1.85447402      -1.37314547
H       -1.31017080       0.37015827      -2.07039206
H       -2.88745637      -0.63810361      -0.39452837
H       -1.45557639      -1.03034994       0.66852486
H       -2.27185427       1.79387056      -0.25967909
H       -0.57178815       1.00794229       1.73761751
17
Frame=13 idx=011557 GeodesicLength=0.9945832253423246 rxn_smarts="[C:1]([O:2][C:3]([C@@:4]1([H:13])[C:5]([H:14])([H:15])[C@:6]1([O:7][H:17])[H:16])([H:11])[H:12])([H:8])([H:9])[H:10]>>[C:1]([O+:2]=[C-:3][H:12])([H:8])([H:9])[H:10].[C:4]1([H:11])([H:13])[C:5]([H:14])([H:15])[C:6]1([O:7][H:17])[H:16]"
C        2.34128067      -0.30571872       0.80924751
O        1.17443097      -1.01335240       0.40545586
C        0.90566196      -0.87385137      -0.90660708
C       -0.92370275       0.23296987      -1.06373581
C       -1.91048134      -0.36876724      -0.09392195
C       -1.51887556       1.06867760       0.02522318
O       -0.67185421       1.57580282       1.00757111
H        3.14508396      -0.47165017       0.08747411
H        2.63242255      -0.69890289       1.78216119
H        2.12548876       0.76312571       0.88349095
H        0.46683354       0.49105664      -1.23774622
H        0.76852270      -1.88324107      -1.32402235
H       -1.30485148       0.38979191      -2.06833978
H       -2.90932336      -0.61837202      -0.42788537
H       -1.49834793      -1.04067111       0.64998883
H       -2.26921264       1.80221788      -0.25486596
H       -0.55307584       0.95088457       1.72651179
17
Frame=14 idx=011557 GeodesicLength=1.0687990152777849 rxn_smarts="[C:1]([O:2][C:3]([C@@:4]1([H:13])[C:5]([H:14])([H:15])[C@:6]1([O:7][H:17])[H:16])([H:11])[H:12])([H:8])([H:9])[H:10]>>[C:1]([O+:2]=[C-:3][H:12])([H:8])([H:9])[H:10].[C:4]1([H:11])([H:13])[C:5]([H:14])([H:15])[C:6]1([O:7][H:17])[H:16]"
C        2.35764205      -0.29455670       0.80063279
O        1.17072260      -0.98874421       0.43342594
C        0.89114573      -0.88659548      -0.88110894
C       -0.92518535       0.23737440      -1.06036786
C       -1.93289467      -0.36498005      -0.11001330
C       -1.52703936       1.06652180       0.03090250
O       -0.69229174       1.55563306       1.03216353
H        3.14473461      -0.48939957       0.06769055
H        2.66072469      -0.67315684       1.77558709
H        2.16172845       0.77926256       0.85764602
H        0.47092492       0.50047385      -1.24125151
H        0.79231365      -1.90985944      -1.27535376
H       -1.29944473       0.40859810      -2.06555306
H       -2.92997229      -0.59877945      -0.46016927
H       -1.54029855      -1.04994380       0.63204043
H       -2.26681469       1.81016928      -0.25007957
H       -0.53599532       0.89798250       1.71380842
17
Frame=15 idx=011557 GeodesicLength=1.1428585527656505 rxn_smarts="[C:1]([O:2][C:3]([C@@:4]1([H:13])[C:5]([H:14])([H:15])[C@:6]1([O:7][H:17])[H:16])([H:11])[H:12])([H:8])([H:9])[H:10]>>[C:1]([O+:2]=[C-:3][H:12])([H:8])([H:9])[H:10].[C:4]1([H:11])([H:13])[C:5]([H:14])([H:15])[C:6]1([O:7][H:17])[H:16]"
C        2.37355706      -0.28439823       0.79164610
O        1.16797289      -0.96451724       0.46040087
C        0.87644589      -0.89953718      -0.85520675
C       -0.92650549       0.24143549      -1.05649786
C       -1.95467762      -0.36100148      -0.12557970
C       -1.53534088       1.06437809       0.03654519
O       -0.71388892       1.53513842       1.05695135
H        3.14341075      -0.50687614       0.04824712
H        2.68898509      -0.64923237       1.76784419
H        2.19660537       0.79356715       0.83184234
H        0.47516585       0.50972979      -1.24451299
H        0.81847138      -1.93447302      -1.22719221
H       -1.29388777       0.42665284      -2.06209624
H       -2.94954269      -0.57927279      -0.49160820
H       -1.58163424      -1.05828372       0.61458144
H       -2.26459213       1.81780825      -0.24531927
H       -0.52054452       0.84888214       1.69995462
17
Frame=16 idx=011557 GeodesicLength=1.2168158257108683 rxn_smarts="[C:1]([O:2][C:3]([C@@:4]1([H:13])[C:5]([H:14])([H:15])[C@:6]1([O:7][H:17])[H:16])([H:11])[H:12])([H:8])([H:9])[H:10]>>[C:1]([O+:2]=[C-:3][H:12])([H:8])([H:9])[H:10].[C:4]1([H:11])([H:13])[C:5]([H:14])([H:15])[C:6]1([O:7][H:17])[H:16]"
C        2.38910127      -0.27514248       0.78228022
O        1.16613956      -0.94060039       0.48651623
C        0.86154632      -0.91273078      -0.82875773
C       -0.92765735       0.24514506      -1.05216038
C       -1.97590195      -0.35684809      -0.14072328
C       -1.54375157       1.06222305       0.04214455
O       -0.73660709       1.51416955       1.08189875
H        3.14121727      -0.52409815       0.02905115
H        2.71729696      -0.62698320       1.75898422
H        2.23028220       0.80623855       0.80600517
H        0.47956082       0.51878856      -1.24757412
H        0.84677065      -1.95714889      -1.17952571
H       -1.28812909       0.44398731      -2.05802570
H       -2.96811705      -0.55979985      -0.52235147
H       -1.62250177      -1.06576104       0.59752159
H       -2.26245732       1.82518385      -0.24055843
H       -0.50679185       0.80337694       1.68527494
