15
Frame=0 idx=008903 GeodesicLength=0.0 rxn_smarts="[C:1]([n:2]1[c:3]([H:11])[c:4]([H:12])[c:5]([H:13])[c:6]1[N:7]([H:14])[H:15])([H:8])([H:9])[H:10]>>[C:1](/[N:2]=[C:6](/[C:5](=[C:4]=[C:3]([H:11])[H:12])[H:13])[N:7]([H:14])[H:15])([H:8])([H:9])[H:10]"
C       -1.92711082      -1.06485861       0.37586466
N       -0.53598120      -0.74772612       0.16749089
C        2.67999756      -1.10779954       0.56553246
C        2.10491470      -0.06388742      -0.03102659
C        1.17121460       0.82082501      -0.36468766
C       -0.23642496       0.44429601      -0.16930377
N       -1.14312468       1.45722978      -0.41898752
H       -2.52130813      -0.94981398      -0.54119841
H       -2.01758081      -2.10244617       0.69538132
H       -2.39342427      -0.44448143       1.15638582
H        3.00943529      -1.89960404      -0.11732898
H        3.26238060       0.14989499      -0.07864195
H        1.43394104       1.77709804      -0.79272352
H       -2.08090122       1.32973189      -0.08178921
H       -0.80602768       2.40154163      -0.36496748
15
Frame=1 idx=008903 GeodesicLength=0.09727915229212504 rxn_smarts="[C:1]([n:2]1[c:3]([H:11])[c:4]([H:12])[c:5]([H:13])[c:6]1[N:7]([H:14])[H:15])([H:8])([H:9])[H:10]>>[C:1](/[N:2]=[C:6](/[C:5](=[C:4]=[C:3]([H:11])[H:12])[H:13])[N:7]([H:14])[H:15])([H:8])([H:9])[H:10]"
C       -1.89451238      -1.07473250       0.37924069
N       -0.50802868      -0.72814300       0.18497675
C        2.59789309      -1.11586089       0.55212796
C        2.09995567      -0.06315557      -0.09611431
C        1.17261249       0.85263304      -0.36435889
C       -0.23026287       0.46924488      -0.16345803
N       -1.15427547       1.46384597      -0.42460672
H       -2.48464082      -0.96021934      -0.54016502
H       -1.96792546      -2.11756728       0.68586970
H       -2.37709163      -0.47127392       1.16287175
H        2.94620688      -1.93323152      -0.08922093
H        3.27478955       0.11780635      -0.03726380
H        1.43378067       1.80985030      -0.79098925
H       -2.08206828       1.33799056      -0.05975878
H       -0.82643276       2.41281293      -0.39915111
15
Frame=2 idx=008903 GeodesicLength=0.1952092639032813 rxn_smarts="[C:1]([n:2]1[c:3]([H:11])[c:4]([H:12])[c:5]([H:13])[c:6]1[N:7]([H:14])[H:15])([H:8])([H:9])[H:10]>>[C:1](/[N:2]=[C:6](/[C:5](=[C:4]=[C:3]([H:11])[H:12])[H:13])[N:7]([H:14])[H:15])([H:8])([H:9])[H:10]"
C       -1.86218868      -1.08448162       0.38187605
N       -0.48140520      -0.71232245       0.19226152
C        2.51780071      -1.12113818       0.53917202
C        2.09602719      -0.05640028      -0.14322887
C        1.17447455       0.87938388      -0.36978006
C       -0.22416178       0.49011842      -0.16595478
N       -1.16405158       1.46944525      -0.42940280
H       -2.45480083      -0.96647199      -0.53514159
H       -1.91920955      -2.13255791       0.67368776
H       -2.35310224      -0.49869012       1.17340038
H        2.87938565      -1.95896229      -0.06654820
H        3.28013622       0.08682022       0.01182932
H        1.43388731       1.83639829      -0.79777091
H       -2.07936350       1.34750177      -0.03267786
H       -0.84342828       2.42135699      -0.43172198
15
Frame=3 idx=008903 GeodesicLength=0.2928530207586808 rxn_smarts="[C:1]([n:2]1[c:3]([H:11])[c:4]([H:12])[c:5]([H:13])[c:6]1[N:7]([H:14])[H:15])([H:8])([H:9])[H:10]>>[C:1](/[N:2]=[C:6](/[C:5](=[C:4]=[C:3]([H:11])[H:12])[H:13])[N:7]([H:14])[H:15])([H:8])([H:9])[H:10]"
C       -1.83057428      -1.09404481       0.38313945
N       -0.45644317      -0.70092261       0.18627159
C        2.44040023      -1.12360337       0.52795494
C        2.09291102      -0.04629540      -0.17756539
C        1.17567849       0.90158082      -0.38284288
C       -0.21853575       0.50672670      -0.17878037
N       -1.17300957       1.47476838      -0.43223866
H       -2.43403713      -0.96726870      -0.52521870
H       -1.87230407      -2.14760001       0.65695418
H       -2.31968790      -0.52711083       1.18902518
H        2.81417649      -1.97807286      -0.04424632
H        3.27753986       0.05756485       0.07083783
H        1.43341341       1.85740838      -0.81432308
H       -2.07187504       1.35884393       0.00232782
H       -0.85765259       2.42802553      -0.46129560
15
Frame=4 idx=008903 GeodesicLength=0.3911248696780094 rxn_smarts="[C:1]([n:2]1[c:3]([H:11])[c:4]([H:12])[c:5]([H:13])[c:6]1[N:7]([H:14])[H:15])([H:8])([H:9])[H:10]>>[C:1](/[N:2]=[C:6](/[C:5](=[C:4]=[C:3]([H:11])[H:12])[H:13])[N:7]([H:14])[H:15])([H:8])([H:9])[H:10]"
C       -1.80009652      -1.10329444       0.38435448
N       -0.43283062      -0.69129496       0.17662733
C        2.36785879      -1.12424756       0.51574124
C        2.09122619      -0.03419152      -0.20201621
C        1.17688054       0.92197915      -0.39622801
C       -0.21330128       0.52132804      -0.19463062
N       -1.18161855       1.47930232      -0.43520534
H       -2.41675786      -0.96688249      -0.51333713
H       -1.82759099      -2.16190212       0.63985680
H       -2.28390843      -0.55475119       1.20576394
H        2.74955339      -1.99343120      -0.02640835
H        3.27124470       0.02747437       0.13165320
H        1.43302177       1.87596312      -0.83269245
H       -2.06214389       1.37074309       0.03753601
H       -0.87153722       2.43320536      -0.49101489
15
Frame=5 idx=008903 GeodesicLength=0.489994004113452 rxn_smarts="[C:1]([n:2]1[c:3]([H:11])[c:4]([H:12])[c:5]([H:13])[c:6]1[N:7]([H:14])[H:15])([H:8])([H:9])[H:10]>>[C:1](/[N:2]=[C:6](/[C:5](=[C:4]=[C:3]([H:11])[H:12])[H:13])[N:7]([H:14])[H:15])([H:8])([H:9])[H:10]"
C       -1.77029140      -1.11214479       0.38587708
N       -0.40990927      -0.68159940       0.16900168
C        2.29998347      -1.12305112       0.50258879
C        2.09043919      -0.02102287      -0.21996167
C        1.17839998       0.94178250      -0.40716730
C       -0.20810315       0.53532816      -0.20884215
N       -1.18976950       1.48276471      -0.43873944
H       -2.39887206      -0.96735857      -0.50182286
H       -1.78420830      -2.17501889       0.62395221
H       -2.24944467      -0.58119450       1.22114781
H        2.68334431      -2.00683151      -0.01253053
H        3.26291814      -0.00449648       0.18758072
H        1.43299711       1.89369156      -0.84918958
H       -2.05167616       1.38232234       0.06913283
H       -0.88580770       2.43682887      -0.52102759
15
Frame=6 idx=008903 GeodesicLength=0.5891153711354112 rxn_smarts="[C:1]([n:2]1[c:3]([H:11])[c:4]([H:12])[c:5]([H:13])[c:6]1[N:7]([H:14])[H:15])([H:8])([H:9])[H:10]>>[C:1](/[N:2]=[C:6](/[C:5](=[C:4]=[C:3]([H:11])[H:12])[H:13])[N:7]([H:14])[H:15])([H:8])([H:9])[H:10]"
C       -1.74147385      -1.12061230       0.38744700
N       -0.38818338      -0.67307001       0.15929487
C        2.23627830      -1.12048029       0.48845018
C        2.09027104      -0.00726692      -0.23224303
C        1.17966982       0.96024843      -0.41758812
C       -0.20321040       0.54794284      -0.22458811
N       -1.19758092       1.48551818      -0.44242918
H       -2.38319587      -0.96703119      -0.48893960
H       -1.74284980      -2.18731980       0.60800634
H       -2.21360843      -0.60679244       1.23702077
H        2.61902470      -2.01730607      -0.00172135
H        3.25130003      -0.03709958       0.24414832
H        1.43286676       1.90974624      -0.86564307
H       -2.03929840       1.39449452       0.10021900
H       -0.90000961       2.43902839      -0.55143404
15
Frame=7 idx=008903 GeodesicLength=0.6886024585012533 rxn_smarts="[C:1]([n:2]1[c:3]([H:11])[c:4]([H:12])[c:5]([H:13])[c:6]1[N:7]([H:14])[H:15])([H:8])([H:9])[H:10]>>[C:1](/[N:2]=[C:6](/[C:5](=[C:4]=[C:3]([H:11])[H:12])[H:13])[N:7]([H:14])[H:15])([H:8])([H:9])[H:10]"
C       -1.71347665      -1.12864311       0.38948300
N       -0.36730973      -0.66476484       0.15069024
C        2.17668535      -1.11689395       0.47282597
C        2.09058024       0.00682455      -0.24008864
C        1.18092120       0.97795444      -0.42600522
C       -0.19843112       0.55995334      -0.23936991
N       -1.20507922       1.48743344      -0.44676105
H       -2.36764876      -0.96704831      -0.47583920
H       -1.70305135      -2.19862007       0.59326935
H       -2.17857203      -0.63115853       1.25229538
H        2.55576110      -2.02559028       0.00510862
H        3.23747036      -0.07101980       0.29882464
H        1.43284847       1.92486306      -0.88017888
H       -2.02616615       1.40695568       0.12849097
H       -0.91453170       2.43975439      -0.58274527
15
Frame=8 idx=008903 GeodesicLength=0.78819096857649 rxn_smarts="[C:1]([n:2]1[c:3]([H:11])[c:4]([H:12])[c:5]([H:13])[c:6]1[N:7]([H:14])[H:15])([H:8])([H:9])[H:10]>>[C:1](/[N:2]=[C:6](/[C:5](=[C:4]=[C:3]([H:11])[H:12])[H:13])[N:7]([H:14])[H:15])([H:8])([H:9])[H:10]"
C       -1.68637319      -1.13644244       0.39134316
N       -0.34742575      -0.65718043       0.14137745
C        2.12086504      -1.11207869       0.45704109
C        2.09118387       0.02104501      -0.24429621
C        1.18192987       0.99460633      -0.43443080
C       -0.19385977       0.57126586      -0.25408798
N       -1.21227325       1.48906428      -0.45055978
H       -2.35324319      -0.96642461      -0.46228579
H       -1.66506276      -2.20942536       0.57804187
H       -2.14324545      -0.65516197       1.26745650
H        2.49462293      -2.03200821       0.01062171
H        3.22108786      -0.10529452       0.35287161
H        1.43261741       1.93837120      -0.89586778
H       -2.01171192       1.42012817       0.15616864
H       -0.92911169       2.43953538      -0.61339368
15
Frame=9 idx=008903 GeodesicLength=0.8873775709867119 rxn_smarts="[C:1]([n:2]1[c:3]([H:11])[c:4]([H:12])[c:5]([H:13])[c:6]1[N:7]([H:14])[H:15])([H:8])([H:9])[H:10]>>[C:1](/[N:2]=[C:6](/[C:5](=[C:4]=[C:3]([H:11])[H:12])[H:13])[N:7]([H:14])[H:15])([H:8])([H:9])[H:10]"
C       -1.66010642      -1.14396544       0.39254460
N       -0.32835253      -0.64955874       0.13262741
C        2.06865889      -1.10562346       0.44258451
C        2.09189055       0.03505750      -0.24648114
C        1.18278956       1.01017250      -0.44394238
C       -0.18944354       0.58230741      -0.26721409
N       -1.21910779       1.49051680      -0.45290218
H       -2.33906753      -0.96530089      -0.44924683
H       -1.62865286      -2.21953029       0.56150509
H       -2.10868389      -0.67929374       1.28142819
H        2.43496130      -2.03757718       0.01745561
H        3.20313986      -0.13938251       0.40382844
H        1.43216607       1.95006974      -0.91409882
H       -1.99658513       1.43348964       0.18312731
H       -0.94360653       2.43861866      -0.64121571
15
Frame=10 idx=008903 GeodesicLength=0.9866578968147672 rxn_smarts="[C:1]([n:2]1[c:3]([H:11])[c:4]([H:12])[c:5]([H:13])[c:6]1[N:7]([H:14])[H:15])([H:8])([H:9])[H:10]>>[C:1](/[N:2]=[C:6](/[C:5](=[C:4]=[C:3]([H:11])[H:12])[H:13])[N:7]([H:14])[H:15])([H:8])([H:9])[H:10]"
C       -1.63460408      -1.15120054       0.39406435
N       -0.30998072      -0.64202467       0.12528745
C        2.01991505      -1.09861574       0.42717624
C        2.09276386       0.04907688      -0.24600806
C        1.18356282       1.02505649      -0.45249328
C       -0.18509042       0.59313913      -0.27889728
N       -1.22569484       1.49157533      -0.45536628
H       -2.32477255      -0.96437164      -0.43635701
H       -1.59359823      -2.22898084       0.54575498
H       -2.07529333      -0.70268033       1.29481494
H        2.37711971      -2.04163316       0.02167204
H        3.18349022      -0.17426270       0.45333970
H        1.43169352       1.96078727      -0.93174092
H       -1.98120157       1.44740814       0.20785156
H       -0.95830944       2.43672637      -0.66909843
15
Frame=11 idx=008903 GeodesicLength=1.0859342622623298 rxn_smarts="[C:1]([n:2]1[c:3]([H:11])[c:4]([H:12])[c:5]([H:13])[c:6]1[N:7]([H:14])[H:15])([H:8])([H:9])[H:10]>>[C:1](/[N:2]=[C:6](/[C:5](=[C:4]=[C:3]([H:11])[H:12])[H:13])[N:7]([H:14])[H:15])([H:8])([H:9])[H:10]"
C       -1.60980479      -1.15815801       0.39573010
N       -0.29222480      -0.63444509       0.11936290
C        1.97435788      -1.09099784       0.41127928
C        2.09375659       0.06311381      -0.24326393
C        1.18427683       1.03927716      -0.46051754
C       -0.18079382       0.60385041      -0.28899526
N       -1.23204599       1.49233054      -0.45761378
H       -2.31032682      -0.96351235      -0.42375789
H       -1.55974694      -2.23779555       0.53036022
H       -2.04308064      -0.72557900       1.30752739
H        2.32098527      -2.04443451       0.02406002
H        3.16235077      -0.20973532       0.50125177
H        1.43117537       1.97032181      -0.94964006
H       -1.96575347       1.46181111       0.23063831
H       -0.97312545       2.43395283      -0.69642154
15
Frame=12 idx=008903 GeodesicLength=1.1851436064940537 rxn_smarts="[C:1]([n:2]1[c:3]([H:11])[c:4]([H:12])[c:5]([H:13])[c:6]1[N:7]([H:14])[H:15])([H:8])([H:9])[H:10]>>[C:1](/[N:2]=[C:6](/[C:5](=[C:4]=[C:3]([H:11])[H:12])[H:13])[N:7]([H:14])[H:15])([H:8])([H:9])[H:10]"
C       -1.58569497      -1.16492923       0.39726340
N       -0.27513551      -0.62710731       0.11377457
C        1.93167064      -1.08274593       0.39519851
C        2.09481493       0.07727080      -0.23824758
C        1.18485434       1.05264283      -0.46896610
C       -0.17660444       0.61430784      -0.29821940
N       -1.23813338       1.49299990      -0.45915342
H       -2.29631104      -0.96225451      -0.41111667
H       -1.52722113      -2.24615292       0.51454297
H       -2.01125511      -0.74839199       1.31983964
H        2.26700376      -2.04595745       0.02540532
H        3.13920256      -0.24524955       0.54887108
H        1.43051225       1.97820341      -0.96922903
H       -1.94978091       1.47682993       0.25261631
H       -0.98792199       2.43053419      -0.72257959
15
Frame=13 idx=008903 GeodesicLength=1.2842744828766357 rxn_smarts="[C:1]([n:2]1[c:3]([H:11])[c:4]([H:12])[c:5]([H:13])[c:6]1[N:7]([H:14])[H:15])([H:8])([H:9])[H:10]>>[C:1](/[N:2]=[C:6](/[C:5](=[C:4]=[C:3]([H:11])[H:12])[H:13])[N:7]([H:14])[H:15])([H:8])([H:9])[H:10]"
C       -1.56216539      -1.17146052       0.39883554
N       -0.25851125      -0.61954518       0.10972599
C        1.89175449      -1.07397022       0.37891641
C        2.09590712       0.09153630      -0.23135817
C        1.18540079       1.06538441      -0.47739174
C       -0.17245074       0.62476944      -0.30577818
N       -1.24400261       1.49349543      -0.46022271
H       -2.28202755      -0.96102658      -0.39889173
H       -1.49562911      -2.25392011       0.49877781
H       -1.98064185      -0.77099370       1.33142402
H        2.21462002      -2.04651358       0.02548769
H        3.11465363      -0.28121706       0.59503013
H        1.42979089       1.98475028      -0.98979906
H       -1.93396837       1.49230731       0.27299429
H       -1.00273006       2.42640378      -0.74775030
15
Frame=14 idx=008903 GeodesicLength=1.3833273435956568 rxn_smarts="[C:1]([n:2]1[c:3]([H:11])[c:4]([H:12])[c:5]([H:13])[c:6]1[N:7]([H:14])[H:15])([H:8])([H:9])[H:10]>>[C:1](/[N:2]=[C:6](/[C:5](=[C:4]=[C:3]([H:11])[H:12])[H:13])[N:7]([H:14])[H:15])([H:8])([H:9])[H:10]"
C       -1.53919423      -1.17781902       0.40039484
N       -0.24238730      -0.61205449       0.10643496
C        1.85440471      -1.06478984       0.36215904
C        2.09701636       0.10616382      -0.22212734
C        1.18586294       1.07737029      -0.48626478
C       -0.16835934       0.63510814      -0.31232524
N       -1.24962796       1.49395799      -0.46065175
H       -2.26791456      -0.95953895      -0.38669602
H       -1.46507011      -2.26123731       0.48279609
H       -1.95060475      -0.79354695       1.34262134
H        2.16433856      -2.04589058       0.02394598
H        3.08796660      -0.31736522       0.64133241
H        1.42896417       1.98953132      -1.01223122
H       -1.91790678       1.50841267       0.29248597
H       -1.01748832       2.42169815      -0.77187427
15
Frame=15 idx=008903 GeodesicLength=1.482291723416148 rxn_smarts="[C:1]([n:2]1[c:3]([H:11])[c:4]([H:12])[c:5]([H:13])[c:6]1[N:7]([H:14])[H:15])([H:8])([H:9])[H:10]>>[C:1](/[N:2]=[C:6](/[C:5](=[C:4]=[C:3]([H:11])[H:12])[H:13])[N:7]([H:14])[H:15])([H:8])([H:9])[H:10]"
C       -1.51668968      -1.18396014       0.40213012
N       -0.22661969      -0.60435616       0.10466239
C        1.81955779      -1.05531492       0.34471315
C        2.09810433       0.12128174      -0.21050703
C        1.18630396       1.08876453      -0.49522902
C       -0.16427448       0.64547534      -0.31744300
N       -1.25503884       1.49432473      -0.46066474
H       -2.25355722      -0.95805440      -0.37474194
H       -1.43524290      -2.26801982       0.46701268
H       -1.92161916      -0.81593006       1.35334118
H        2.11591889      -2.04419863       0.02015982
H        3.05929604      -0.35408880       0.68734922
H        1.42809407       1.99264548      -1.03612931
H       -1.90202890       1.52509783       0.31059470
H       -1.03220419       2.41633327      -0.79524821
15
Frame=16 idx=008903 GeodesicLength=1.5811480670655926 rxn_smarts="[C:1]([n:2]1[c:3]([H:11])[c:4]([H:12])[c:5]([H:13])[c:6]1[N:7]([H:14])[H:15])([H:8])([H:9])[H:10]>>[C:1](/[N:2]=[C:6](/[C:5](=[C:4]=[C:3]([H:11])[H:12])[H:13])[N:7]([H:14])[H:15])([H:8])([H:9])[H:10]"
C       -1.49457111      -1.18986050       0.40419101
N       -0.21114479      -0.59641948       0.10444490
C        1.78712110      -1.04564519       0.32622833
C        2.09910767       0.13713334      -0.19607849
C        1.18673324       1.09962389      -0.50420627
C       -0.16018783       0.65585476      -0.32129672
N       -1.26025120       1.49456826      -0.46040964
H       -2.23894685      -0.95660981      -0.36287394
H       -1.40600034      -2.27424217       0.45166123
H       -1.89358462      -0.83806509       1.36375019
H        2.06949544      -2.04138528       0.01331457
H        3.02822917      -0.39161385       0.73358487
H        1.42724136       1.99401993      -1.06143629
H       -1.88637252       1.54240247       0.32726684
H       -1.04686872       2.41023871      -0.81814059
