13
Frame=0 idx=007916 GeodesicLength=0.0 rxn_smarts="[C:1]([O:2]/[C:3](=[N:4]\[H:11])[N:5]([C:6](=[O:7])[H:13])[H:12])([H:8])([H:9])[H:10]>>[C:1]([O:2][C:6](=[O:7])[H:13])([H:8])([H:9])[H:10].[C:3](=[N:4][H:11])=[N:5][H:12]"
C       -0.86332786      -0.55438832      -1.26180038
O       -0.70382632      -0.31307768       0.12036202
C        0.29745477       1.21623092       0.66956693
N       -0.09741283       2.31264940       0.35772616
N        1.01709551       0.38933613       1.32622764
C        0.46022525      -1.12029778       0.81304712
O        1.22134893      -1.73569502       0.10512227
H       -1.65708450      -1.28675381      -1.42166736
H        0.06756087      -0.92419544      -1.69664268
H       -1.15354327       0.38331970      -1.74298936
H       -0.55250537       2.54536917      -0.50777678
H        1.98163937       0.60970980       1.52483522
H       -0.01762452      -1.52220709       1.71398917
13
Frame=1 idx=007916 GeodesicLength=0.1864397023155113 rxn_smarts="[C:1]([O:2]/[C:3](=[N:4]\[H:11])[N:5]([C:6](=[O:7])[H:13])[H:12])([H:8])([H:9])[H:10]>>[C:1]([O:2][C:6](=[O:7])[H:13])([H:8])([H:9])[H:10].[C:3](=[N:4][H:11])=[N:5][H:12]"
C       -0.88938899      -0.53996596      -1.28093660
O       -0.68935516      -0.34111674       0.10093934
C        0.30369172       1.21691227       0.62702257
N       -0.10071947       2.31581667       0.33071049
N        1.01422593       0.40554372       1.30828530
C        0.49025017      -1.14251770       0.81983503
O        1.17938491      -1.83062516       0.10672701
H       -1.67209934      -1.28187209      -1.44753789
H        0.04363702      -0.86909284      -1.74279337
H       -1.21452322       0.40272851      -1.72839001
H       -0.51322080       2.56334631      -0.55188082
H        1.92165436       0.63447582       1.67847612
H        0.12646286      -1.53363281       1.77954283
13
Frame=2 idx=007916 GeodesicLength=0.3679019482159968 rxn_smarts="[C:1]([O:2]/[C:3](=[N:4]\[H:11])[N:5]([C:6](=[O:7])[H:13])[H:12])([H:8])([H:9])[H:10]>>[C:1]([O:2][C:6](=[O:7])[H:13])([H:8])([H:9])[H:10].[C:3](=[N:4][H:11])=[N:5][H:12]"
C       -0.91464421      -0.52456981      -1.29922168
O       -0.67083046      -0.37082302       0.07974084
C        0.30543485       1.21669695       0.59084473
N       -0.10537541       2.31754659       0.30411238
N        1.02027082       0.42238949       1.28458446
C        0.52527480      -1.16541890       0.82729868
O        1.12495227      -1.93321036       0.11515378
H       -1.68782395      -1.27397647      -1.47314482
H        0.01793356      -0.81322084      -1.78810249
H       -1.27285335       0.42297191      -1.70905200
H       -0.46475185       2.58077408      -0.59700951
H        1.83108150       0.65899705       1.82820245
H        0.29133143      -1.53815668       1.83659318
13
Frame=3 idx=007916 GeodesicLength=0.5447777444761605 rxn_smarts="[C:1]([O:2]/[C:3](=[N:4]\[H:11])[N:5]([C:6](=[O:7])[H:13])[H:12])([H:8])([H:9])[H:10]>>[C:1]([O:2][C:6](=[O:7])[H:13])([H:8])([H:9])[H:10].[C:3](=[N:4][H:11])=[N:5][H:12]"
C       -0.93950276      -0.50814421      -1.31509212
O       -0.64798426      -0.40214431       0.05762244
C        0.30121780       1.21590576       0.56296601
N       -0.10827856       2.31874318       0.27480499
N        1.02985303       0.44150624       1.26361688
C        0.56736430      -1.18798431       0.83466701
O        1.06046939      -2.03779323       0.13335581
H       -1.70321973      -1.26465036      -1.49669314
H       -0.00980969      -0.75402370      -1.83192709
H       -1.33150895       0.44324277      -1.68225302
H       -0.40240957       2.59591021      -0.64566371
H        1.70628809       0.67748854       1.96643708
H        0.47752091      -1.53805656       1.87815886
13
Frame=4 idx=007916 GeodesicLength=0.7194052804072429 rxn_smarts="[C:1]([O:2]/[C:3](=[N:4]\[H:11])[N:5]([C:6](=[O:7])[H:13])[H:12])([H:8])([H:9])[H:10]>>[C:1]([O:2][C:6](=[O:7])[H:13])([H:8])([H:9])[H:10].[C:3](=[N:4][H:11])=[N:5][H:12]"
C       -0.96644035      -0.49063362      -1.32655552
O       -0.62031554      -0.43441949       0.03507699
C        0.29433797       1.21498872       0.54077720
N       -0.10004345       2.32065479       0.23537732
N        1.02658333       0.46407502       1.26350194
C        0.61968637      -1.20894021       0.83935508
O        0.99332170      -2.13578108       0.16043067
H       -1.71888860      -1.25605477      -1.51497747
H       -0.04318430      -0.68812459      -1.87465468
H       -1.39652294       0.46209671      -1.64374668
H       -0.32061576       2.60454300      -0.70357913
H        1.54457697       0.68647268       2.09401714
H        0.68750459      -1.53887716       1.89497714
13
Frame=5 idx=007916 GeodesicLength=0.8908084420055228 rxn_smarts="[C:1]([O:2]/[C:3](=[N:4]\[H:11])[N:5]([C:6](=[O:7])[H:13])[H:12])([H:8])([H:9])[H:10]>>[C:1]([O:2][C:6](=[O:7])[H:13])([H:8])([H:9])[H:10].[C:3](=[N:4][H:11])=[N:5][H:12]"
C       -0.99698546      -0.47189660      -1.33286615
O       -0.58758996      -0.46681368       0.01088292
C        0.28645630       1.21455548       0.52267550
N       -0.07447608       2.32367324       0.18314715
N        0.99760099       0.48919120       1.29222904
C        0.68534634      -1.22623333       0.83803736
O        0.92522891      -2.22503021       0.19916226
H       -1.73647655      -1.24799396      -1.52598370
H       -0.08566901      -0.61606742      -1.91641444
H       -1.46781660       0.47891480      -1.59195347
H       -0.21654572       2.60212414      -0.77242298
H        1.34230581       0.68152433       2.21551441
H        0.92862103      -1.53594799       1.87799210
13
Frame=6 idx=007916 GeodesicLength=1.0517602137257547 rxn_smarts="[C:1]([O:2]/[C:3](=[N:4]\[H:11])[N:5]([C:6](=[O:7])[H:13])[H:12])([H:8])([H:9])[H:10]>>[C:1]([O:2][C:6](=[O:7])[H:13])([H:8])([H:9])[H:10].[C:3](=[N:4][H:11])=[N:5][H:12]"
C       -1.02330993      -0.45185303      -1.34061726
O       -0.55132068      -0.49833903      -0.01972735
C        0.27707187       1.21347470       0.50921005
N       -0.04044007       2.32675206       0.13572413
N        0.95239203       0.51045122       1.33127521
C        0.75228958      -1.24205663       0.83518735
O        0.83415590      -2.31632385       0.28187211
H       -1.74877107      -1.23848696      -1.54169957
H       -0.12616810      -0.54008775      -1.95631552
H       -1.53375582       0.49329780      -1.53684544
H       -0.11861016       2.59318787      -0.83066758
H        1.13341232       0.65941684       2.30784399
H        1.19305412      -1.50943324       1.82475988
13
Frame=7 idx=007916 GeodesicLength=1.197208562029983 rxn_smarts="[C:1]([O:2]/[C:3](=[N:4]\[H:11])[N:5]([C:6](=[O:7])[H:13])[H:12])([H:8])([H:9])[H:10]>>[C:1]([O:2][C:6](=[O:7])[H:13])([H:8])([H:9])[H:10].[C:3](=[N:4][H:11])=[N:5][H:12]"
C       -1.04285786      -0.43141541      -1.35410287
O       -0.51558097      -0.52809129      -0.05826311
C        0.25492352       1.21195321       0.50928146
N       -0.00303512       2.32995669       0.09997766
N        0.89745793       0.52546574       1.37234582
C        0.81306137      -1.25574688       0.83181394
O        0.71319311      -2.39768259       0.43724604
H       -1.75115122      -1.22984154      -1.56778496
H       -0.15947045      -0.46210475      -1.99468417
H       -1.59104128       0.50354117      -1.48710728
H       -0.03218304       2.57717745      -0.87437249
H        0.94651844       0.61419457       2.37153534
H        1.47016557      -1.45740638       1.71411462
13
Frame=8 idx=007916 GeodesicLength=1.3350815788633308 rxn_smarts="[C:1]([O:2]/[C:3](=[N:4]\[H:11])[N:5]([C:6](=[O:7])[H:13])[H:12])([H:8])([H:9])[H:10]>>[C:1]([O:2][C:6](=[O:7])[H:13])([H:8])([H:9])[H:10].[C:3](=[N:4][H:11])=[N:5][H:12]"
C       -1.05869669      -0.41250440      -1.37113639
O       -0.47842220      -0.55732566      -0.10412540
C        0.22306064       1.20809307       0.51986056
N        0.03452257       2.32861271       0.07572840
N        0.84616186       0.53422168       1.40898962
C        0.86882475      -1.26592148       0.82403742
O        0.59764915      -2.43582574       0.66064048
H       -1.74313569      -1.22700825      -1.60027172
H       -0.19118610      -0.37915106      -2.03295847
H       -1.64474174       0.50582390      -1.43907388
H        0.05217754       2.55371075      -0.90418013
H        0.78620585       0.54705436       2.41104858
H        1.70758006      -1.39977987       1.55144094
13
Frame=9 idx=007916 GeodesicLength=1.4837811043740015 rxn_smarts="[C:1]([O:2]/[C:3](=[N:4]\[H:11])[N:5]([C:6](=[O:7])[H:13])[H:12])([H:8])([H:9])[H:10]>>[C:1]([O:2][C:6](=[O:7])[H:13])([H:8])([H:9])[H:10].[C:3](=[N:4][H:11])=[N:5][H:12]"
C       -1.07939331      -0.39490310      -1.38366110
O       -0.43336532      -0.58951909      -0.15690502
C        0.19808967       1.20008426       0.52599090
N        0.08164240       2.32079327       0.05336316
N        0.79997588       0.53837340       1.44197884
C        0.92292045      -1.27516218       0.81513160
O        0.54246542      -2.42201861       0.88753422
H       -1.73367359      -1.22819096      -1.63022469
H       -0.23833324      -0.28662112      -2.07130159
H       -1.70563900       0.49883575      -1.37618081
H        0.15056082       2.52417175      -0.92906098
H        0.62171368       0.46766953       2.42762194
H        1.87303614      -1.35351290       1.39571353
13
Frame=10 idx=007916 GeodesicLength=1.643809033740814 rxn_smarts="[C:1]([O:2]/[C:3](=[N:4]\[H:11])[N:5]([C:6](=[O:7])[H:13])[H:12])([H:8])([H:9])[H:10]>>[C:1]([O:2][C:6](=[O:7])[H:13])([H:8])([H:9])[H:10].[C:3](=[N:4][H:11])=[N:5][H:12]"
C       -1.10036940      -0.37905223      -1.39173450
O       -0.38035177      -0.62242059      -0.21612931
C        0.18674345       1.18994903       0.52252848
N        0.13055008       2.31040433       0.03309445
N        0.75803696       0.54179157       1.47117317
C        0.96792854      -1.28797950       0.81658734
O        0.52277170      -2.37614047       1.09785081
H       -1.71861468      -1.23145710      -1.66333791
H       -0.29644177      -0.18451953      -2.10463004
H       -1.76769352       0.47917543      -1.29921928
H        0.24534318       2.49694034      -0.94845176
H        0.46447530       0.39026180       2.41988708
H        1.98762193      -1.32695308       1.26238147
13
Frame=11 idx=007916 GeodesicLength=1.8102993821596527 rxn_smarts="[C:1]([O:2]/[C:3](=[N:4]\[H:11])[N:5]([C:6](=[O:7])[H:13])[H:12])([H:8])([H:9])[H:10]>>[C:1]([O:2][C:6](=[O:7])[H:13])([H:8])([H:9])[H:10].[C:3](=[N:4][H:11])=[N:5][H:12]"
C       -1.11941324      -0.36545438      -1.39329007
O       -0.31759902      -0.65440007      -0.28191849
C        0.18696497       1.17980217       0.51132979
N        0.18418224       2.30019800       0.01331579
N        0.71335266       0.54620593       1.49897274
C        1.00466282      -1.30296459       0.82901573
O        0.52462947      -2.31324400       1.28281896
H       -1.69746054      -1.23398666      -1.69873727
H       -0.36556239      -0.07524783      -2.12822485
H       -1.82676777       0.44347338      -1.20611809
H        0.33522861       2.47276198      -0.96599579
H        0.30913582       0.32039090       2.39127564
H        2.06864638      -1.31753482       1.14755591
13
Frame=12 idx=007916 GeodesicLength=1.9809895638186419 rxn_smarts="[C:1]([O:2]/[C:3](=[N:4]\[H:11])[N:5]([C:6](=[O:7])[H:13])[H:12])([H:8])([H:9])[H:10]>>[C:1]([O:2][C:6](=[O:7])[H:13])([H:8])([H:9])[H:10].[C:3](=[N:4][H:11])=[N:5][H:12]"
C       -1.13505898      -0.35524911      -1.38791109
O       -0.25129996      -0.68308147      -0.35022155
C        0.19142301       1.17149472       0.49731988
N        0.24055682       2.29109513      -0.00514694
N        0.66198364       0.55273573       1.52558370
C        1.03385344      -1.31732946       0.84777974
O        0.54041265      -2.23998662       1.44606001
H       -1.67132992      -1.23363695      -1.73665205
H       -0.44170104       0.03454274      -2.13614159
H       -1.87730060       0.39139140      -1.10368992
H        0.42502843       2.45019285      -0.98113894
H        0.15819195       0.25820564       2.34512304
H        2.12524055      -1.32037459       1.03903571
13
Frame=13 idx=007916 GeodesicLength=2.1549857651113173 rxn_smarts="[C:1]([O:2]/[C:3](=[N:4]\[H:11])[N:5]([C:6](=[O:7])[H:13])[H:12])([H:8])([H:9])[H:10]>>[C:1]([O:2][C:6](=[O:7])[H:13])([H:8])([H:9])[H:10].[C:3](=[N:4][H:11])=[N:5][H:12]"
C       -1.14648798      -0.34865068      -1.37706518
O       -0.18638562      -0.70748243      -0.41750233
C        0.19621116       1.16594475       0.48331682
N        0.29704692       2.28334110      -0.02132591
N        0.60367148       0.56222029       1.55046866
C        1.05650685      -1.32985442       0.86989085
O        0.56714367      -2.15787991       1.59348445
H       -1.64165630      -1.22848547      -1.77768701
H       -0.52037796       0.14033474      -2.12615299
H       -1.91628164       0.32448611      -0.99896602
H        0.51459455       2.42816801      -0.99286323
H        0.01553760       0.20294164       2.28461416
H        2.16047726      -1.33508374       0.92978772
13
Frame=14 idx=007916 GeodesicLength=2.3314035396419985 rxn_smarts="[C:1]([O:2]/[C:3](=[N:4]\[H:11])[N:5]([C:6](=[O:7])[H:13])[H:12])([H:8])([H:9])[H:10]>>[C:1]([O:2][C:6](=[O:7])[H:13])([H:8])([H:9])[H:10].[C:3](=[N:4][H:11])=[N:5][H:12]"
C       -1.15404187      -0.34494114      -1.36302820
O       -0.12680738      -0.72772371      -0.48117261
C        0.19809199       1.16322865       0.47133288
N        0.35229748       2.27617443      -0.03460248
N        0.53792334       0.57493223       1.57383189
C        1.07455616      -1.33964415       0.89341869
O        0.60708392      -2.06564874       1.72986039
H       -1.61136045      -1.21659510      -1.82131620
H       -0.59749015       0.23826753      -2.09932399
H       -1.94297939       0.24700643      -0.89889290
H        0.60375815       2.40443584      -1.00043360
H       -0.11633078       0.15176671       2.21313299
H        2.17529897      -1.36125897       0.81719313
13
Frame=15 idx=007916 GeodesicLength=2.5092534891820657 rxn_smarts="[C:1]([O:2]/[C:3](=[N:4]\[H:11])[N:5]([C:6](=[O:7])[H:13])[H:12])([H:8])([H:9])[H:10]>>[C:1]([O:2][C:6](=[O:7])[H:13])([H:8])([H:9])[H:10].[C:3](=[N:4][H:11])=[N:5][H:12]"
C       -1.15827715      -0.34298708      -1.34826834
O       -0.07389162      -0.74444008      -0.54082898
C        0.19537246       1.16284106       0.46212797
N        0.40480224       2.26873504      -0.04436500
N        0.46495973       0.59073500       1.59564005
C        1.08973147      -1.34681206       0.91763192
O        0.66265869      -1.95999825       1.85798193
H       -1.58266578      -1.19697809      -1.86671715
H       -0.67022289       0.32656570      -2.05916041
H       -1.95826366       0.16354058      -0.80843574
H        0.69032051       2.37778949      -1.00325747
H       -0.23395069       0.10143118       2.13407922
H        2.16942670      -1.40042249       0.70357200
13
Frame=16 idx=007916 GeodesicLength=2.6874130831601164 rxn_smarts="[C:1]([O:2]/[C:3](=[N:4]\[H:11])[N:5]([C:6](=[O:7])[H:13])[H:12])([H:8])([H:9])[H:10]>>[C:1]([O:2][C:6](=[O:7])[H:13])([H:8])([H:9])[H:10].[C:3](=[N:4][H:11])=[N:5][H:12]"
C       -1.15950685      -0.34173024      -1.33504175
O       -0.02711682      -0.75810968      -0.59748520
C        0.18745552       1.16405305       0.45572247
N        0.45235887       2.26063897      -0.05000658
N        0.38610759       0.60933148       1.61558091
C        1.10275397      -1.35249452       0.94246043
O        0.73453333      -1.83693796       1.97725440
H       -1.55653940      -1.16975518      -1.91318884
H       -0.73675535       0.40482837      -2.01012830
H       -1.96356617       0.07791899      -0.73073400
H        0.77042604       2.34878378      -1.00099089
H       -0.33219720       0.04944286       2.05200211
H        2.14204647      -1.45596992       0.59455525
