17
Frame=0 idx=007030 GeodesicLength=0.0 rxn_smarts="[C:1]([C@:2]12[C:3]([H:11])([H:12])[C:4]([H:13])([H:14])[C@@:5]1([H:15])[C:6]([H:16])([H:17])[O:7]2)([H:8])([H:9])[H:10]>>[C:1]([C:2]1([O+:7]=[C-:6][H:16])[C:3]([H:11])([H:12])[C:4]([H:13])([H:14])[C:5]1([H:15])[H:17])([H:8])([H:9])[H:10]"
C        1.81386178       0.34913698      -0.65700960
C        0.53371145       0.28771631       0.12820892
C        0.06736613      -1.12642481       0.59123495
C       -1.20555198      -0.99108581      -0.28525581
C       -0.83167590       0.45812176      -0.58071634
C       -0.89824003       1.52525598       1.18953610
O        0.48520363       1.30813828       1.09925143
H        2.66107178       0.12807752      -0.00484338
H        1.80058542      -0.38484432      -1.46569084
H        1.95109958       1.34348865      -1.08332129
H        0.74350743      -1.93381014       0.31311952
H       -0.11964655      -1.18272847       1.66214565
H       -2.16289670      -1.16420480       0.20496805
H       -1.17365603      -1.60345008      -1.18928915
H       -0.92601866       0.86859176      -1.58919174
H       -1.36454790       0.64757179       1.67222449
H       -1.37417338       1.47044937      -0.00537094
17
Frame=1 idx=007030 GeodesicLength=0.05261215056416616 rxn_smarts="[C:1]([C@:2]12[C:3]([H:11])([H:12])[C:4]([H:13])([H:14])[C@@:5]1([H:15])[C:6]([H:16])([H:17])[O:7]2)([H:8])([H:9])[H:10]>>[C:1]([C:2]1([O+:7]=[C-:6][H:16])[C:3]([H:11])([H:12])[C:4]([H:13])([H:14])[C:5]1([H:15])[H:17])([H:8])([H:9])[H:10]"
C        1.81256545       0.34865747      -0.65825277
C        0.53336254       0.28360204       0.12793019
C        0.06860522      -1.12953390       0.59021522
C       -1.20323060      -0.99361478      -0.28724476
C       -0.83293182       0.45891265      -0.57695773
C       -0.89171626       1.52931464       1.19231821
O        0.48705086       1.30401652       1.10347304
H        2.66056993       0.12824948      -0.00689347
H        1.79917599      -0.38396734      -1.46811591
H        1.94819421       1.34386666      -1.08315553
H        0.74520068      -1.93720391       0.31377923
H       -0.12064361      -1.18596698       1.66080979
H       -2.16064737      -1.17053393       0.20156292
H       -1.16844477      -1.60443487      -1.19205252
H       -0.92209788       0.86298201      -1.58848769
H       -1.37161916       0.66210525       1.68086661
H       -1.38339341       1.48354901      -0.00979482
17
Frame=2 idx=007030 GeodesicLength=0.10540428592016654 rxn_smarts="[C:1]([C@:2]12[C:3]([H:11])([H:12])[C:4]([H:13])([H:14])[C@@:5]1([H:15])[C:6]([H:16])([H:17])[O:7]2)([H:8])([H:9])[H:10]>>[C:1]([C:2]1([O+:7]=[C-:6][H:16])[C:3]([H:11])([H:12])[C:4]([H:13])([H:14])[C:5]1([H:15])[H:17])([H:8])([H:9])[H:10]"
C        1.81125505       0.34818312      -0.65946379
C        0.53301711       0.27940874       0.12765972
C        0.06988905      -1.13275584       0.58914715
C       -1.20087099      -0.99622951      -0.28927122
C       -0.83420259       0.45961014      -0.57312937
C       -0.88516451       1.53334112       1.19499537
O        0.48886965       1.29975690       1.10776311
H        2.66005362       0.12842583      -0.00891735
H        1.79776340      -0.38303810      -1.47054319
H        1.94523579       1.34426774      -1.08289589
H        0.74695619      -1.94067816       0.31435930
H       -0.12161954      -1.18932155       1.65941604
H       -2.15832901      -1.17693097       0.19812055
H       -1.16320860      -1.60544186      -1.19487275
H       -0.91832006       0.85740307      -1.58755838
H       -1.37864121       0.67727868       1.68959928
H       -1.39268335       1.49672064      -0.01440858
17
Frame=3 idx=007030 GeodesicLength=0.15819518249424785 rxn_smarts="[C:1]([C@:2]12[C:3]([H:11])([H:12])[C:4]([H:13])([H:14])[C@@:5]1([H:15])[C:6]([H:16])([H:17])[O:7]2)([H:8])([H:9])[H:10]>>[C:1]([C:2]1([O+:7]=[C-:6][H:16])[C:3]([H:11])([H:12])[C:4]([H:13])([H:14])[C:5]1([H:15])[H:17])([H:8])([H:9])[H:10]"
C        1.80993466       0.34771702      -0.66065275
C        0.53266698       0.27516349       0.12739887
C        0.07119959      -1.13605711       0.58804779
C       -1.19848871      -0.99890729      -0.29132084
C       -0.83548627       0.46024898      -0.56925315
C       -0.87859145       1.53733823       1.19761160
O        0.49065994       1.29540210       1.11210871
H        2.65952880       0.12860847      -0.01092354
H        1.79635204      -0.38206859      -1.47297373
H        1.94224059       1.34469425      -1.08257307
H        0.74875046      -1.94420883       0.31488503
H       -0.12258370      -1.19276001       1.65798433
H       -2.15597449      -1.18338540       0.19465794
H       -1.15795594      -1.60647267      -1.19773013
H       -0.91464674       0.85184372      -1.58647559
H       -1.38561152       0.69289298       1.69837294
H       -1.40199424       1.50995068      -0.01916444
17
Frame=4 idx=007030 GeodesicLength=0.21097934369694854 rxn_smarts="[C:1]([C@:2]12[C:3]([H:11])([H:12])[C:4]([H:13])([H:14])[C@@:5]1([H:15])[C:6]([H:16])([H:17])[O:7]2)([H:8])([H:9])[H:10]>>[C:1]([C:2]1([O+:7]=[C-:6][H:16])[C:3]([H:11])([H:12])[C:4]([H:13])([H:14])[C:5]1([H:15])[H:17])([H:8])([H:9])[H:10]"
C        1.80860322       0.34725869      -0.66181862
C        0.53231365       0.27086509       0.12714710
C        0.07253839      -1.13943802       0.58691605
C       -1.19608342      -1.00164726      -0.29339334
C       -0.83678245       0.46082572      -0.56532700
C       -0.87199589       1.54130744       1.20016871
O        0.49242420       1.29094984       1.11651019
H        2.65899406       0.12879740      -0.01291123
H        1.79493997      -0.38105810      -1.47540691
H        1.93920686       1.34514468      -1.08218431
H        0.75058513      -1.94779586       0.31535376
H       -0.12353260      -1.19628488       1.65651378
H       -2.15358098      -1.18989604       0.19117388
H       -1.15268794      -1.60752441      -1.20062458
H       -0.91107530       0.84630540      -1.58524130
H       -1.39253192       0.70895669       1.70718885
H       -1.41133498       1.52323361      -0.02406503
17
Frame=5 idx=007030 GeodesicLength=0.2637579873598813 rxn_smarts="[C:1]([C@:2]12[C:3]([H:11])([H:12])[C:4]([H:13])([H:14])[C@@:5]1([H:15])[C:6]([H:16])([H:17])[O:7]2)([H:8])([H:9])[H:10]>>[C:1]([C:2]1([O+:7]=[C-:6][H:16])[C:3]([H:11])([H:12])[C:4]([H:13])([H:14])[C:5]1([H:15])[H:17])([H:8])([H:9])[H:10]"
C        1.80725914       0.34680888      -0.66295990
C        0.53195611       0.26651221       0.12690531
C        0.07390590      -1.14290082       0.58575088
C       -1.19365481      -1.00445151      -0.29548954
C       -0.83809257       0.46133700      -0.56134843
C       -0.86537387       1.54524973       1.20266876
O        0.49416114       1.28639596       1.12097023
H        2.65844790       0.12899378      -0.01487908
H        1.79352576      -0.38000440      -1.47784186
H        1.93613190       1.34561962      -1.08172654
H        0.75246147      -1.95144054       0.31576325
H       -0.12446489      -1.19990092       1.65500314
H       -2.15114814      -1.19646730       0.18766632
H       -1.14740360      -1.60859753      -1.20355761
H       -0.90760637       0.84078850      -1.58385524
H       -1.39939453       0.72548631       1.71604507
H       -1.42071054       1.53657104      -0.02911476
17
Frame=6 idx=007030 GeodesicLength=0.3165322437350196 rxn_smarts="[C:1]([C@:2]12[C:3]([H:11])([H:12])[C:4]([H:13])([H:14])[C@@:5]1([H:15])[C:6]([H:16])([H:17])[O:7]2)([H:8])([H:9])[H:10]>>[C:1]([C:2]1([O+:7]=[C-:6][H:16])[C:3]([H:11])([H:12])[C:4]([H:13])([H:14])[C:5]1([H:15])[H:17])([H:8])([H:9])[H:10]"
C        1.80590126       0.34636839      -0.66407538
C        0.53159383       0.26210362       0.12667451
C        0.07530292      -1.14644763       0.58455136
C       -1.19120290      -1.00732203      -0.29760929
C       -0.83941734       0.46178009      -0.55731567
C       -0.85872485       1.54916260       1.20511586
O        0.49586969       1.28173744       1.12549117
H        2.65788938       0.12919820      -0.01682631
H        1.79210858      -0.37890559      -1.48027835
H        1.93301381       1.34612042      -1.08119695
H        0.75438094      -1.95514418       0.31611078
H       -0.12537824      -1.20361295       1.65345153
H       -2.14867594      -1.20310302       0.18413544
H       -1.14210332      -1.60969280      -1.20652983
H       -0.90424025       0.83529429      -1.58231863
H       -1.40619442       0.74249668       1.72494016
H       -1.43012315       1.54996647      -0.03432040
17
Frame=7 idx=007030 GeodesicLength=0.3693062674640635 rxn_smarts="[C:1]([C@:2]12[C:3]([H:11])([H:12])[C:4]([H:13])([H:14])[C@@:5]1([H:15])[C:6]([H:16])([H:17])[O:7]2)([H:8])([H:9])[H:10]>>[C:1]([C:2]1([O+:7]=[C-:6][H:16])[C:3]([H:11])([H:12])[C:4]([H:13])([H:14])[C:5]1([H:15])[H:17])([H:8])([H:9])[H:10]"
C        1.80452859       0.34593793      -0.66516384
C        0.53122655       0.25763847       0.12645544
C        0.07673009      -1.15008011       0.58331663
C       -1.18872767      -1.01025953      -0.29975247
C       -0.84075746       0.46215319      -0.55322535
C       -0.85204294       1.55304575       1.20751334
O        0.49755008       1.27697051       1.13007595
H        2.65731780       0.12941107      -0.01875221
H        1.79068682      -0.37775905      -1.48271590
H        1.92985069       1.34664779      -1.08059221
H        0.75634449      -1.95890776       0.31639377
H       -0.12627064      -1.20742515       1.65185807
H       -2.14616373      -1.20980519       0.18058049
H       -1.13678715      -1.61080907      -1.20954175
H       -0.90097684       0.82982346      -1.58063088
H       -1.41292780       0.76000116       1.73387177
H       -1.43958089       1.56341653      -0.03969086
17
Frame=8 idx=007030 GeodesicLength=0.42215771127793716 rxn_smarts="[C:1]([C@:2]12[C:3]([H:11])([H:12])[C:4]([H:13])([H:14])[C@@:5]1([H:15])[C:6]([H:16])([H:17])[O:7]2)([H:8])([H:9])[H:10]>>[C:1]([C:2]1([O+:7]=[C-:6][H:16])[C:3]([H:11])([H:12])[C:4]([H:13])([H:14])[C:5]1([H:15])[H:17])([H:8])([H:9])[H:10]"
C        1.80313517       0.34552386      -0.66621731
C        0.53085431       0.25310646       0.12625490
C        0.07819119      -1.15381361       0.58204555
C       -1.18623159      -1.01327919      -0.30191616
C       -0.84212020       0.46244681      -0.54906490
C       -0.84529742       1.55690480       1.20986372
O        0.49919596       1.27206595       1.13474768
H        2.65673127       0.12962995      -0.02065475
H        1.78925177      -0.37655491      -1.48515699
H        1.92663028       1.34721275      -1.07989277
H        0.75835961      -1.96274577       0.31659147
H       -0.12713145      -1.21136245       1.65022037
H       -2.14360956      -1.21661665       0.17701771
H       -1.13144660      -1.61196277      -1.21260696
H       -0.89781040       0.82439308      -1.57882994
H       -1.41959233       0.77811206       1.74281225
H       -1.44911002       1.57693963      -0.04521386
17
Frame=9 idx=007030 GeodesicLength=0.4750129191509619 rxn_smarts="[C:1]([C@:2]12[C:3]([H:11])([H:12])[C:4]([H:13])([H:14])[C@@:5]1([H:15])[C:6]([H:16])([H:17])[O:7]2)([H:8])([H:9])[H:10]>>[C:1]([C:2]1([O+:7]=[C-:6][H:16])[C:3]([H:11])([H:12])[C:4]([H:13])([H:14])[C:5]1([H:15])[H:17])([H:8])([H:9])[H:10]"
C        1.80172042       0.34511723      -0.66724033
C        0.53047609       0.24850952       0.12607566
C        0.07968839      -1.15763393       0.58074169
C       -1.18371656      -1.01636835      -0.30409747
C       -0.84350648       0.46266409      -0.54483290
C       -0.83852523       1.56074005       1.21218151
O        0.50081214       1.26704850       1.13948910
H        2.65613201       0.12984712      -0.02254306
H        1.78779167      -0.37529749      -1.48760785
H        1.92335916       1.34781017      -1.07911815
H        0.76041866      -1.96665342       0.31671870
H       -0.12796971      -1.21540878       1.64854711
H       -2.14100333      -1.22351686       0.17342485
H       -1.12606815      -1.61313912      -1.21571676
H       -0.89473482       0.81899909      -1.57689248
H       -1.42619099       0.79674895       1.75178827
H       -1.45868326       1.59053323      -0.05091788
17
Frame=10 idx=007030 GeodesicLength=0.5280759204906196 rxn_smarts="[C:1]([C@:2]12[C:3]([H:11])([H:12])[C:4]([H:13])([H:14])[C@@:5]1([H:15])[C:6]([H:16])([H:17])[O:7]2)([H:8])([H:9])[H:10]>>[C:1]([C:2]1([O+:7]=[C-:6][H:16])[C:3]([H:11])([H:12])[C:4]([H:13])([H:14])[C:5]1([H:15])[H:17])([H:8])([H:9])[H:10]"
C        1.80030135       0.34472872      -0.66823158
C        0.53008106       0.24384684       0.12589253
C        0.08122173      -1.16158247       0.57936343
C       -1.18114806      -1.01955341      -0.30633640
C       -0.84488576       0.46276987      -0.54055790
C       -0.83175174       1.56443745       1.21444091
O        0.50238082       1.26189011       1.14429988
H        2.65550915       0.13010507      -0.02437869
H        1.78638256      -0.37395570      -1.49004358
H        1.92004760       1.34843873      -1.07821563
H        0.76254513      -1.97061975       0.31677074
H       -0.12878493      -1.21960015       1.64678625
H       -2.13836153      -1.23040817       0.16975941
H       -1.12073786      -1.61432309      -1.21884912
H       -0.89188163       0.81357238      -1.57457293
H       -1.43257783       0.81608255       1.76086265
H       -1.46834009       1.60417102      -0.05698996
17
Frame=11 idx=007030 GeodesicLength=0.58071680265232 rxn_smarts="[C:1]([C@:2]12[C:3]([H:11])([H:12])[C:4]([H:13])([H:14])[C@@:5]1([H:15])[C:6]([H:16])([H:17])[O:7]2)([H:8])([H:9])[H:10]>>[C:1]([C:2]1([O+:7]=[C-:6][H:16])[C:3]([H:11])([H:12])[C:4]([H:13])([H:14])[C:5]1([H:15])[H:17])([H:8])([H:9])[H:10]"
C        1.79882481       0.34435679      -0.66920400
C        0.52968920       0.23916930       0.12573371
C        0.08279205      -1.16555989       0.57797912
C       -1.17856868      -1.02277508      -0.30859872
C       -0.84630008       0.46283180      -0.53622382
C       -0.82495038       1.56816014       1.21668055
O        0.50392405       1.25665299       1.14915490
H        2.65488318       0.13034274      -0.02621086
H        1.78491762      -0.37261593      -1.49247779
H        1.91671296       1.34904722      -1.07728113
H        0.76471138      -1.97462319       0.31676217
H       -0.12958140      -1.22384009       1.64499736
H       -2.13568474      -1.23742125       0.16611463
H       -1.11533998      -1.61553990      -1.22203582
H       -0.88902216       0.80820976      -1.57232500
H       -1.43899910       0.83575939       1.76992688
H       -1.47800872       1.61784521      -0.06299218
17
Frame=12 idx=007030 GeodesicLength=0.6336259796105305 rxn_smarts="[C:1]([C@:2]12[C:3]([H:11])([H:12])[C:4]([H:13])([H:14])[C@@:5]1([H:15])[C:6]([H:16])([H:17])[O:7]2)([H:8])([H:9])[H:10]>>[C:1]([C:2]1([O+:7]=[C-:6][H:16])[C:3]([H:11])([H:12])[C:4]([H:13])([H:14])[C:5]1([H:15])[H:17])([H:8])([H:9])[H:10]"
C        1.79737950       0.34399030      -0.67012821
C        0.52927274       0.23436632       0.12559804
C        0.08436258      -1.16968664       0.57655390
C       -1.17598603      -1.02609385      -0.31083430
C       -0.84773734       0.46281077      -0.53178225
C       -0.81804363       1.57189719       1.21889393
O        0.50544287       1.25125919       1.15415480
H        2.65421564       0.13060778      -0.02802556
H        1.78344294      -0.37113092      -1.49494552
H        1.91325417       1.34979724      -1.07620489
H        0.76690159      -1.97872803       0.31668208
H       -0.13034584      -1.22827010       1.64319948
H       -2.13297595      -1.24455137       0.16241251
H       -1.10994668      -1.61676615      -1.22525425
H       -0.88631167       0.80283595      -1.56981791
H       -1.44520073       0.85604331       1.77892340
H       -1.48772418       1.63161903      -0.06942525
17
Frame=13 idx=007030 GeodesicLength=0.6864046632911163 rxn_smarts="[C:1]([C@:2]12[C:3]([H:11])([H:12])[C:4]([H:13])([H:14])[C@@:5]1([H:15])[C:6]([H:16])([H:17])[O:7]2)([H:8])([H:9])[H:10]>>[C:1]([C:2]1([O+:7]=[C-:6][H:16])[C:3]([H:11])([H:12])[C:4]([H:13])([H:14])[C:5]1([H:15])[H:17])([H:8])([H:9])[H:10]"
C        1.79587917       0.34364519      -0.67102332
C        0.52885095       0.22952881       0.12548183
C        0.08598224      -1.17388847       0.57509071
C       -1.17336749      -1.02948373      -0.31312204
C       -0.84920122       0.46270449      -0.52727625
C       -0.81111952       1.57557117       1.22108509
O        0.50691886       1.24574342       1.15920933
H        2.65353597       0.13087402      -0.02981252
H        1.78194500      -0.36961847      -1.49739864
H        1.90976248       1.35053087      -1.07505132
H        0.76915708      -1.98288456       0.31652304
H       -0.13108734      -1.23280115       1.64133462
H       -2.13022093      -1.25177225       0.15868368
H       -1.10451089      -1.61801882      -1.22853021
H       -0.88368887       0.79749959      -1.56720420
H       -1.45132014       0.87692732       1.78797143
H       -1.49751534       1.64544257      -0.07596121
17
Frame=14 idx=007030 GeodesicLength=0.7391859998487424 rxn_smarts="[C:1]([C@:2]12[C:3]([H:11])([H:12])[C:4]([H:13])([H:14])[C@@:5]1([H:15])[C:6]([H:16])([H:17])[O:7]2)([H:8])([H:9])[H:10]>>[C:1]([C:2]1([O+:7]=[C-:6][H:16])[C:3]([H:11])([H:12])[C:4]([H:13])([H:14])[C:5]1([H:15])[H:17])([H:8])([H:9])[H:10]"
C        1.79435070       0.34331832      -0.67188032
C        0.52841638       0.22462346       0.12538833
C        0.08763575      -1.17819494       0.57358540
C       -1.17072419      -1.03295639      -0.31543634
C       -0.85069229       0.46250938      -0.52268590
C       -0.80414499       1.57920331       1.22325743
O        0.50835422       1.24008604       1.16435772
H        2.65283330       0.13115327      -0.03157275
H        1.78042809      -0.36803482      -1.49985240
H        1.90620283       1.35130486      -1.07379377
H        0.77146621      -1.98711266       0.31628041
H       -0.13179989      -1.23747392       1.63942099
H       -2.12742373      -1.25909933       0.15491833
H       -1.09904951      -1.61929236      -1.23185700
H       -0.88117703       0.79218554      -1.56442878
H       -1.45729612       0.89844905       1.79701990
H       -1.50737972       1.65933118      -0.08272126
17
Frame=15 idx=007030 GeodesicLength=0.7919687371999609 rxn_smarts="[C:1]([C@:2]12[C:3]([H:11])([H:12])[C:4]([H:13])([H:14])[C@@:5]1([H:15])[C:6]([H:16])([H:17])[O:7]2)([H:8])([H:9])[H:10]>>[C:1]([C:2]1([O+:7]=[C-:6][H:16])[C:3]([H:11])([H:12])[C:4]([H:13])([H:14])[C:5]1([H:15])[H:17])([H:8])([H:9])[H:10]"
C        1.79279202       0.34301151      -0.67269636
C        0.52796778       0.21964819       0.12531926
C        0.08932381      -1.18260941       0.57203636
C       -1.16805635      -1.03651435      -0.31777729
C       -0.85221236       0.46222187      -0.51800719
C       -0.79711860       1.58278889       1.22541630
O        0.50974655       1.23428118       1.16960351
H        2.65210575       0.13144725      -0.03330411
H        1.77889039      -0.36637526      -1.50230558
H        1.90257180       1.35212134      -1.07242576
H        0.77383042      -1.99141399       0.31594955
H       -0.13248116      -1.24229548       1.63745629
H       -2.12458390      -1.26653747       0.15111522
H       -1.09356305      -1.62058637      -1.23523599
H       -0.87877789       0.78689354      -1.56148979
H       -1.46311184       0.92063478       1.80606112
H       -1.51732339       1.67328376      -0.08971554
17
Frame=16 idx=007030 GeodesicLength=0.8447520576114319 rxn_smarts="[C:1]([C@:2]12[C:3]([H:11])([H:12])[C:4]([H:13])([H:14])[C@@:5]1([H:15])[C:6]([H:16])([H:17])[O:7]2)([H:8])([H:9])[H:10]>>[C:1]([C:2]1([O+:7]=[C-:6][H:16])[C:3]([H:11])([H:12])[C:4]([H:13])([H:14])[C:5]1([H:15])[H:17])([H:8])([H:9])[H:10]"
C        1.79120098       0.34272662      -0.67346875
C        0.52750389       0.21460104       0.12527650
C        0.09104720      -1.18713528       0.57044187
C       -1.16536418      -1.04015990      -0.32014510
C       -0.85376345       0.46183875      -0.51323551
C       -0.79003820       1.58632421       1.22756727
O        0.51109311       1.22832287       1.17495159
H        2.65135153       0.13175723      -0.03500457
H        1.77732993      -0.36463504      -1.50475726
H        1.89886568       1.35298293      -1.07094105
H        0.77625129      -1.99579043       0.31552580
H       -0.13312899      -1.24727327       1.63543872
H       -2.12170103      -1.27409188       0.14727308
H       -1.08805168      -1.62190019      -1.23866873
H       -0.87649320       0.78162328      -1.55838477
H       -1.46874990       0.94351052       1.81508608
H       -1.52735297       1.68729853      -0.09695519
