16
Frame=0 idx=002554 GeodesicLength=0.0 rxn_smarts="[C:1]([C:2]([C:3]([H:11])([H:12])[H:13])([C@@:4]1([H:14])[C:5]([H:15])([H:16])[O:6]1)[H:10])([H:7])([H:8])[H:9]>>[C:1]([C@@:2]1([H:10])[C@@:4]([O:6][C:3]([H:11])([H:12])[H:13])([H:14])[C:5]1([H:15])[H:16])([H:7])([H:8])[H:9]"
C       -0.51122523       1.47484063      -0.92856271
C       -0.19687795       0.48462578       0.14345010
C       -1.30235547      -1.20899505      -0.10261928
C        0.95291686      -0.44250332       0.12653476
C        1.92768054      -0.11597921       1.11171038
O        0.38876218      -1.60433671       0.63077971
H       -0.04064403       2.44254437      -0.73962104
H       -1.58938168       1.65159099      -0.96888660
H       -0.18145288       1.11906570      -1.90646394
H       -0.51309715       0.74903350       1.15116751
H       -2.12089845      -0.56227419       0.22349398
H       -1.51232013      -2.19974529       0.29779433
H       -1.23882237      -1.25549479      -1.18709393
H        1.37132606      -0.53914978      -0.88770343
H        2.97995390       0.03461985       0.90059444
H        1.58643580      -0.02784246       2.13542577
16
Frame=1 idx=002554 GeodesicLength=0.0696094261147742 rxn_smarts="[C:1]([C:2]([C:3]([H:11])([H:12])[H:13])([C@@:4]1([H:14])[C:5]([H:15])([H:16])[O:6]1)[H:10])([H:7])([H:8])[H:9]>>[C:1]([C@@:2]1([H:10])[C@@:4]([O:6][C:3]([H:11])([H:12])[H:13])([H:14])[C:5]1([H:15])[H:16])([H:7])([H:8])[H:9]"
C       -0.49719469       1.48290253      -0.92209816
C       -0.19188623       0.48312598       0.14483988
C       -1.29956330      -1.21682362      -0.09511687
C        0.95030091      -0.45225968       0.10303780
C        1.90416680      -0.10885541       1.10327583
O        0.40283569      -1.60826030       0.63797568
H       -0.02249377       2.44660025      -0.72325247
H       -1.57441571       1.66375221      -0.96731972
H       -0.16538465       1.13520048      -1.90225809
H       -0.51477506       0.74468706       1.15097834
H       -2.12393416      -0.57218460       0.22071727
H       -1.51265418      -2.20274300       0.31564203
H       -1.24388212      -1.27545297      -1.18005039
H        1.36585607      -0.55574533      -0.90989438
H        2.95434946       0.05981650       0.89451154
H        1.56867495      -0.02376009       2.12901171
16
Frame=2 idx=002554 GeodesicLength=0.13929258102289196 rxn_smarts="[C:1]([C:2]([C:3]([H:11])([H:12])[H:13])([C@@:4]1([H:14])[C:5]([H:15])([H:16])[O:6]1)[H:10])([H:7])([H:8])[H:9]>>[C:1]([C@@:2]1([H:10])[C@@:4]([O:6][C:3]([H:11])([H:12])[H:13])([H:14])[C:5]1([H:15])[H:16])([H:7])([H:8])[H:9]"
C       -0.48303180       1.49105687      -0.91556403
C       -0.18725793       0.48169278       0.14624818
C       -1.29681369      -1.22478499      -0.08768520
C        0.94718220      -0.46162042       0.08032315
C        1.88076342      -0.10195759       1.09459528
O        0.41717833      -1.61175742       0.64481946
H       -0.00452604       2.45067594      -0.70638525
H       -1.55928161       1.67582986      -0.96629398
H       -0.14836806       1.15164599      -1.89770608
H       -0.51714654       0.74052927       1.15063203
H       -2.12716234      -0.58248546       0.21754444
H       -1.51278675      -2.20565819       0.33371861
H       -1.24876081      -1.29601851      -1.17284647
H        1.35971113      -0.57197287      -0.93141317
H        2.92858736       0.08404243       0.88752236
H        1.55171313      -0.01921769       2.12249068
16
Frame=3 idx=002554 GeodesicLength=0.20903921894747549 rxn_smarts="[C:1]([C:2]([C:3]([H:11])([H:12])[H:13])([C@@:4]1([H:14])[C:5]([H:15])([H:16])[O:6]1)[H:10])([H:7])([H:8])[H:9]>>[C:1]([C@@:2]1([H:10])[C@@:4]([O:6][C:3]([H:11])([H:12])[H:13])([H:14])[C:5]1([H:15])[H:16])([H:7])([H:8])[H:9]"
C       -0.46875417       1.49930750      -0.90896585
C       -0.18300211       0.48033074       0.14765279
C       -1.29411464      -1.23287440      -0.08031731
C        0.94358363      -0.47058376       0.05834080
C        1.85749176      -0.09526924       1.08569882
O        0.43178171      -1.61484189       0.65127935
H        0.01324168       2.45476718      -0.68903477
H       -1.54398659       1.68784509      -0.96580223
H       -0.13043739       1.16838875      -1.89280190
H       -0.52015969       0.73656026       1.15011945
H       -2.13057601      -0.59317975       0.21399411
H       -1.51273643      -2.20847262       0.35203486
H       -1.25346387      -1.31721232      -1.16546194
H        1.35291813      -0.58781297      -0.95229833
H        2.90273232       0.10729430       0.87970274
H        1.53548166      -0.01424686       2.11585942
16
Frame=4 idx=002554 GeodesicLength=0.27884929581243456 rxn_smarts="[C:1]([C:2]([C:3]([H:11])([H:12])[H:13])([C@@:4]1([H:14])[C:5]([H:15])([H:16])[O:6]1)[H:10])([H:7])([H:8])[H:9]>>[C:1]([C@@:2]1([H:10])[C@@:4]([O:6][C:3]([H:11])([H:12])[H:13])([H:14])[C:5]1([H:15])[H:16])([H:7])([H:8])[H:9]"
C       -0.45437397       1.50765739      -0.90230505
C       -0.17912292       0.47904580       0.14903030
C       -1.29146811      -1.24108819      -0.07300525
C        0.93952920      -0.47914967       0.03703633
C        1.83437234      -0.08878033       1.07660725
O        0.44664339      -1.61752343       0.65732898
H        0.03079081       2.45886852      -0.67121414
H       -1.52852902       1.69981848      -0.96583270
H       -0.11162026       1.18541544      -1.88753402
H       -0.52376108       0.73278070       1.14943074
H       -2.13416065      -0.60427049       0.21008328
H       -1.51251620      -2.21116122       0.37061187
H       -1.25799091      -1.33905578      -1.15787378
H        1.34550218      -0.60324825      -0.97259466
H        2.87679542       0.12957196       0.87112877
H        1.51990977      -0.00888094       2.10910208
16
Frame=5 idx=002554 GeodesicLength=0.3487205024497591 rxn_smarts="[C:1]([C:2]([C:3]([H:11])([H:12])[H:13])([C@@:4]1([H:14])[C:5]([H:15])([H:16])[O:6]1)[H:10])([H:7])([H:8])[H:9]>>[C:1]([C@@:2]1([H:10])[C@@:4]([O:6][C:3]([H:11])([H:12])[H:13])([H:14])[C:5]1([H:15])[H:16])([H:7])([H:8])[H:9]"
C       -0.43989954       1.51610853      -0.89558530
C       -0.17562161       0.47783913       0.15035708
C       -1.28887953      -1.24942220      -0.06574151
C        0.93503832      -0.48732564       0.01635219
C        1.81142007      -0.08249020       1.06734730
O        0.46175923      -1.61981684       0.66293807
H        0.04811832       2.46296890      -0.65293824
H       -1.51290213       1.71177990      -0.96636823
H       -0.09195068       1.20270876      -1.88189542
H       -0.52789855       0.72918513       1.14855666
H       -2.13790737      -0.61576086       0.20583059
H       -1.51214155      -2.21370102       0.38946795
H       -1.26234747      -1.36156640      -1.15005757
H        1.33748415      -0.61827016      -0.99235224
H        2.85080131       0.15091993       0.86187769
H        1.50492702      -0.00315698       2.10221098
16
Frame=6 idx=002554 GeodesicLength=0.41864400990518347 rxn_smarts="[C:1]([C:2]([C:3]([H:11])([H:12])[H:13])([C@@:4]1([H:14])[C:5]([H:15])([H:16])[O:6]1)[H:10])([H:7])([H:8])[H:9]>>[C:1]([C@@:2]1([H:10])[C@@:4]([O:6][C:3]([H:11])([H:12])[H:13])([H:14])[C:5]1([H:15])[H:16])([H:7])([H:8])[H:9]"
C       -0.42534151       1.52466368      -0.88880765
C       -0.17250531       0.47671550       0.15161521
C       -1.28635290      -1.25787335      -0.05852148
C        0.93012601      -0.49511515      -0.00375285
C        1.78863349      -0.07637653       1.05793621
O        0.47711721      -1.62173075       0.66808666
H        0.06521653       2.46706309      -0.63422067
H       -1.49710465       1.72375128      -0.96739765
H       -0.07145579       1.22025201      -1.87587209
H       -0.53253637       0.72577149       1.14749140
H       -2.14180773      -0.62765637       0.20124501
H       -1.51162741      -2.21606987       0.40861208
H       -1.26652733      -1.38476469      -1.14198950
H        1.32887844      -0.63287032      -1.01160829
H        2.82481907       0.17135079       0.85200272
H        1.49046825       0.00288920       2.09518089
16
Frame=7 idx=002554 GeodesicLength=0.4886274046081273 rxn_smarts="[C:1]([C:2]([C:3]([H:11])([H:12])[H:13])([C@@:4]1([H:14])[C:5]([H:15])([H:16])[O:6]1)[H:10])([H:7])([H:8])[H:9]>>[C:1]([C@@:2]1([H:10])[C@@:4]([O:6][C:3]([H:11])([H:12])[H:13])([H:14])[C:5]1([H:15])[H:16])([H:7])([H:8])[H:9]"
C       -0.41070381       1.53332491      -0.88197239
C       -0.16977236       0.47567670       0.15278314
C       -1.28388828      -1.26643900      -0.05133849
C        0.92480966      -0.50252638      -0.02333380
C        1.76601596      -0.07043851       1.04839025
O        0.49271589      -1.62327513       0.67275172
H        0.08208712       2.47114034      -0.61508089
H       -1.48112485       1.73576182      -0.96890288
H       -0.05016677       1.23802691      -1.86945269
H       -0.53763044       0.72253466       1.14622651
H       -2.14584828      -0.63996018       0.19634386
H       -1.51098116      -2.21823887       0.42806174
H       -1.27053053      -1.40866672      -1.13363987
H        1.31970129      -0.64704515      -1.03041251
H        2.79884913       0.19091440       0.84157272
H        1.47646743       0.00921020       2.08800359
16
Frame=8 idx=002554 GeodesicLength=0.5586661804083796 rxn_smarts="[C:1]([C:2]([C:3]([H:11])([H:12])[H:13])([C@@:4]1([H:14])[C:5]([H:15])([H:16])[O:6]1)[H:10])([H:7])([H:8])[H:9]>>[C:1]([C@@:2]1([H:10])[C@@:4]([O:6][C:3]([H:11])([H:12])[H:13])([H:14])[C:5]1([H:15])[H:16])([H:7])([H:8])[H:9]"
C       -0.39598824       1.54209316      -0.87507977
C       -0.16742372       0.47472476       0.15384328
C       -1.28148799      -1.27511570      -0.04418722
C        0.91910135      -0.50957040      -0.04243507
C        1.74356551      -0.06466945       1.03872422
O        0.50854430      -1.62445966       0.67691065
H        0.09873899       2.47518672      -0.59553144
H       -1.46494892       1.74784139      -0.97086476
H       -0.02811230       1.25600967      -1.86262282
H       -0.54314605       0.71946896       1.14475712
H       -2.15001719      -0.65267762       0.19113585
H       -1.51021667      -2.22018368       0.44782871
H       -1.27434988      -1.43328896      -1.12498138
H        1.30996174      -0.66079494      -1.04880642
H        2.77291597       0.20967308       0.83063585
H        1.46286309       0.01576265       2.08067319
16
Frame=9 idx=002554 GeodesicLength=0.6287841293254743 rxn_smarts="[C:1]([C:2]([C:3]([H:11])([H:12])[H:13])([C@@:4]1([H:14])[C:5]([H:15])([H:16])[O:6]1)[H:10])([H:7])([H:8])[H:9]>>[C:1]([C@@:2]1([H:10])[C@@:4]([O:6][C:3]([H:11])([H:12])[H:13])([H:14])[C:5]1([H:15])[H:16])([H:7])([H:8])[H:9]"
C       -0.38120251       1.55097211      -0.86812978
C       -0.16545897       0.47386441       0.15477496
C       -1.27914564      -1.28390582      -0.03706152
C        0.91301342      -0.51624968      -0.06110951
C        1.72127119      -0.05906773       1.02894801
O        0.52461033      -1.62528332       0.68054991
H        0.11515150       2.47919242      -0.57558519
H       -1.44856170       1.76001341      -0.97327525
H       -0.00531614       1.27418992      -1.85535657
H       -0.54905516       0.71657250       1.14307157
H       -2.15429102      -0.66582009       0.18563166
H       -1.50933057      -2.22186335       0.46794173
H       -1.27798134      -1.45864297      -1.11598989
H        1.29966820      -0.67411198      -1.06684011
H        2.74704343       0.22761800       0.81925941
H        1.44958497       0.02252216       2.07317059
16
Frame=10 idx=002554 GeodesicLength=0.6989761446580682 rxn_smarts="[C:1]([C:2]([C:3]([H:11])([H:12])[H:13])([C@@:4]1([H:14])[C:5]([H:15])([H:16])[O:6]1)[H:10])([H:7])([H:8])[H:9]>>[C:1]([C@@:2]1([H:10])[C@@:4]([O:6][C:3]([H:11])([H:12])[H:13])([H:14])[C:5]1([H:15])[H:16])([H:7])([H:8])[H:9]"
C       -0.36633806       1.55995746      -0.86111825
C       -0.16387600       0.47309479       0.15556382
C       -1.27686841      -1.29280169      -0.02996008
C        0.90655233      -0.52258324      -0.07939528
C        1.69912841      -0.05363063       1.01907085
O        0.54089671      -1.62576030       0.68364546
H        0.13135337       2.48313959      -0.55525534
H       -1.43194048       1.77230796      -0.97610624
H        0.01820145       1.29253266      -1.84764054
H       -0.55532488       0.71383716       1.14116864
H       -2.15867005      -0.67939193       0.17983954
H       -1.50834019      -2.22325537       0.48839390
H       -1.28141657      -1.48474771      -1.10662712
H        1.28882886      -0.68700210      -1.08454816
H        2.72122281       0.24486799       0.80746633
H        1.43659067       0.02943537       2.06550245
16
Frame=11 idx=002554 GeodesicLength=0.7692463932775115 rxn_smarts="[C:1]([C:2]([C:3]([H:11])([H:12])[H:13])([C@@:4]1([H:14])[C:5]([H:15])([H:16])[O:6]1)[H:10])([H:7])([H:8])[H:9]>>[C:1]([C@@:2]1([H:10])[C@@:4]([O:6][C:3]([H:11])([H:12])[H:13])([H:14])[C:5]1([H:15])[H:16])([H:7])([H:8])[H:9]"
C       -0.35139068       1.56904879      -0.85404351
C       -0.16267452       0.47241611       0.15619524
C       -1.27465659      -1.30180199      -0.02288021
C        0.89972368      -0.52858492      -0.09733189
C        1.67712907      -0.04835699       1.00910074
O        0.55739708      -1.62589650       0.68617689
H        0.14735684       2.48701296      -0.53454798
H       -1.41506486       1.78475191      -0.97934033
H        0.04242204       1.31101327      -1.83945755
H       -0.56193183       0.71125578       1.13904410
H       -2.16314368      -0.69340221       0.17376323
H       -1.50725296      -2.22432676       0.50919774
H       -1.28464196      -1.51161513      -1.09685993
H        1.27744321      -0.69947034      -1.10197342
H        2.69545336       0.26149313       0.79529097
H        1.42383179       0.03646290       2.05766590
16
Frame=12 idx=002554 GeodesicLength=0.8396002035231634 rxn_smarts="[C:1]([C:2]([C:3]([H:11])([H:12])[H:13])([C@@:4]1([H:14])[C:5]([H:15])([H:16])[O:6]1)[H:10])([H:7])([H:8])[H:9]>>[C:1]([C@@:2]1([H:10])[C@@:4]([O:6][C:3]([H:11])([H:12])[H:13])([H:14])[C:5]1([H:15])[H:16])([H:7])([H:8])[H:9]"
C       -0.33635702       1.57824411      -0.84690020
C       -0.16185305       0.47183120       0.15665415
C       -1.27250930      -1.31090326      -0.01582037
C        0.89253183      -0.53426522      -0.11495869
C        1.65526278      -0.04324548       0.99904414
O        0.57410517      -1.62569628       0.68812443
H        0.16316849       2.49079653      -0.51347296
H       -1.39791333       1.79736794      -0.98296111
H        0.06733145       1.32960730      -1.83078472
H       -0.56885544       0.70882313       1.13669309
H       -2.16770228      -0.70786273       0.16741055
H       -1.50607316      -2.22504418       0.53035334
H       -1.28764656      -1.53925845      -1.08664839
H        1.26551169      -0.71151786      -1.11915440
H        2.66973882       0.27754699       0.78276580
H        1.41125991       0.04357625       2.04965536
16
Frame=13 idx=002554 GeodesicLength=0.9100454805023644 rxn_smarts="[C:1]([C:2]([C:3]([H:11])([H:12])[H:13])([C@@:4]1([H:14])[C:5]([H:15])([H:16])[O:6]1)[H:10])([H:7])([H:8])[H:9]>>[C:1]([C@@:2]1([H:10])[C@@:4]([O:6][C:3]([H:11])([H:12])[H:13])([H:14])[C:5]1([H:15])[H:16])([H:7])([H:8])[H:9]"
C       -0.32123166       1.58754085      -0.83968697
C       -0.16141007       0.47134168       0.15692752
C       -1.27042341      -1.32010231      -0.00877860
C        0.88497933      -0.53963522      -0.13231378
C        1.63351718      -0.03829702       0.98890541
O        0.59101413      -1.62516038       0.68946693
H        0.17879869       2.49447654      -0.49204110
H       -1.38046192       1.81017808      -0.98695336
H        0.09291565       1.34828712      -1.82160112
H       -0.57607843       0.70653539       1.13411020
H       -2.17233371      -0.72278409       0.16079113
H       -1.50480396      -2.22537619       0.55186088
H       -1.29041548      -1.56768523      -1.07594910
H        1.25303038      -0.72314797      -1.13612898
H        2.64407083       0.29309720       0.76992107
H        1.39883244       0.05073155       2.04146987
16
Frame=14 idx=002554 GeodesicLength=0.9805959335909319 rxn_smarts="[C:1]([C:2]([C:3]([H:11])([H:12])[H:13])([C@@:4]1([H:14])[C:5]([H:15])([H:16])[O:6]1)[H:10])([H:7])([H:8])[H:9]>>[C:1]([C@@:2]1([H:10])[C@@:4]([O:6][C:3]([H:11])([H:12])[H:13])([H:14])[C:5]1([H:15])[H:16])([H:7])([H:8])[H:9]"
C       -0.30600860       1.59693521      -0.83239728
C       -0.16134355       0.47095120       0.15700201
C       -1.26839816      -1.32939540      -0.00175297
C        0.87706746      -0.54470583      -0.14943273
C        1.61187950      -0.03351273       0.97868797
O        0.60812102      -1.62428950       0.69018335
H        0.19425486       2.49803483      -0.47025992
H       -1.36268528       1.82320389      -0.99129841
H        0.11916150       1.36702108      -1.81188366
H       -0.58358449       0.70439006       1.13129021
H       -2.17702656      -0.73817970       0.15390823
H       -1.50344715      -2.22528696       0.57372115
H       -1.29293070      -1.59690353      -1.06472179
H        1.23999727      -0.73435942      -1.15293542
H        2.61843303       0.30819495       0.75678150
H        1.38650987       0.05790185       2.03310777
16
Frame=15 idx=002554 GeodesicLength=1.051262659602677 rxn_smarts="[C:1]([C:2]([C:3]([H:11])([H:12])[H:13])([C@@:4]1([H:14])[C:5]([H:15])([H:16])[O:6]1)[H:10])([H:7])([H:8])[H:9]>>[C:1]([C@@:2]1([H:10])[C@@:4]([O:6][C:3]([H:11])([H:12])[H:13])([H:14])[C:5]1([H:15])[H:16])([H:7])([H:8])[H:9]"
C       -0.29068187       1.60642372      -0.82502849
C       -0.16165206       0.47066503       0.15686567
C       -1.26642892      -1.33877731       0.00525777
C        0.86879642      -0.54948548      -0.16634875
C        1.59033452      -0.02889390       0.96839547
O        0.62541969      -1.62307930       0.69025374
H        0.20954641       2.50145524      -0.44814094
H       -1.34456059       1.83646504      -0.99597860
H        0.14605371       1.38577587      -1.80161138
H       -0.59136224       0.70238706       1.12822793
H       -2.18176862      -0.75406417       0.14677163
H       -1.50200283      -2.22474592       0.59592108
H       -1.29517207      -1.62691619      -1.05291813
H        1.22640590      -0.74515397      -1.16960781
H        2.59281924       0.32289157       0.74337144
H        1.37425332       0.06505271       2.02456937
16
Frame=16 idx=002554 GeodesicLength=1.122057063173872 rxn_smarts="[C:1]([C:2]([C:3]([H:11])([H:12])[H:13])([C@@:4]1([H:14])[C:5]([H:15])([H:16])[O:6]1)[H:10])([H:7])([H:8])[H:9]>>[C:1]([C@@:2]1([H:10])[C@@:4]([O:6][C:3]([H:11])([H:12])[H:13])([H:14])[C:5]1([H:15])[H:16])([H:7])([H:8])[H:9]"
C       -0.27524544       1.61600048      -0.81757597
C       -0.16233418       0.47048696       0.15650679
C       -1.26451252      -1.34824388       0.01225272
C        0.86016450      -0.55398288      -0.18309300
C        1.56886691      -0.02444167       0.95802973
O        0.64290521      -1.62152753       0.68965399
H        0.22467735       2.50472050      -0.42569029
H       -1.32606152       1.84997733      -1.00097908
H        0.17358453       1.40451778      -1.79075751
H       -0.59940266       0.70052474       1.12491751
H       -2.18654890      -0.77045385       0.13938706
H       -1.50047324      -2.22371422       0.61845175
H       -1.29711665      -1.65772584      -1.04048776
H        1.21224771      -0.75553070      -1.18618055
H        2.56722074       0.33723648       0.72970977
H        1.36202817       0.07215630       2.01585483
