12
Frame=0 idx=003214 GeodesicLength=0.0 rxn_smarts="[C:1]([c:2]1[c:3]([H:10])[c:4]([H:11])[n:5][n:6]1[H:12])([H:7])([H:8])[H:9]>>[C:1](=[C:2]1[C:3]([H:10])=[C:4]([H:11])[N-:5][N+:6]1([H:9])[H:12])([H:7])[H:8]"
C       -1.78032686      -0.18079952      -0.14933365
C       -0.36732095      -0.14765188      -0.31783661
C        0.72302749      -0.94887453      -0.42791640
C        1.80757729      -0.24111310       0.20129345
N        1.50790518       0.91116019       0.70122512
N        0.11514354       1.04278509       0.41030194
H       -2.33229954       0.66417192      -0.55748452
H       -2.27992053      -1.13418797      -0.26477590
H       -0.90989005       0.63155498       0.97864430
H        0.75385458      -1.94861049      -0.82649716
H        2.83057193      -0.58806512       0.28508030
H       -0.06832204       1.93963042      -0.03270092
12
Frame=1 idx=003214 GeodesicLength=0.06566603635369067 rxn_smarts="[C:1]([c:2]1[c:3]([H:10])[c:4]([H:11])[n:5][n:6]1[H:12])([H:7])([H:8])[H:9]>>[C:1](=[C:2]1[C:3]([H:10])=[C:4]([H:11])[N-:5][N+:6]1([H:9])[H:12])([H:7])[H:8]"
C       -1.77648086      -0.18067011      -0.15103267
C       -0.36422433      -0.14096541      -0.32786467
C        0.72450889      -0.95070831      -0.42315060
C        1.81142946      -0.23802025       0.18963045
N        1.51014326       0.91452066       0.69265441
N        0.11710432       1.04148739       0.40896288
H       -2.33721957       0.66999449      -0.53478936
H       -2.27401196      -1.12975854      -0.30607258
H       -0.92181647       0.62088129       0.99201402
H        0.74552064      -1.96443714      -0.78559810
H        2.83492226      -0.58337963       0.27206589
H       -0.06987563       1.94105557      -0.02681966
12
Frame=2 idx=003214 GeodesicLength=0.131317053234507 rxn_smarts="[C:1]([c:2]1[c:3]([H:10])[c:4]([H:11])[n:5][n:6]1[H:12])([H:7])([H:8])[H:9]>>[C:1](=[C:2]1[C:3]([H:10])=[C:4]([H:11])[N-:5][N+:6]1([H:9])[H:12])([H:7])[H:8]"
C       -1.77255545      -0.18088430      -0.15239274
C       -0.36113083      -0.13454933      -0.33769333
C        0.72601203      -0.95246354      -0.41855122
C        1.81526957      -0.23489775       0.17753495
N        1.51250869       0.91813621       0.68325408
N        0.11917152       1.04027889       0.40706775
H       -2.34196895       0.67467245      -0.51186272
H       -2.26815582      -1.12406875      -0.34636218
H       -0.93380984       0.60965310       1.00552775
H        0.73767592      -1.97822449      -0.74612791
H        2.83859961      -0.57998878       0.26126691
H       -0.07161645       1.94233629      -0.02166133
12
Frame=3 idx=003214 GeodesicLength=0.1969668951273537 rxn_smarts="[C:1]([c:2]1[c:3]([H:10])[c:4]([H:11])[n:5][n:6]1[H:12])([H:7])([H:8])[H:9]>>[C:1](=[C:2]1[C:3]([H:10])=[C:4]([H:11])[N-:5][N+:6]1([H:9])[H:12])([H:7])[H:8]"
C       -1.76859931      -0.18128990      -0.15373311
C       -0.35802348      -0.12847055      -0.34719980
C        0.72748477      -0.95435272      -0.41365677
C        1.81892639      -0.23215844       0.16591290
N        1.51484605       0.92167972       0.67375083
N        0.12130145       1.03904170       0.40488643
H       -2.34634600       0.67846408      -0.48925079
H       -2.26248720      -1.11696576      -0.38600452
H       -0.94618551       0.59787449       1.01914579
H        0.73014594      -1.99052607      -0.70717068
H        2.84224720      -0.57668040       0.25034818
H       -0.07331030       1.94338385      -0.01702846
12
Frame=4 idx=003214 GeodesicLength=0.2626100624512196 rxn_smarts="[C:1]([c:2]1[c:3]([H:10])[c:4]([H:11])[n:5][n:6]1[H:12])([H:7])([H:8])[H:9]>>[C:1](=[C:2]1[C:3]([H:10])=[C:4]([H:11])[N-:5][N+:6]1([H:9])[H:12])([H:7])[H:8]"
C       -1.76461181      -0.18185684      -0.15509228
C       -0.35489669      -0.12270463      -0.35640809
C        0.72893299      -0.95634605      -0.40849350
C        1.82238924      -0.22982615       0.15485274
N        1.51714457       0.92514121       0.66420049
N        0.12349225       1.03778806       0.40243655
H       -2.35035471       0.68143381      -0.46701343
H       -2.25697727      -1.10849474      -0.42495726
H       -0.95898670       0.58551463       1.03286803
H        0.72290627      -2.00148827      -0.66866444
H        2.84590491      -0.57338467       0.23916248
H       -0.07494304       1.94422364      -0.01289129
12
Frame=5 idx=003214 GeodesicLength=0.32826541691559225 rxn_smarts="[C:1]([c:2]1[c:3]([H:10])[c:4]([H:11])[n:5][n:6]1[H:12])([H:7])([H:8])[H:9]>>[C:1](=[C:2]1[C:3]([H:10])=[C:4]([H:11])[N-:5][N+:6]1([H:9])[H:12])([H:7])[H:8]"
C       -1.76060413      -0.18251462      -0.15664079
C       -0.35172151      -0.11726516      -0.36530150
C        0.73034653      -0.95852916      -0.40291101
C        1.82563947      -0.22798956       0.14455565
N        1.51935181       0.92837042       0.65492359
N        0.12572511       1.03645298       0.39986314
H       -2.35391866       0.68374427      -0.44537195
H       -2.25163947      -1.09859631      -0.46349616
H       -0.97236722       0.57247167       1.04668983
H        0.71580143      -2.01137110      -0.62989366
H        2.84982816      -0.56960659       0.22665953
H       -0.07644151       1.94483318      -0.00907667
12
Frame=6 idx=003214 GeodesicLength=0.39392992925505516 rxn_smarts="[C:1]([c:2]1[c:3]([H:10])[c:4]([H:11])[n:5][n:6]1[H:12])([H:7])([H:8])[H:9]>>[C:1](=[C:2]1[C:3]([H:10])=[C:4]([H:11])[N-:5][N+:6]1([H:9])[H:12])([H:7])[H:8]"
C       -1.75656777      -0.18327316      -0.15829967
C       -0.34850204      -0.11211229      -0.37392469
C        0.73174462      -0.96081862      -0.39703543
C        1.82871017      -0.22656879       0.13489801
N        1.52150614       0.93146864       0.64574871
N        0.12801434       1.03510105       0.39708197
H       -2.35710510       0.68538260      -0.42424274
H       -2.24641576      -1.08738706      -0.50137861
H       -0.98628974       0.55872989       1.06061805
H        0.70889621      -2.02013009      -0.59125021
H        2.85385757      -0.56566170       0.21345086
H       -0.07784866       1.94526952      -0.00566626
12
Frame=7 idx=003214 GeodesicLength=0.4596026958588142 rxn_smarts="[C:1]([c:2]1[c:3]([H:10])[c:4]([H:11])[n:5][n:6]1[H:12])([H:7])([H:8])[H:9]>>[C:1](=[C:2]1[C:3]([H:10])=[C:4]([H:11])[N-:5][N+:6]1([H:9])[H:12])([H:7])[H:8]"
C       -1.75249081      -0.18413714      -0.16000169
C       -0.34524223      -0.10720445      -0.38232943
C        0.73314910      -0.96313613      -0.39100659
C        1.83163410      -0.22549245       0.12575811
N        1.52364411       0.93452584       0.63651159
N        0.13037671       1.03379130       0.39401356
H       -2.35996568       0.68634706      -0.40354587
H       -2.24127058      -1.07498935      -0.53837967
H       -1.00071065       0.54425135       1.07466481
H        0.70223595      -2.02772527      -0.55306966
H        2.85783922      -0.56182001       0.20011386
H       -0.07919923       1.94558926      -0.00272903
12
Frame=8 idx=003214 GeodesicLength=0.5252858929731156 rxn_smarts="[C:1]([c:2]1[c:3]([H:10])[c:4]([H:11])[n:5][n:6]1[H:12])([H:7])([H:8])[H:9]>>[C:1](=[C:2]1[C:3]([H:10])=[C:4]([H:11])[N-:5][N+:6]1([H:9])[H:12])([H:7])[H:8]"
C       -1.74837009      -0.18509093      -0.16172691
C       -0.34194262      -0.10251424      -0.39054367
C        0.73457066      -0.96544587      -0.38487886
C        1.83442906      -0.22472833       0.11710260
N        1.52578065       0.93757921       0.62716105
N        0.13282081       1.03255857       0.39062430
H       -2.36252124       0.68667576      -0.38326786
H       -2.23619313      -1.06148908      -0.57438847
H       -1.01563372       0.52898464       1.08883864
H        0.69582597      -2.03418801      -0.51548062
H        2.86173178      -0.55817236       0.18685443
H       -0.08049812       1.94583064      -0.00029463
12
Frame=9 idx=003214 GeodesicLength=0.5909752500749655 rxn_smarts="[C:1]([c:2]1[c:3]([H:10])[c:4]([H:11])[n:5][n:6]1[H:12])([H:7])([H:8])[H:9]>>[C:1](=[C:2]1[C:3]([H:10])=[C:4]([H:11])[N-:5][N+:6]1([H:9])[H:12])([H:7])[H:8]"
C       -1.74419458      -0.18612937      -0.16340846
C       -0.33861429      -0.09799798      -0.39861776
C        0.73602442      -0.96767494      -0.37878569
C        1.83712097      -0.22420828       0.10881553
N        1.52794339       0.94071033       0.61754192
N        0.13536309       1.03146323       0.38683216
H       -2.36481205       0.68637663      -0.36332157
H       -2.23116853      -1.04701342      -0.60919386
H       -1.03101411       0.51288416       1.10315555
H        0.68971042      -2.03950391      -0.47881521
H        2.86541146      -0.55495511       0.17423640
H       -0.08177020       1.94604866       0.00156097
12
Frame=10 idx=003214 GeodesicLength=0.6566755530085064 rxn_smarts="[C:1]([c:2]1[c:3]([H:10])[c:4]([H:11])[n:5][n:6]1[H:12])([H:7])([H:8])[H:9]>>[C:1](=[C:2]1[C:3]([H:10])=[C:4]([H:11])[N-:5][N+:6]1([H:9])[H:12])([H:7])[H:8]"
C       -1.73996986      -0.18721332      -0.16508702
C       -0.33524912      -0.09364843      -0.40654849
C        0.73750728      -0.96984287      -0.37266596
C        1.83971548      -0.22394133       0.10095697
N        1.53012501       0.94388928       0.60774440
N        0.13800427       1.03050735       0.38266356
H       -2.36682001       0.68553821      -0.34376830
H       -2.22621164      -1.03159132      -0.64285239
H       -1.04691715       0.49586688       1.11761744
H        0.68384271      -2.04378771      -0.44290620
H        2.86895602      -0.55203342       0.16198517
H       -0.08298300       1.94625667       0.00286082
12
Frame=11 idx=003214 GeodesicLength=0.7223864583394307 rxn_smarts="[C:1]([c:2]1[c:3]([H:10])[c:4]([H:11])[n:5][n:6]1[H:12])([H:7])([H:8])[H:9]>>[C:1](=[C:2]1[C:3]([H:10])=[C:4]([H:11])[N-:5][N+:6]1([H:9])[H:12])([H:7])[H:8]"
C       -1.73569452      -0.18831465      -0.16676227
C       -0.33184612      -0.08944776      -0.41434773
C        0.73901835      -0.97193925      -0.36651675
C        1.84222337      -0.22390852       0.09352356
N        1.53232958       0.94712347       0.59777323
N        0.14075182       1.02971396       0.37810424
H       -2.36854567       0.68422022      -0.32460609
H       -2.22132384      -1.01527972      -0.67533835
H       -1.06337451       0.47785585       1.13222806
H        0.67821006      -2.04710318      -0.40775761
H        2.87237177      -0.54940009       0.15011493
H       -0.08412030       1.94647967       0.00358478
12
Frame=12 idx=003214 GeodesicLength=0.7881083295964401 rxn_smarts="[C:1]([c:2]1[c:3]([H:10])[c:4]([H:11])[n:5][n:6]1[H:12])([H:7])([H:8])[H:9]>>[C:1](=[C:2]1[C:3]([H:10])=[C:4]([H:11])[N-:5][N+:6]1([H:9])[H:12])([H:7])[H:8]"
C       -1.73136835      -0.18940284      -0.16844000
C       -0.32840227      -0.08538180      -0.42202220
C        0.74055595      -0.97396070      -0.36031909
C        1.84465459      -0.22409527       0.08652179
N        1.53456027       0.95041165       0.58765129
N        0.14361298       1.02910249       0.37314582
H       -2.36998494       0.68248859      -0.30583792
H       -2.21650906      -0.99812434      -0.70665069
H       -1.08042913       0.45876085       1.14698770
H        0.67279322      -2.04951656      -0.37332928
H        2.87567672      -0.54702239       0.13857757
H       -0.08515999       1.94674032       0.00371500
12
Frame=13 idx=003214 GeodesicLength=0.8538395909579573 rxn_smarts="[C:1]([c:2]1[c:3]([H:10])[c:4]([H:11])[n:5][n:6]1[H:12])([H:7])([H:8])[H:9]>>[C:1](=[C:2]1[C:3]([H:10])=[C:4]([H:11])[N-:5][N+:6]1([H:9])[H:12])([H:7])[H:8]"
C       -1.72698815      -0.19045382      -0.17010013
C       -0.32491980      -0.08142746      -0.42959190
C        0.74212383      -0.97588130      -0.35409857
C        1.84702431      -0.22446757       0.07991604
N        1.53682990       0.95378033       0.57734185
N        0.14659922       1.02870751       0.36775068
H       -2.37114444       0.68039389      -0.28742195
H       -2.21177846      -0.98018977      -0.73673712
H       -1.09809755       0.43848130       1.16189947
H        0.66759120      -2.05106696      -0.33968646
H        2.87885115      -0.54494891       0.12752312
H       -0.08609121       1.94707277       0.00320497
12
Frame=14 idx=003214 GeodesicLength=0.9195802626936667 rxn_smarts="[C:1]([c:2]1[c:3]([H:10])[c:4]([H:11])[n:5][n:6]1[H:12])([H:7])([H:8])[H:9]>>[C:1](=[C:2]1[C:3]([H:10])=[C:4]([H:11])[N-:5][N+:6]1([H:9])[H:12])([H:7])[H:8]"
C       -1.72255359      -0.19143658      -0.17174515
C       -0.32139560      -0.07757361      -0.43706041
C        0.74371956      -0.97769911      -0.34782827
C        1.84934138      -0.22501085       0.07371364
N        1.53914282       0.95722755       0.56686824
N        0.14971922       1.02854964       0.36190518
H       -2.37201637       0.67800271      -0.26934238
H       -2.20714052      -0.96150491      -0.76561668
H       -1.11643038       0.41690096       1.17695743
H        0.66258422      -2.05181407      -0.30676753
H        2.88191650      -0.54314058       0.11689239
H       -0.08688725       1.94749885       0.00202354
12
Frame=15 idx=003214 GeodesicLength=0.9853290432065093 rxn_smarts="[C:1]([c:2]1[c:3]([H:10])[c:4]([H:11])[n:5][n:6]1[H:12])([H:7])([H:8])[H:9]>>[C:1](=[C:2]1[C:3]([H:10])=[C:4]([H:11])[N-:5][N+:6]1([H:9])[H:12])([H:7])[H:8]"
C       -1.71806232      -0.19232371      -0.17335977
C       -0.31783031      -0.07380339      -0.44444013
C        0.74534409      -0.97939724      -0.34151006
C        1.85161763      -0.22569771       0.06789392
N        1.54150958       0.96076929       0.55621483
N        0.15298478       1.02866009       0.35557445
H       -2.37259861       0.67537129      -0.25154985
H       -2.20260957      -0.94210634      -0.79327487
H       -1.13546282       0.39388929       1.19215479
H        0.65776495      -2.05179889      -0.27457783
H        2.88487000      -0.54161093       0.10675793
H       -0.08752738       1.94804827       0.00011660
12
Frame=16 idx=003214 GeodesicLength=1.0510855128584073 rxn_smarts="[C:1]([c:2]1[c:3]([H:10])[c:4]([H:11])[n:5][n:6]1[H:12])([H:7])([H:8])[H:9]>>[C:1](=[C:2]1[C:3]([H:10])=[C:4]([H:11])[N-:5][N+:6]1([H:9])[H:12])([H:7])[H:8]"
C       -1.71351261      -0.19308668      -0.17493239
C       -0.31422313      -0.07010504      -0.45173768
C        0.74699661      -0.98096568      -0.33512823
C        1.85386286      -0.22650580       0.06244787
N        1.54393903       0.96441456       0.54538049
N        0.15640758       1.02906711       0.34872645
H       -2.37288330       0.67255872      -0.23399014
H       -2.19820029      -0.92200782      -0.81972513
H       -1.15524343       0.36929677       1.20747742
H        0.65312175      -2.05106435      -0.24307876
H        2.88771999      -0.54034873       0.09713436
H       -0.08798506       1.94874694      -0.00257426
