16
Frame=0 idx=007248 GeodesicLength=0.0 rxn_smarts="[C:1]([C:2]1([C:3]([H:11])([H:12])[H:13])[C:4]([H:14])([H:15])[O:5][C:6]([H:16])=[N:7]1)([H:8])([H:9])[H:10]>>[C:1]([C:2]1=[N:7][C@:6]([C:3]([H:11])([H:12])[H:13])([H:16])[O:5][C:4]1([H:14])[H:15])([H:8])([H:9])[H:10]"
C        1.13693501       1.14996097       0.85712032
C       -0.12621249       0.55207755       0.36268385
C        0.58046650      -0.82063070      -1.18508094
C       -0.89916847      -0.55800312       1.07361726
O       -1.79873985      -0.86623460       0.01332494
C       -1.33483086       0.03788442      -0.90285700
N       -0.99471454       1.25454095      -0.41293921
H        1.69369619       1.58106339       0.02745053
H        1.75446766       0.43166330       1.39502006
H        0.85649140       1.96807688       1.52732672
H        1.42607636      -1.05213103      -0.53675616
H        0.17705476      -1.76151621      -1.55971857
H        0.91483664      -0.17735235      -1.99922557
H       -0.32395169      -1.44964673       1.31708560
H       -1.41875003      -0.16901708       1.95308059
H       -1.64365658      -0.12073557      -1.93013248
16
Frame=1 idx=007248 GeodesicLength=0.06123861733521729 rxn_smarts="[C:1]([C:2]1([C:3]([H:11])([H:12])[H:13])[C:4]([H:14])([H:15])[O:5][C:6]([H:16])=[N:7]1)([H:8])([H:9])[H:10]>>[C:1]([C:2]1=[N:7][C@:6]([C:3]([H:11])([H:12])[H:13])([H:16])[O:5][C:4]1([H:14])[H:15])([H:8])([H:9])[H:10]"
C        1.13656676       1.15740149       0.87058267
C       -0.11198268       0.54455945       0.35662195
C        0.57947182      -0.82321918      -1.19627165
C       -0.89587728      -0.55243000       1.07553628
O       -1.80292691      -0.86021559       0.02155149
C       -1.33852835       0.02844544      -0.91147093
N       -0.97219477       1.24186290      -0.43352869
H        1.69740447       1.60029856       0.04981001
H        1.75770832       0.44211750       1.40876399
H        0.84075227       1.96516979       1.54653095
H        1.42680119      -1.06652566      -0.55421788
H        0.17646272      -1.76379956      -1.57242786
H        0.92197170      -0.18585716      -2.01185540
H       -0.32861296      -1.44839253       1.32328532
H       -1.40718283      -0.15557521       1.95633685
H       -1.67983348      -0.12384024      -1.92924708
16
Frame=2 idx=007248 GeodesicLength=0.12238175000273083 rxn_smarts="[C:1]([C:2]1([C:3]([H:11])([H:12])[H:13])[C:4]([H:14])([H:15])[O:5][C:6]([H:16])=[N:7]1)([H:8])([H:9])[H:10]>>[C:1]([C:2]1=[N:7][C@:6]([C:3]([H:11])([H:12])[H:13])([H:16])[O:5][C:4]1([H:14])[H:15])([H:8])([H:9])[H:10]"
C        1.13585163       1.16513118       0.88398466
C       -0.09719978       0.53660931       0.35066743
C        0.57861730      -0.82634997      -1.20756083
C       -0.89233867      -0.54696581       1.07733669
O       -1.80684998      -0.85380983       0.02957993
C       -1.34193803       0.01907449      -0.92007964
N       -0.94924124       1.22846841      -0.45384076
H        1.70034054       1.61998151       0.07219257
H        1.76088461       0.45345212       1.42285989
H        0.82425250       1.96243651       1.56506894
H        1.42731136      -1.08189408      -0.57175583
H        0.17556044      -1.76627839      -1.58563206
H        0.92960642      -0.19501521      -2.02439760
H       -0.33330464      -1.44727790       1.32947169
H       -1.39539671      -0.14241144       1.95939146
H       -1.71615574      -0.12515091      -1.92728654
16
Frame=3 idx=007248 GeodesicLength=0.18337991881550658 rxn_smarts="[C:1]([C:2]1([C:3]([H:11])([H:12])[H:13])[C:4]([H:14])([H:15])[O:5][C:6]([H:16])=[N:7]1)([H:8])([H:9])[H:10]>>[C:1]([C:2]1=[N:7][C@:6]([C:3]([H:11])([H:12])[H:13])([H:16])[O:5][C:4]1([H:14])[H:15])([H:8])([H:9])[H:10]"
C        1.13475433       1.17315965       0.89728507
C       -0.08184755       0.52819924       0.34483569
C        0.57791199      -0.83004420      -1.21892688
C       -0.88853854      -0.54163737       1.07900789
O       -1.81048116      -0.84703581       0.03738932
C       -1.34504510       0.00977410      -0.92867970
N       -0.92586602       1.21433896      -0.47381995
H        1.70242633       1.64012351       0.09453565
H        1.76396831       0.46570620       1.43727361
H        0.80698480       1.95988953       1.58287705
H        1.42758249      -1.09829333      -0.58934591
H        0.17434105      -1.76895956      -1.59931977
H        0.93775912      -0.20483651      -2.03680245
H       -0.33802044      -1.44631881       1.33563002
H       -1.38339477      -0.12958008       1.96223353
H       -1.75253483      -0.12448552      -1.92417316
16
Frame=4 idx=007248 GeodesicLength=0.24424695864655319 rxn_smarts="[C:1]([C:2]1([C:3]([H:11])([H:12])[H:13])[C:4]([H:14])([H:15])[O:5][C:6]([H:16])=[N:7]1)([H:8])([H:9])[H:10]>>[C:1]([C:2]1=[N:7][C@:6]([C:3]([H:11])([H:12])[H:13])([H:16])[O:5][C:4]1([H:14])[H:15])([H:8])([H:9])[H:10]"
C        1.13323786       1.18150954       0.91046047
C       -0.06591092       0.51929283       0.33913482
C        0.57736720      -0.83434000      -1.23038038
C       -0.88446596      -0.53646997       1.08054917
O       -1.81380609      -0.83990381       0.04496327
C       -1.34785072       0.00055026      -0.93727382
N       -0.90209414       1.19945536      -0.49343147
H        1.70357539       1.66076110       0.11678733
H        1.76695553       0.47890755       1.45200893
H        0.78893089       1.95757308       1.59992916
H        1.42760295      -1.11579927      -0.60700065
H        0.17279511      -1.77185400      -1.61349457
H        0.94644973      -0.21536160      -2.04907452
H       -0.34274470      -1.44554104       1.34176282
H       -1.37118860      -0.11712158       1.96487088
H       -1.78885350      -0.12165844      -1.91981143
16
Frame=5 idx=007248 GeodesicLength=0.30505279482247155 rxn_smarts="[C:1]([C:2]1([C:3]([H:11])([H:12])[H:13])[C:4]([H:14])([H:15])[O:5][C:6]([H:16])=[N:7]1)([H:8])([H:9])[H:10]>>[C:1]([C:2]1=[N:7][C@:6]([C:3]([H:11])([H:12])[H:13])([H:16])[O:5][C:4]1([H:14])[H:15])([H:8])([H:9])[H:10]"
C        1.13124405       1.19016070       0.92344141
C       -0.04937772       0.50988528       0.33356581
C        0.57704050      -0.83926040      -1.24188366
C       -0.88010374      -0.53149872       1.08199674
O       -1.81682008      -0.83248101       0.05230588
C       -1.35038664      -0.00864118      -0.94590127
N       -0.87796147       1.18380187      -0.51264123
H        1.70368063       1.68182939       0.13883794
H        1.76980469       0.49311298       1.46698057
H        0.77004445       1.95544506       1.61613615
H        1.42745245      -1.13445890      -0.62461401
H        0.17095194      -1.77504326      -1.62812801
H        0.95573567      -0.22655902      -2.06119576
H       -0.34743393      -1.44495680       1.34792475
H       -1.35877885      -0.10509975       1.96737945
H       -1.82509196      -0.11623623      -1.91420475
16
Frame=6 idx=007248 GeodesicLength=0.36531229399542725 rxn_smarts="[C:1]([C:2]1([C:3]([H:11])([H:12])[H:13])[C:4]([H:14])([H:15])[O:5][C:6]([H:16])=[N:7]1)([H:8])([H:9])[H:10]>>[C:1]([C:2]1=[N:7][C@:6]([C:3]([H:11])([H:12])[H:13])([H:16])[O:5][C:4]1([H:14])[H:15])([H:8])([H:9])[H:10]"
C        1.12887560       1.19905035       0.93626076
C       -0.03235933       0.50009884       0.32821643
C        0.57679647      -0.84464712      -1.25338923
C       -0.87548003      -0.52663013       1.08327352
O       -1.81938316      -0.82465720       0.05935650
C       -1.35255139      -0.01756177      -0.95452213
N       -0.85352741       1.16758185      -0.53139685
H        1.70289256       1.70328448       0.16070653
H        1.77246611       0.50818374       1.48204851
H        0.75062812       1.95334499       1.63169677
H        1.42677270      -1.15410868      -0.64233911
H        0.16893002      -1.77823164      -1.64328264
H        0.96542465      -0.23832186      -2.07290433
H       -0.35220146      -1.44448489       1.35394195
H       -1.34625420      -0.09344017       1.96958911
H       -1.86102925      -0.10946079      -1.90725578
16
Frame=7 idx=007248 GeodesicLength=0.4255312213485021 rxn_smarts="[C:1]([C:2]1([C:3]([H:11])([H:12])[H:13])[C:4]([H:14])([H:15])[O:5][C:6]([H:16])=[N:7]1)([H:8])([H:9])[H:10]>>[C:1]([C:2]1=[N:7][C@:6]([C:3]([H:11])([H:12])[H:13])([H:16])[O:5][C:4]1([H:14])[H:15])([H:8])([H:9])[H:10]"
C        1.12596154       1.20825901       0.94885288
C       -0.01469567       0.48976355       0.32302266
C        0.57676503      -0.85068207      -1.26496334
C       -0.87052921      -0.52199350       1.08444784
O       -1.82161418      -0.81655409       0.06615471
C       -1.35446469      -0.02641590      -0.96314197
N       -0.82872416       1.15057989      -0.54968147
H        1.70091946       1.72517899       0.18232631
H        1.77493773       0.52429591       1.49737475
H        0.73035045       1.95150566       1.64635627
H        1.42587275      -1.17498974      -0.66006229
H        0.16654842      -1.78167847      -1.65889480
H        0.97571268      -0.25078794      -2.08447806
H       -0.35690051      -1.44423965       1.35996942
H       -1.33349805      -0.08228644       1.97168341
H       -1.89664160      -0.09995521      -1.89896631
16
Frame=8 idx=007248 GeodesicLength=0.48559861897458495 rxn_smarts="[C:1]([C:2]1([C:3]([H:11])([H:12])[H:13])[C:4]([H:14])([H:15])[O:5][C:6]([H:16])=[N:7]1)([H:8])([H:9])[H:10]>>[C:1]([C:2]1=[N:7][C@:6]([C:3]([H:11])([H:12])[H:13])([H:16])[O:5][C:4]1([H:14])[H:15])([H:8])([H:9])[H:10]"
C        1.12246859       1.21781982       0.96116066
C        0.00357742       0.47883885       0.31802490
C        0.57690181      -0.85742117      -1.27657617
C       -0.86524746      -0.51762446       1.08548094
O       -1.82340070      -0.80820547       0.07265592
C       -1.35606789      -0.03516428      -0.97180450
N       -0.80361812       1.13280192      -0.56748124
H        1.69766978       1.74768360       0.20355990
H        1.77718640       0.54153847       1.51290195
H        0.70924798       1.94986257       1.66013097
H        1.42455045      -1.19722524      -0.67782687
H        0.16387394      -1.78535843      -1.67507950
H        0.98657001      -0.26405137      -2.09575293
H       -0.36156001      -1.44425911       1.36594566
H       -1.32057348      -0.07166424       1.97358074
H       -1.93157873      -0.08757147      -1.88892042
16
Frame=9 idx=007248 GeodesicLength=0.54537797235399 rxn_smarts="[C:1]([C:2]1([C:3]([H:11])([H:12])[H:13])[C:4]([H:14])([H:15])[O:5][C:6]([H:16])=[N:7]1)([H:8])([H:9])[H:10]>>[C:1]([C:2]1=[N:7][C@:6]([C:3]([H:11])([H:12])[H:13])([H:16])[O:5][C:4]1([H:14])[H:15])([H:8])([H:9])[H:10]"
C        1.11837617       1.22757467       0.97310261
C        0.02240733       0.46745356       0.31323086
C        0.57724586      -0.86471078      -1.28813125
C       -0.85962771      -0.51347036       1.08641241
O       -1.82471776      -0.79962551       0.07890651
C       -1.35740305      -0.04377670      -0.98050641
N       -0.77822687       1.11431986      -0.58475930
H        1.69313219       1.77042943       0.22432477
H        1.77909645       0.55981031       1.52838954
H        0.68736060       1.94822962       1.67296147
H        1.42286960      -1.22062305      -0.69550508
H        0.16098188      -1.78919185      -1.69173127
H        0.99800117      -0.27787967      -2.10663453
H       -0.36616533      -1.44443472       1.37188734
H       -1.30746787      -0.06158633       1.97535463
H       -1.96586266      -0.07251848      -1.87730230
16
Frame=10 idx=007248 GeodesicLength=0.6051430311116962 rxn_smarts="[C:1]([C:2]1([C:3]([H:11])([H:12])[H:13])[C:4]([H:14])([H:15])[O:5][C:6]([H:16])=[N:7]1)([H:8])([H:9])[H:10]>>[C:1]([C:2]1=[N:7][C@:6]([C:3]([H:11])([H:12])[H:13])([H:16])[O:5][C:4]1([H:14])[H:15])([H:8])([H:9])[H:10]"
C        1.11368415       1.23763661       0.98474719
C        0.04180500       0.45557790       0.30870613
C        0.57774996      -0.87266495      -1.29972804
C       -0.85365216      -0.50957484       1.08726801
O       -1.82557984      -0.79083199       0.08484742
C       -1.35853514      -0.05219078      -0.98929775
N       -0.75263470       1.09518921      -0.60151673
H        1.68723626       1.79362876       0.24461943
H        1.78074179       0.57916657       1.54400622
H        0.66473494       1.94679171       1.68496964
H        1.42074387      -1.24536870      -0.71321020
H        0.15782595      -1.79323754      -1.70901460
H        1.00996387      -0.29241827      -2.11721141
H       -0.37065677      -1.44488284       1.37782444
H       -1.29419616      -0.05205538       1.97706811
H       -1.99923101      -0.05476548      -1.86407786
16
Frame=11 idx=007248 GeodesicLength=0.6643091123481832 rxn_smarts="[C:1]([C:2]1([C:3]([H:11])([H:12])[H:13])[C:4]([H:14])([H:15])[O:5][C:6]([H:16])=[N:7]1)([H:8])([H:9])[H:10]>>[C:1]([C:2]1=[N:7][C@:6]([C:3]([H:11])([H:12])[H:13])([H:16])[O:5][C:4]1([H:14])[H:15])([H:8])([H:9])[H:10]"
C        1.10837710       1.24789704       0.99593887
C        0.06181256       0.44314616       0.30442470
C        0.57834363      -0.88107497      -1.31124106
C       -0.84736956      -0.50593900       1.08791267
O       -1.82597579      -0.78175281       0.09052091
C       -1.35934366      -0.06031383      -0.99787956
N       -0.72666522       1.07531479      -0.61762456
H        1.67999861       1.81717914       0.26439211
H        1.78197929       0.59952864       1.55954967
H        0.64144474       1.94535472       1.69589444
H        1.41791142      -1.27120038      -0.73095539
H        0.15428529      -1.79701673      -1.72668457
H        1.02249420      -0.30754252      -2.12726931
H       -0.37519761      -1.44549948       1.38356193
H       -1.28080105      -0.04319256       1.97846985
H       -2.03129395      -0.03488819      -1.84901067
16
Frame=12 idx=007248 GeodesicLength=0.7234356977496822 rxn_smarts="[C:1]([C:2]1([C:3]([H:11])([H:12])[H:13])[C:4]([H:14])([H:15])[O:5][C:6]([H:16])=[N:7]1)([H:8])([H:9])[H:10]>>[C:1]([C:2]1=[N:7][C@:6]([C:3]([H:11])([H:12])[H:13])([H:16])[O:5][C:4]1([H:14])[H:15])([H:8])([H:9])[H:10]"
C        1.10237735       1.25837851       1.00669723
C        0.08233363       0.43027506       0.30046382
C        0.57907767      -0.89009676      -1.32271727
C       -0.84070430      -0.50259580       1.08851887
O       -1.82585730      -0.77255193       0.09591551
C       -1.36003010      -0.06819463      -1.00655216
N       -0.70057789       1.05482046      -0.63314478
H        1.67121292       1.84103195       0.28347940
H        1.78282853       0.62098482       1.57501423
H        0.61743158       1.94399227       1.70591755
H        1.41456405      -1.29833769      -0.74864638
H        0.15048837      -1.80097977      -1.74495989
H        1.03552103      -0.32329396      -2.13691651
H       -0.37957117      -1.44638212       1.38929708
H       -1.26723057      -0.03495817       1.97989948
H       -2.06186382      -0.01209225      -1.83226618
16
Frame=13 idx=007248 GeodesicLength=0.7823873358188913 rxn_smarts="[C:1]([C:2]1([C:3]([H:11])([H:12])[H:13])[C:4]([H:14])([H:15])[O:5][C:6]([H:16])=[N:7]1)([H:8])([H:9])[H:10]>>[C:1]([C:2]1=[N:7][C@:6]([C:3]([H:11])([H:12])[H:13])([H:16])[O:5][C:4]1([H:14])[H:15])([H:8])([H:9])[H:10]"
C        1.09568384       1.26905124       1.01695483
C        0.10337725       0.41694115       0.29683872
C        0.57989947      -0.89965240      -1.33411768
C       -0.83368080      -0.49955529       1.08904492
O       -1.82521837      -0.76321187       0.10104847
C       -1.36057018      -0.07574880      -1.01519644
N       -0.67432618       1.03368452      -0.64803654
H        1.66086309       1.86519771       0.30181178
H        1.78324220       0.64352789       1.59032791
H        0.59274561       1.94262724       1.71497541
H        1.41049960      -1.32673950      -0.76632093
H        0.14637238      -1.80485621      -1.76384238
H        1.04908399      -0.33964711      -2.14603375
H       -0.38383598      -1.44750598       1.39496777
H       -1.25352924      -0.02740683       1.98126689
H       -2.09060667       0.01329426      -1.81368897
16
Frame=14 idx=007248 GeodesicLength=0.8411909358255854 rxn_smarts="[C:1]([C:2]1([C:3]([H:11])([H:12])[H:13])[C:4]([H:14])([H:15])[O:5][C:6]([H:16])=[N:7]1)([H:8])([H:9])[H:10]>>[C:1]([C:2]1=[N:7][C@:6]([C:3]([H:11])([H:12])[H:13])([H:16])[O:5][C:4]1([H:14])[H:15])([H:8])([H:9])[H:10]"
C        1.08827245       1.27988039       1.02667484
C        0.12493088       0.40318318       0.29358009
C        0.58078191      -0.90970818      -1.34542083
C       -0.82627858      -0.49681784       1.08950632
O       -1.82403396      -0.75374346       0.10593965
C       -1.36099082      -0.08290958      -1.02377640
N       -0.64792674       1.01194343      -0.66226641
H        1.64887258       1.88962169       0.31933074
H        1.78317358       0.66715022       1.60540886
H        0.56740459       1.94121499       1.72306621
H        1.40561344      -1.35641338      -0.78396230
H        0.14190981      -1.80854900      -1.78337498
H        1.06319351      -0.35657895      -2.15455799
H       -0.38795979      -1.44886422       1.40056651
H       -1.23967789      -0.02055728       1.98261065
H       -2.11728499       0.04114800      -1.79332496
16
Frame=15 idx=007248 GeodesicLength=0.8999380558087984 rxn_smarts="[C:1]([C:2]1([C:3]([H:11])([H:12])[H:13])[C:4]([H:14])([H:15])[O:5][C:6]([H:16])=[N:7]1)([H:8])([H:9])[H:10]>>[C:1]([C:2]1=[N:7][C@:6]([C:3]([H:11])([H:12])[H:13])([H:16])[O:5][C:4]1([H:14])[H:15])([H:8])([H:9])[H:10]"
C        1.08013750       1.29083691       1.03583297
C        0.14697435       0.38904765       0.29070678
C        0.58169857      -0.92023167      -1.35660925
C       -0.81849838      -0.49438596       1.08992405
O       -1.82231476      -0.74415194       0.11060411
C       -1.36133386      -0.08960137      -1.03229603
N       -0.62141412       0.98964033      -0.67584312
H        1.63516469       1.91428595       0.33597991
H        1.78263328       0.69182987       1.62018969
H        0.54145880       1.93968799       1.73024169
H        1.39983283      -1.38731818      -0.80156927
H        0.13708670      -1.81198889      -1.80355272
H        1.07783841      -0.37408283      -2.16246455
H       -0.39192704      -1.45046084       1.40609925
H       -1.22567968      -0.01442720       1.98397932
H       -2.14165729       0.07132017      -1.77122283
16
Frame=16 idx=007248 GeodesicLength=0.9585104781786791 rxn_smarts="[C:1]([C:2]1([C:3]([H:11])([H:12])[H:13])[C:4]([H:14])([H:15])[O:5][C:6]([H:16])=[N:7]1)([H:8])([H:9])[H:10]>>[C:1]([C:2]1=[N:7][C@:6]([C:3]([H:11])([H:12])[H:13])([H:16])[O:5][C:4]1([H:14])[H:15])([H:8])([H:9])[H:10]"
C        1.07130017       1.30186737       1.04437688
C        0.16944288       0.37459048       0.28827965
C        0.58259240      -0.93111778      -1.36761642
C       -0.81034690      -0.49227381       1.09029096
O       -1.82004604      -0.73448018       0.11504648
C       -1.36162484      -0.09577521      -1.04066975
N       -0.59485344       0.96680673      -0.68867192
H        1.61977724       1.93903934       0.35167717
H        1.78154386       0.71750451       1.63456880
H        0.51504064       1.93804802       1.73644047
H        1.39302027      -1.41931210      -0.81910677
H        0.13187823      -1.81502437      -1.82432412
H        1.09294854      -0.39205326      -2.16962198
H       -0.39573262      -1.45228058       1.41150591
H       -1.21152637      -0.00906179       1.98536174
H       -2.16341403       0.10352263      -1.74753709
