10
Frame=0 idx=005489 GeodesicLength=0.0 rxn_smarts="[O:1]=[C:2]([C@@:3]1([H:7])[C:4]([H:8])([H:9])[N:5]1[H:10])[H:6]>>[O:1]1[C:2]([H:6])=[C:3]([H:7])[C:4]([H:8])([H:9])[N:5]1[H:10]"
O        1.19875233       0.36850464       1.33046345
C        1.35863852      -0.17066624       0.22797616
C        0.38951290      -0.22479447      -0.75931759
C       -1.02560187      -0.04790769      -0.23642412
N       -0.80258982       1.05336007       0.57344019
H        2.27318742      -0.75714259       0.04653106
H        0.58896910      -0.39929798      -1.80723660
H       -1.57190125       0.29172347      -1.12697887
H       -1.48715187      -0.94370979       0.19046382
H       -0.92181547       0.82993058       1.56108251
10
Frame=1 idx=005489 GeodesicLength=0.05019579546209884 rxn_smarts="[O:1]=[C:2]([C@@:3]1([H:7])[C:4]([H:8])([H:9])[N:5]1[H:10])[H:6]>>[O:1]1[C:2]([H:6])=[C:3]([H:7])[C:4]([H:8])([H:9])[N:5]1[H:10]"
O        1.19090919       0.36823604       1.33160818
C        1.35315738      -0.18650872       0.23463827
C        0.38687894      -0.21252037      -0.75731710
C       -1.02985699      -0.05281669      -0.24053246
N       -0.78280414       1.05202763       0.56386045
H        2.27621156      -0.75629763       0.04837165
H        0.59175002      -0.38307985      -1.80484966
H       -1.58624658       0.28413984      -1.12502927
H       -1.48347395      -0.94572095       0.19902375
H       -0.91652544       0.83254072       1.55022620
10
Frame=2 idx=005489 GeodesicLength=0.10037822841669604 rxn_smarts="[O:1]=[C:2]([C@@:3]1([H:7])[C:4]([H:8])([H:9])[N:5]1[H:10])[H:6]>>[O:1]1[C:2]([H:6])=[C:3]([H:7])[C:4]([H:8])([H:9])[N:5]1[H:10]"
O        1.18332603       0.36775670       1.33249674
C        1.34716372      -0.20353893       0.24161352
C        0.38408775      -0.20193253      -0.75465635
C       -1.03414259      -0.05749305      -0.24462308
N       -0.76323934       1.05029775       0.55456913
H        2.28053204      -0.75264776       0.04923431
H        0.59446564      -0.36799433      -1.80183692
H       -1.59979705       0.27756066      -1.12315487
H       -1.48124837      -0.94694496       0.20684136
H       -0.91114783       0.83493645       1.53951616
10
Frame=3 idx=005489 GeodesicLength=0.15057847481747932 rxn_smarts="[O:1]=[C:2]([C@@:3]1([H:7])[C:4]([H:8])([H:9])[N:5]1[H:10])[H:6]>>[O:1]1[C:2]([H:6])=[C:3]([H:7])[C:4]([H:8])([H:9])[N:5]1[H:10]"
O        1.17599718       0.36706335       1.33307144
C        1.34078694      -0.22145142       0.24871940
C        0.38119699      -0.19281446      -0.75148094
C       -1.03841122      -0.06198011      -0.24868845
N       -0.74388399       1.04818278       0.54551905
H        2.28565849      -0.74668420       0.04949737
H        0.59716484      -0.35374975      -1.79834274
H       -1.61268939       0.27179681      -1.12130505
H       -1.48017905      -0.94750851       0.21408632
H       -0.90564079       0.83714552       1.52892362
10
Frame=4 idx=005489 GeodesicLength=0.2008002036207732 rxn_smarts="[O:1]=[C:2]([C@@:3]1([H:7])[C:4]([H:8])([H:9])[N:5]1[H:10])[H:6]>>[O:1]1[C:2]([H:6])=[C:3]([H:7])[C:4]([H:8])([H:9])[N:5]1[H:10]"
O        1.16901903       0.36660654       1.33318043
C        1.33449616      -0.23902989       0.25550023
C        0.37836366      -0.18447718      -0.74806408
C       -1.04251197      -0.06636857      -0.25272158
N       -0.72491090       1.04568488       0.53676066
H        2.29033083      -0.74019441       0.04994821
H        0.59986100      -0.33996127      -1.79461782
H       -1.62513397       0.26653410      -1.11934611
H       -1.47951509      -0.94780033       0.22085585
H       -0.89999873       0.83900613       1.51850420
10
Frame=5 idx=005489 GeodesicLength=0.2510605527513169 rxn_smarts="[O:1]=[C:2]([C@@:3]1([H:7])[C:4]([H:8])([H:9])[N:5]1[H:10])[H:6]>>[O:1]1[C:2]([H:6])=[C:3]([H:7])[C:4]([H:8])([H:9])[N:5]1[H:10]"
O        1.16240640       0.36665258       1.33277043
C        1.32858386      -0.25539609       0.26156114
C        0.37564729      -0.17647087      -0.74464648
C       -1.04635115      -0.07074361      -0.25670370
N       -0.70645639       1.04285087       0.52828201
H        2.29389853      -0.73459279       0.05123177
H        0.60254961      -0.32616580      -1.79090968
H       -1.63732192       0.26146129      -1.11715055
H       -1.47870316      -0.94808017       0.22729219
H       -0.89425307       0.84048458       1.50827287
10
Frame=6 idx=005489 GeodesicLength=0.30135671567304245 rxn_smarts="[O:1]=[C:2]([C@@:3]1([H:7])[C:4]([H:8])([H:9])[N:5]1[H:10])[H:6]>>[O:1]1[C:2]([H:6])=[C:3]([H:7])[C:4]([H:8])([H:9])[N:5]1[H:10]"
O        1.15611099       0.36726540       1.33191027
C        1.32315238      -0.27021670       0.26686476
C        0.37305606      -0.16861520      -0.74130159
C       -1.04990818      -0.07514018      -0.26063145
N       -0.68856968       1.03974119       0.52003926
H        2.29628004      -0.73047280       0.05341393
H        0.60523361      -0.31215674      -1.78729624
H       -1.64935105       0.25642083      -1.11468490
H       -1.47754149      -0.94843919       0.23348380
H       -0.88846267       0.84161338       1.49820215
10
Frame=7 idx=005489 GeodesicLength=0.3517052923511589 rxn_smarts="[O:1]=[C:2]([C@@:3]1([H:7])[C:4]([H:8])([H:9])[N:5]1[H:10])[H:6]>>[O:1]1[C:2]([H:6])=[C:3]([H:7])[C:4]([H:8])([H:9])[N:5]1[H:10]"
O        1.15007023       0.36836509       1.33068748
C        1.31811005      -0.28364647       0.27147834
C        0.37054178      -0.16095718      -0.73804110
C       -1.05321286      -0.07955976      -0.26451041
N       -0.67121817       1.03641223       0.51199730
H        2.29778427      -0.72773509       0.05638544
H        0.60790769      -0.29788695      -1.78377938
H       -1.66124302       0.25137450      -1.11194187
H       -1.47607634      -0.94884035       0.23946010
H       -0.88266363       0.84247398       1.48826409
10
Frame=8 idx=005489 GeodesicLength=0.40205536773820183 rxn_smarts="[O:1]=[C:2]([C@@:3]1([H:7])[C:4]([H:8])([H:9])[N:5]1[H:10])[H:6]>>[O:1]1[C:2]([H:6])=[C:3]([H:7])[C:4]([H:8])([H:9])[N:5]1[H:10]"
O        1.14423717       0.36981541       1.32920770
C        1.31343729      -0.29591879       0.27555753
C        0.36810394      -0.15352615      -0.73484000
C       -1.05630833      -0.08396613      -0.26835783
N       -0.65435827       1.03290873       0.50414641
H        2.29866147      -0.72600377       0.05988999
H        0.61057272      -0.28357577      -1.78030771
H       -1.67300655       0.24641575      -1.10896083
H       -1.47443675      -0.94923775       0.24521473
H       -0.87690269       0.84308847       1.47845000
10
Frame=9 idx=005489 GeodesicLength=0.45242678829388283 rxn_smarts="[O:1]=[C:2]([C@@:3]1([H:7])[C:4]([H:8])([H:9])[N:5]1[H:10])[H:6]>>[O:1]1[C:2]([H:6])=[C:3]([H:7])[C:4]([H:8])([H:9])[N:5]1[H:10]"
O        1.13858125       0.37154895       1.32751510
C        1.30906509      -0.30722394       0.27917123
C        0.36571927      -0.14635690      -0.73170028
C       -1.05921440      -0.08835664      -0.27218173
N       -0.63794363       1.02926108       0.49646150
H        2.29906299      -0.72509193       0.06384649
H        0.61323214      -0.26922077      -1.77687376
H       -1.68465007       0.24153526      -1.10574433
H       -1.47266746      -0.94959958       0.25076565
H       -0.87118518       0.84350445       1.46874014
10
Frame=10 idx=005489 GeodesicLength=0.5028186468058004 rxn_smarts="[O:1]=[C:2]([C@@:3]1([H:7])[C:4]([H:8])([H:9])[N:5]1[H:10])[H:6]>>[O:1]1[C:2]([H:6])=[C:3]([H:7])[C:4]([H:8])([H:9])[N:5]1[H:10]"
O        1.13308334       0.37352318       1.32563632
C        1.30493680      -0.31770546       0.28240057
C        0.36337222      -0.13946783      -0.72861536
C       -1.06195018      -0.09273122      -0.27598946
N       -0.62194229       1.02549459       0.48891623
H        2.29911021      -0.72488252       0.06816791
H        0.61589833      -0.25480268      -1.77346428
H       -1.69618728       0.23671793      -1.10229993
H       -1.47080101      -0.94990243       0.25613511
H       -0.86552012       0.84375643       1.45911289
10
Frame=11 idx=005489 GeodesicLength=0.5532236278547631 rxn_smarts="[O:1]=[C:2]([C@@:3]1([H:7])[C:4]([H:8])([H:9])[N:5]1[H:10])[H:6]>>[O:1]1[C:2]([H:6])=[C:3]([H:7])[C:4]([H:8])([H:9])[N:5]1[H:10]"
O        1.12772066       0.37564415       1.32362180
C        1.30103682      -0.32758202       0.28532083
C        0.36106993      -0.13289113      -0.72557473
C       -1.06454264      -0.09706479      -0.27979559
N       -0.60630256       1.02162623       0.48151403
H        2.29891185      -0.72502789       0.07273032
H        0.61857166      -0.24048690      -1.77004601
H       -1.70761567       0.23204375      -1.09864728
H       -1.46893608      -0.95011437       0.26130889
H       -0.85991396       0.84385298       1.44956776
10
Frame=12 idx=005489 GeodesicLength=0.603685473975785 rxn_smarts="[O:1]=[C:2]([C@@:3]1([H:7])[C:4]([H:8])([H:9])[N:5]1[H:10])[H:6]>>[O:1]1[C:2]([H:6])=[C:3]([H:7])[C:4]([H:8])([H:9])[N:5]1[H:10]"
O        1.12247311       0.37792695       1.32147535
C        1.29728076      -0.33683581       0.28796525
C        0.35877890      -0.12658848      -0.72258475
C       -1.06698236      -0.10136493      -0.28360607
N       -0.59101479       1.01766058       0.47423799
H        2.29853291      -0.72562772       0.07752906
H        0.62123127      -0.22620608      -1.76662207
H       -1.71893047       0.22745076      -1.09478097
H       -1.46701009      -0.95021814       0.26629502
H       -0.85435923       0.84380287       1.44009119
10
Frame=13 idx=005489 GeodesicLength=0.6541418970510618 rxn_smarts="[O:1]=[C:2]([C@@:3]1([H:7])[C:4]([H:8])([H:9])[N:5]1[H:10])[H:6]>>[O:1]1[C:2]([H:6])=[C:3]([H:7])[C:4]([H:8])([H:9])[N:5]1[H:10]"
O        1.11734653       0.38033564       1.31921855
C        1.29369470      -0.34560077       0.29037412
C        0.35652356      -0.12055200      -0.71964621
C       -1.06929979      -0.10561502      -0.28743039
N       -0.57606150       1.01362386       0.46709892
H        2.29803070      -0.72649342       0.08249722
H        0.62389692      -0.21208351      -1.76317991
H       -1.73015354       0.22300582      -1.09070931
H       -1.46509764      -0.95022508       0.27108255
H       -0.84887995       0.84360447       1.43069446
10
Frame=14 idx=005489 GeodesicLength=0.7046067537116684 rxn_smarts="[O:1]=[C:2]([C@@:3]1([H:7])[C:4]([H:8])([H:9])[N:5]1[H:10])[H:6]>>[O:1]1[C:2]([H:6])=[C:3]([H:7])[C:4]([H:8])([H:9])[N:5]1[H:10]"
O        1.11233470       0.38287171       1.31686160
C        1.29025600      -0.35390201       0.29256787
C        0.35430007      -0.11474170      -0.71676452
C       -1.07149485      -0.10980759      -0.29127801
N       -0.56143012       1.00952251       0.46010503
H        2.29742184      -0.72759591       0.08761854
H        0.62655286      -0.19817322      -1.75971745
H       -1.74128062       0.21871573      -1.08643317
H       -1.46318422      -0.95013403       0.27565548
H       -0.84347566       0.84324450       1.42138462
10
Frame=15 idx=005489 GeodesicLength=0.7550765169552843 rxn_smarts="[O:1]=[C:2]([C@@:3]1([H:7])[C:4]([H:8])([H:9])[N:5]1[H:10])[H:6]>>[O:1]1[C:2]([H:6])=[C:3]([H:7])[C:4]([H:8])([H:9])[N:5]1[H:10]"
O        1.10743665       0.38553953       1.31441137
C        1.28695436      -0.36176272       0.29456320
C        0.35210979      -0.10911953      -0.71394474
C       -1.07357130      -0.11393648      -0.29515641
N       -0.54711287       1.00536727       0.45326327
H        2.29671820      -0.72891674       0.09288109
H        0.62919152      -0.18451937      -1.75623665
H       -1.75231404       0.21458735      -1.08195274
H       -1.46126154      -0.94995197       0.28000244
H       -0.83815076       0.84271266       1.41216918
10
Frame=16 idx=005489 GeodesicLength=0.8055464236183589 rxn_smarts="[O:1]=[C:2]([C@@:3]1([H:7])[C:4]([H:8])([H:9])[N:5]1[H:10])[H:6]>>[O:1]1[C:2]([H:6])=[C:3]([H:7])[C:4]([H:8])([H:9])[N:5]1[H:10]"
O        1.10265140       0.38834144       1.31187405
C        1.28378056      -0.36920778       0.29637583
C        0.34995394      -0.10365424      -0.71118998
C       -1.07553373      -0.11799695      -0.29907176
N       -0.53310154       1.00116913       0.44657822
H        2.29593075      -0.73043786       0.09827360
H        0.63180791      -0.17115452      -1.75274070
H       -1.76325612       0.21062377      -1.07726863
H       -1.45932436      -0.94968615       0.28411544
H       -0.83290879       0.84200316       1.40305394
