15
Frame=0 idx=003664 GeodesicLength=0.0 rxn_smarts="[C:1]([C:2](/[C:3](=[N:4]\[O:5][H:12])[C:6]([H:13])([H:14])[H:15])([H:10])[H:11])([H:7])([H:8])[H:9]>>[C:1]([C:2]([H:10])([H:11])[H:15])([H:7])([H:8])[H:9].[C:3](=[N:4][O:5][H:12])=[C:6]([H:13])[H:14]"
C        1.78981080      -0.03354234       0.22005938
C        0.53868247      -0.29753440      -0.61391295
C       -1.06990385      -0.02055320       0.05580214
N       -1.32614499       1.17980732       0.46953017
O       -0.34443516       2.11982105       0.03246278
C       -1.79618063      -1.19478741       0.09913817
H        1.69236627       0.91361443       0.74553152
H        1.97768942      -0.82708096       0.94560628
H        2.65221795       0.02495345      -0.44540055
H        0.39214482       0.51520184      -1.32349819
H        0.54155724      -1.24396993      -1.15311006
H       -0.72387454       2.94419625       0.33697025
H       -2.83145462      -1.18937634       0.41101177
H       -1.35055242      -2.12120016      -0.22584856
H       -0.14192276      -0.76954965       0.44565786
15
Frame=1 idx=003664 GeodesicLength=0.12302069097280727 rxn_smarts="[C:1]([C:2](/[C:3](=[N:4]\[O:5][H:12])[C:6]([H:13])([H:14])[H:15])([H:10])[H:11])([H:7])([H:8])[H:9]>>[C:1]([C:2]([H:10])([H:11])[H:15])([H:7])([H:8])[H:9].[C:3](=[N:4][O:5][H:12])=[C:6]([H:13])[H:14]"
C        1.79732833      -0.02837487       0.22258610
C        0.55026356      -0.30848012      -0.61203085
C       -1.07641124      -0.01595014       0.06211798
N       -1.32359394       1.18224410       0.47799082
O       -0.36350617       2.12548731       0.00870138
C       -1.80584787      -1.18904099       0.11099066
H        1.68544422       0.91293738       0.75600542
H        1.99835629      -0.82322342       0.94318397
H        2.65987424       0.04964622      -0.44075773
H        0.40225794       0.49777613      -1.32931332
H        0.57028034      -1.25237363      -1.15550309
H       -0.72751553       2.94742215       0.33803434
H       -2.83488650      -1.17818764       0.44342673
H       -1.39319660      -2.10849384      -0.27270911
H       -0.13884707      -0.81138864       0.44727668
15
Frame=2 idx=003664 GeodesicLength=0.2459667491494105 rxn_smarts="[C:1]([C:2](/[C:3](=[N:4]\[O:5][H:12])[C:6]([H:13])([H:14])[H:15])([H:10])[H:11])([H:7])([H:8])[H:9]>>[C:1]([C:2]([H:10])([H:11])[H:15])([H:7])([H:8])[H:9].[C:3](=[N:4][O:5][H:12])=[C:6]([H:13])[H:14]"
C        1.80436046      -0.02325837       0.22529379
C        0.56194218      -0.31945969      -0.61055740
C       -1.08329132      -0.01114691       0.06797620
N       -1.32138314       1.18491600       0.48570456
O       -0.38351076       2.13080756      -0.01513581
C       -1.81462065      -1.18386529       0.12321670
H        1.67787961       0.91185405       0.76667266
H        2.01832869      -0.81923744       0.94092805
H        2.66692460       0.07445563      -0.43548383
H        0.41251264       0.48061519      -1.33507473
H        0.59989183      -1.26031820      -1.15856504
H       -0.72958043       2.95027086       0.33913937
H       -2.83687009      -1.16819731       0.47647352
H       -1.43679547      -2.09275451      -0.31797374
H       -0.13578815      -0.85468159       0.44738571
15
Frame=3 idx=003664 GeodesicLength=0.3688270155544722 rxn_smarts="[C:1]([C:2](/[C:3](=[N:4]\[O:5][H:12])[C:6]([H:13])([H:14])[H:15])([H:10])[H:11])([H:7])([H:8])[H:9]>>[C:1]([C:2]([H:10])([H:11])[H:15])([H:7])([H:8])[H:9].[C:3](=[N:4][O:5][H:12])=[C:6]([H:13])[H:14]"
C        1.81091494      -0.01829778       0.22816079
C        0.57370084      -0.33038511      -0.60953928
C       -1.09056977      -0.00607226       0.07336545
N       -1.31947742       1.18783232       0.49286140
O       -0.40431945       2.13583852      -0.03865147
C       -1.82246205      -1.17921456       0.13576790
H        1.66973292       0.91015957       0.77766174
H        2.03759619      -0.81535236       0.93868984
H        2.67335691       0.09934573      -0.42958862
H        0.42292289       0.46395215      -1.34069614
H        0.63034383      -1.26756111      -1.16251220
H       -0.73043434       2.95284567       0.33976287
H       -2.83755444      -1.15921950       0.50955594
H       -1.48105042      -2.07432781      -0.36060634
H       -0.13270062      -0.89954348       0.44576812
15
Frame=4 idx=003664 GeodesicLength=0.4916505092300501 rxn_smarts="[C:1]([C:2](/[C:3](=[N:4]\[O:5][H:12])[C:6]([H:13])([H:14])[H:15])([H:10])[H:11])([H:7])([H:8])[H:9]>>[C:1]([C:2]([H:10])([H:11])[H:15])([H:7])([H:8])[H:9].[C:3](=[N:4][O:5][H:12])=[C:6]([H:13])[H:14]"
C        1.81697405      -0.01360722       0.23121907
C        0.58554527      -0.34118468      -0.60905137
C       -1.09829859      -0.00062632       0.07815437
N       -1.31786645       1.19105487       0.49950826
O       -0.42578905       2.14070070      -0.06159510
C       -1.82936161      -1.17501038       0.14856665
H        1.66100119       0.90764989       0.78913888
H        2.05607954      -0.81180897       0.93639846
H        2.67917924       0.12426655      -0.42297538
H        0.43357710       0.44800005      -1.34615959
H        0.66165473      -1.27388939      -1.16757074
H       -0.73044211       2.95531739       0.33952825
H       -2.83693910      -1.15113034       0.54263253
H       -1.52572522      -2.05363474      -0.39991319
H       -0.12958899      -0.94609739       0.44211890
15
Frame=5 idx=003664 GeodesicLength=0.6143674018952912 rxn_smarts="[C:1]([C:2](/[C:3](=[N:4]\[O:5][H:12])[C:6]([H:13])([H:14])[H:15])([H:10])[H:11])([H:7])([H:8])[H:9]>>[C:1]([C:2]([H:10])([H:11])[H:15])([H:7])([H:8])[H:9].[C:3](=[N:4][O:5][H:12])=[C:6]([H:13])[H:14]"
C        1.82247106      -0.00925123       0.23452848
C        0.59745649      -0.35178994      -0.60916010
C       -1.10656580       0.00531231       0.08209459
N       -1.31656553       1.19464400       0.50551030
O       -0.44783463       2.14549536      -0.08395223
C       -1.83528717      -1.17117655       0.16156737
H        1.65163400       0.90423075       0.80115508
H        2.07360161      -0.80870513       0.93411288
H        2.68437875       0.14908913      -0.41547539
H        0.44454595       0.43290228      -1.35148141
H        0.69383981      -1.27909764      -1.17387713
H       -0.72967523       2.95773935       0.33842346
H       -2.83487584      -1.14391368       0.57593423
H       -1.57063747      -2.03107347      -0.43546836
H       -0.12648599      -0.99440555       0.43608823
15
Frame=6 idx=003664 GeodesicLength=0.7370637676829349 rxn_smarts="[C:1]([C:2](/[C:3](=[N:4]\[O:5][H:12])[C:6]([H:13])([H:14])[H:15])([H:10])[H:11])([H:7])([H:8])[H:9]>>[C:1]([C:2]([H:10])([H:11])[H:15])([H:7])([H:8])[H:9].[C:3](=[N:4][O:5][H:12])=[C:6]([H:13])[H:14]"
C        1.82736002      -0.00533689       0.23816077
C        0.60945157      -0.36215385      -0.60995822
C       -1.11545474       0.01185979       0.08495737
N       -1.31558751       1.19869591       0.51079300
O       -0.47028547       2.15039252      -0.10561364
C       -1.84018603      -1.16762035       0.17481401
H        1.64154347       0.89969088       0.81391400
H        2.09005233      -0.80628030       0.93180744
H        2.68896116       0.17381172      -0.40690200
H        0.45595932       0.41883205      -1.35669744
H        0.72697226      -1.28301053      -1.18162108
H       -0.72846104       2.96032504       0.33620690
H       -2.83121801      -1.13744569       0.60973850
H       -1.61569230      -2.00713977      -0.46686185
H       -0.12341501      -1.04462052       0.42726226
15
Frame=7 idx=003664 GeodesicLength=0.859683510060353 rxn_smarts="[C:1]([C:2](/[C:3](=[N:4]\[O:5][H:12])[C:6]([H:13])([H:14])[H:15])([H:10])[H:11])([H:7])([H:8])[H:9]>>[C:1]([C:2]([H:10])([H:11])[H:15])([H:7])([H:8])[H:9].[C:3](=[N:4][O:5][H:12])=[C:6]([H:13])[H:14]"
C        1.83152612      -0.00189694       0.24220158
C        0.62151355      -0.37223284      -0.61153584
C       -1.12510344       0.01912517       0.08639880
N       -1.31500921       1.20328510       0.51509650
O       -0.49305655       2.15551577      -0.12669987
C       -1.84396489      -1.16425316       0.18836532
H        1.63054659       0.89392069       0.82750901
H        2.10523461      -0.80460612       0.92954494
H        2.69287548       0.19843582      -0.39700481
H        0.46791090       0.40588431      -1.36187868
H        0.76112739      -1.28546052      -1.19089388
H       -0.72665772       2.96309953       0.33304450
H       -2.82569302      -1.13165940       0.64444618
H       -1.66082722      -1.98231472      -0.49375323
H       -0.12042258      -1.09684267       0.41515948
15
Frame=8 idx=003664 GeodesicLength=0.9823017859157998 rxn_smarts="[C:1]([C:2](/[C:3](=[N:4]\[O:5][H:12])[C:6]([H:13])([H:14])[H:15])([H:10])[H:11])([H:7])([H:8])[H:9]>>[C:1]([C:2]([H:10])([H:11])[H:15])([H:7])([H:8])[H:9].[C:3](=[N:4][O:5][H:12])=[C:6]([H:13])[H:14]"
C        1.83485943       0.00097166       0.24676719
C        0.63364303      -0.38198541      -0.61399438
C       -1.13565811       0.02725377       0.08606787
N       -1.31488397       1.20853891       0.51821753
O       -0.51600935       2.16108460      -0.14727688
C       -1.84646667      -1.16100250       0.20234615
H        1.61845052       0.88674024       0.84211755
H        2.11894155      -0.80388713       0.92739879
H        2.69608620       0.22291809      -0.38550399
H        0.48053699       0.39420779      -1.36709513
H        0.79639756      -1.28627378      -1.20183432
H       -0.72438594       2.96625464       0.32886834
H       -2.81789722      -1.12654233       0.68060609
H       -1.70606429      -1.95704555      -0.51591006
H       -0.11754973      -1.15123299       0.39922525
15
Frame=9 idx=003664 GeodesicLength=1.1048066224358486 rxn_smarts="[C:1]([C:2](/[C:3](=[N:4]\[O:5][H:12])[C:6]([H:13])([H:14])[H:15])([H:10])[H:11])([H:7])([H:8])[H:9]>>[C:1]([C:2]([H:10])([H:11])[H:15])([H:7])([H:8])[H:9].[C:3](=[N:4][O:5][H:12])=[C:6]([H:13])[H:14]"
C        1.83725527       0.00310503       0.25199119
C        0.64581406      -0.39132505      -0.61738715
C       -1.14727137       0.03645358       0.08358263
N       -1.31518087       1.21451584       0.51994755
O       -0.53892527       2.16722039      -0.16733410
C       -1.84742300      -1.15775165       0.21689270
H        1.60513294       0.87789414       0.85785206
H        2.13090540      -0.80435867       0.92546520
H        2.69857595       0.24702680      -0.37206218
H        0.49395378       0.38399230      -1.37228320
H        0.83278566      -1.28514116      -1.21451657
H       -0.72214483       2.96992162       0.32337911
H       -2.80716233      -1.12209734       0.71884021
H       -1.75148288      -1.93155601      -0.53315741
H       -0.11483251      -1.20789980       0.37878996
15
Frame=10 idx=003664 GeodesicLength=1.2273539629159718 rxn_smarts="[C:1]([C:2](/[C:3](=[N:4]\[O:5][H:12])[C:6]([H:13])([H:14])[H:15])([H:10])[H:11])([H:7])([H:8])[H:9]>>[C:1]([C:2]([H:10])([H:11])[H:15])([H:7])([H:8])[H:9].[C:3](=[N:4][O:5][H:12])=[C:6]([H:13])[H:14]"
C        1.83848797       0.00441954       0.25803086
C        0.65801366      -0.40022482      -0.62188788
C       -1.16020376       0.04686189       0.07842601
N       -1.31609302       1.22138965       0.51989188
O       -0.56172631       2.17421793      -0.18712840
C       -1.84652320      -1.15440681       0.23217415
H        1.59016220       0.86717748       0.87492557
H        2.14079032      -0.80623028       0.92386147
H        2.70022361       0.27080625      -0.35626115
H        0.50832055       0.37538207      -1.37760344
H        0.87046834      -1.28190686      -1.22909351
H       -0.71965791       2.97426777       0.31682207
H       -2.79279823      -1.11823936       0.75980804
H       -1.79711958      -1.90644978      -0.54496400
H       -0.11234463      -1.26706468       0.35299832
15
Frame=11 idx=003664 GeodesicLength=1.3498654845279956 rxn_smarts="[C:1]([C:2](/[C:3](=[N:4]\[O:5][H:12])[C:6]([H:13])([H:14])[H:15])([H:10])[H:11])([H:7])([H:8])[H:9]>>[C:1]([C:2]([H:10])([H:11])[H:15])([H:7])([H:8])[H:9].[C:3](=[N:4][O:5][H:12])=[C:6]([H:13])[H:14]"
C        1.83827695       0.00480875       0.26506250
C        0.67017817      -0.40860103      -0.62761997
C       -1.17476041       0.05864747       0.07004808
N       -1.31777762       1.22925633       0.51760952
O       -0.58432176       2.18226192      -0.20692816
C       -1.84330659      -1.15083807       0.24836614
H        1.57308612       0.85435277       0.89346085
H        2.14813268      -0.80968532       0.92273364
H        2.70086481       0.29416502      -0.33760772
H        0.52375138       0.36855671      -1.38308165
H        0.90954062      -1.27626198      -1.24562171
H       -0.71664939       2.97928789       0.30932985
H       -2.77380699      -1.11489625       0.80418189
H       -1.84301401      -1.88218451      -0.55074257
H       -0.11019396      -1.32886972       0.32080931
15
Frame=12 idx=003664 GeodesicLength=1.4723594284667614 rxn_smarts="[C:1]([C:2](/[C:3](=[N:4]\[O:5][H:12])[C:6]([H:13])([H:14])[H:15])([H:10])[H:11])([H:7])([H:8])[H:9]>>[C:1]([C:2]([H:10])([H:11])[H:15])([H:7])([H:8])[H:9].[C:3](=[N:4][O:5][H:12])=[C:6]([H:13])[H:14]"
C        1.83629016       0.00406318       0.27331692
C        0.68224037      -0.41636488      -0.63472454
C       -1.19128805       0.07200450       0.05790599
N       -1.32039615       1.23825147       0.51265852
O       -0.60659303       2.19159359      -0.22700100
C       -1.83712329      -1.14686811       0.26565116
H        1.55336371       0.83905073       0.91365266
H        2.15236186      -0.81508008       0.92225232
H        2.70030326       0.31691739      -0.31549422
H        0.54038229       0.36376976      -1.38870526
H        0.95011505      -1.26784327      -1.26419321
H       -0.71313035       2.98510327       0.30079990
H       -2.74877715      -1.11194895       0.85277556
H       -1.88921008      -1.85915748      -0.54979004
H       -0.10853860      -1.39349113       0.28089525
15
Frame=13 idx=003664 GeodesicLength=1.5948768986329938 rxn_smarts="[C:1]([C:2](/[C:3](=[N:4]\[O:5][H:12])[C:6]([H:13])([H:14])[H:15])([H:10])[H:11])([H:7])([H:8])[H:9]>>[C:1]([C:2]([H:10])([H:11])[H:15])([H:7])([H:8])[H:9].[C:3](=[N:4][O:5][H:12])=[C:6]([H:13])[H:14]"
C        1.83209411       0.00189240       0.28306410
C        0.69410238      -0.42343592      -0.64333066
C       -1.21017751       0.08713467       0.04153821
N       -1.32415139       1.24854750       0.50458060
O       -0.62850178       2.20246565      -0.24769430
C       -1.82707162      -1.14226188       0.28415561
H        1.53032218       0.82084929       0.93565177
H        2.15272109      -0.82286699       0.92264614
H        2.69825528       0.33871551      -0.28920827
H        0.55830478       0.36129799      -1.39438545
H        0.99230200      -1.25626099      -1.28484290
H       -0.70917022       2.99185304       0.29104809
H       -2.71575920      -1.10920809       0.90640963
H       -1.93563879      -1.83767523      -0.54123881
H       -0.10763130      -1.46104694       0.23160626
15
Frame=14 idx=003664 GeodesicLength=1.7174717242088875 rxn_smarts="[C:1]([C:2](/[C:3](=[N:4]\[O:5][H:12])[C:6]([H:13])([H:14])[H:15])([H:10])[H:11])([H:7])([H:8])[H:9]>>[C:1]([C:2]([H:10])([H:11])[H:15])([H:7])([H:8])[H:9].[C:3](=[N:4][O:5][H:12])=[C:6]([H:13])[H:14]"
C        1.82514965      -0.00205259       0.29460737
C        0.70563070      -0.42974616      -0.65353395
C       -1.23187866       0.10419037       0.02065744
N       -1.32929360       1.26031984       0.49292275
O       -0.65010320       2.21506058      -0.26945712
C       -1.81200471      -1.13671084       0.30386164
H        1.50314364       0.79927911       0.95954704
H        2.14825755      -0.83355735       0.92417309
H        2.69433619       0.35909276      -0.25793182
H        0.57754270       0.36140609      -1.39992639
H        1.03619676      -1.24110965      -1.30747274
H       -0.70478442       2.99961073       0.27979687
H       -2.67220078      -1.10639152       0.96583887
H       -1.98207132      -1.81795077      -0.52402608
H       -0.10792049      -1.53144059       0.17094302
15
Frame=15 idx=003664 GeodesicLength=1.840341105022013 rxn_smarts="[C:1]([C:2](/[C:3](=[N:4]\[O:5][H:12])[C:6]([H:13])([H:14])[H:15])([H:10])[H:11])([H:7])([H:8])[H:9]>>[C:1]([C:2]([H:10])([H:11])[H:15])([H:7])([H:8])[H:9].[C:3](=[N:4][O:5][H:12])=[C:6]([H:13])[H:14]"
C        1.81495968      -0.00819102       0.30820207
C        0.71666988      -0.43530608      -0.66529698
C       -1.25685459       0.12325480      -0.00449687
N       -1.33604862       1.27374089       0.47755177
O       -0.67160825       2.22944728      -0.29271083
C       -1.79064742      -1.12985956       0.32443985
H        1.47112387       0.77393743       0.98521485
H        2.13800080      -0.84768710       0.92712324
H        2.68816961       0.37731724      -0.22099984
H        0.59794628       0.36423711      -1.40498243
H        1.08176277      -1.22215332      -1.33167821
H       -0.70025026       3.00847763       0.26656729
H       -2.61519050      -1.10314121       1.03121148
H       -2.02787144      -1.79999716      -0.49708975
H       -0.11016180      -1.60407693       0.09694437
15
Frame=16 idx=003664 GeodesicLength=1.9638616234240567 rxn_smarts="[C:1]([C:2](/[C:3](=[N:4]\[O:5][H:12])[C:6]([H:13])([H:14])[H:15])([H:10])[H:11])([H:7])([H:8])[H:9]>>[C:1]([C:2]([H:10])([H:11])[H:15])([H:7])([H:8])[H:9].[C:3](=[N:4][O:5][H:12])=[C:6]([H:13])[H:14]"
C        1.80125925      -0.01681948       0.32389028
C        0.72704806      -0.44029956      -0.67830149
C       -1.28551214       0.14424419      -0.03281582
N       -1.34454347       1.28888566       0.45895934
O       -0.69347993       2.24544815      -0.31773087
C       -1.76202764      -1.12138683       0.34498243
H        1.43395161       0.74475071       1.01214596
H        2.12137336      -0.86549942       0.93170268
H        2.67944975       0.39260836      -0.17833103
H        0.61903025       0.36953810      -1.40908037
H        1.12868158      -1.19965953      -1.35644524
H       -0.69573706       3.01839149       0.25091857
H       -2.54220647      -1.09907990       1.10132848
H       -2.07178000      -1.78365260      -0.45980643
H       -0.11550716      -1.67746935       0.00858351
