16
Frame=0 idx=010301 GeodesicLength=0.0 rxn_smarts="[C:1]([N:2]1[C@:3]2([H:11])[C:4]([H:12])([H:13])[C@@:5]1([H:14])[C:6]([H:15])=[C:7]2[H:16])([H:8])([H:9])[H:10]>>[C:1](/[C:7](=[C:6](\[C@:5]1([H:14])[N:2]=[C:3]([H:11])[C:4]1([H:12])[H:13])[H:15])[H:16])([H:8])([H:9])[H:10]"
C        1.61947182      -0.99294597       0.62572506
N        0.74089520       0.44477994      -0.11777077
C        0.38452388       1.50734508       0.50877660
C       -0.94756871       1.68696358      -0.14021837
C       -0.49859168       0.41136491      -0.92846369
C       -1.19332061      -0.88782344      -0.68214147
C       -0.54324781      -1.66203173       0.16485877
H        1.35695563      -1.46055984       1.56389354
H        1.88002954      -1.72116289      -0.12973999
H        2.46089183      -0.30882283       0.78715297
H        0.94148491       2.01024929       1.29485137
H       -1.10406197       2.61038458      -0.69829503
H       -1.79795678       1.49255916       0.51895836
H       -0.27682109       0.61801420      -1.97954294
H       -2.12936358      -1.08334604      -1.21119241
H       -0.89332057      -2.66496797       0.42314800
16
Frame=1 idx=010301 GeodesicLength=0.08301327037456734 rxn_smarts="[C:1]([N:2]1[C@:3]2([H:11])[C:4]([H:12])([H:13])[C@@:5]1([H:14])[C:6]([H:15])=[C:7]2[H:16])([H:8])([H:9])[H:10]>>[C:1](/[C:7](=[C:6](\[C@:5]1([H:14])[N:2]=[C:3]([H:11])[C:4]1([H:12])[H:13])[H:15])[H:16])([H:8])([H:9])[H:10]"
C        1.62539697      -1.00522109       0.59131574
N        0.75559080       0.46417720      -0.12788377
C        0.34076483       1.47299330       0.55949895
C       -0.95612741       1.68268679      -0.15114868
C       -0.48258814       0.41831827      -0.94053350
C       -1.17069355      -0.88442139      -0.68663531
C       -0.55165870      -1.61596261       0.22060809
H        1.39894293      -1.48326578       1.53476261
H        1.87809952      -1.73169924      -0.16977221
H        2.47157597      -0.32562590       0.74440318
H        0.88149750       1.97691134       1.35616671
H       -1.07428788       2.61679352      -0.70077650
H       -1.83772585       1.49051395       0.46606716
H       -0.26181623       0.62431930      -1.99146219
H       -2.09791684      -1.09904218      -1.22227547
H       -0.91905390      -2.60147548       0.51766519
16
Frame=2 idx=010301 GeodesicLength=0.16614310219984213 rxn_smarts="[C:1]([N:2]1[C@:3]2([H:11])[C:4]([H:12])([H:13])[C@@:5]1([H:14])[C:6]([H:15])=[C:7]2[H:16])([H:8])([H:9])[H:10]>>[C:1](/[C:7](=[C:6](\[C@:5]1([H:14])[N:2]=[C:3]([H:11])[C:4]1([H:12])[H:13])[H:15])[H:16])([H:8])([H:9])[H:10]"
C        1.62822664      -1.01687543       0.56035367
N        0.76927208       0.48414579      -0.13592233
C        0.29999793       1.43940574       0.60207033
C       -0.96341738       1.67839152      -0.16080820
C       -0.46731166       0.42474532      -0.95124460
C       -1.14904031      -0.88106022      -0.68763008
C       -0.55674326      -1.57184032       0.26948425
H        1.43352141      -1.50760998       1.50558905
H        1.87732031      -1.73998872      -0.20659928
H        2.47811644      -0.34146032       0.70936463
H        0.82498012       1.94651080       1.40735000
H       -1.04699734       2.62196161      -0.70062471
H       -1.87141014       1.48890255       0.41764532
H       -0.24848729       0.62897776      -2.00245814
H       -2.06850237      -1.11414595      -1.22747728
H       -0.93952519      -2.54006014       0.60090737
16
Frame=3 idx=010301 GeodesicLength=0.24942170025804883 rxn_smarts="[C:1]([N:2]1[C@:3]2([H:11])[C:4]([H:12])([H:13])[C@@:5]1([H:14])[C:6]([H:15])=[C:7]2[H:16])([H:8])([H:9])[H:10]>>[C:1](/[C:7](=[C:6](\[C@:5]1([H:14])[N:2]=[C:3]([H:11])[C:4]1([H:12])[H:13])[H:15])[H:16])([H:8])([H:9])[H:10]"
C        1.62868469      -1.02796688       0.53200214
N        0.78209020       0.50447285      -0.14228387
C        0.26252936       1.40756785       0.63728065
C       -0.96969598       1.67412791      -0.16964886
C       -0.45253737       0.43074415      -0.96091504
C       -1.12836882      -0.87753334      -0.68594292
C       -0.55917385      -1.52943749       0.31303817
H        1.46213603      -1.53290058       1.47633106
H        1.87752542      -1.74653241      -0.24079120
H        2.48152483      -0.35656901       0.67999824
H        0.77051285       1.91729374       1.45197294
H       -1.02238405       2.62593630      -0.69894952
H       -1.89991022       1.48756186       0.37328239
H       -0.23628335       0.63215633      -2.01273210
H       -2.04080557      -1.12853332      -1.22821089
H       -0.95584417      -2.48038796       0.67556883
16
Frame=4 idx=010301 GeodesicLength=0.3328215379593953 rxn_smarts="[C:1]([N:2]1[C@:3]2([H:11])[C:4]([H:12])([H:13])[C@@:5]1([H:14])[C:6]([H:15])=[C:7]2[H:16])([H:8])([H:9])[H:10]>>[C:1](/[C:7](=[C:6](\[C@:5]1([H:14])[N:2]=[C:3]([H:11])[C:4]1([H:12])[H:13])[H:15])[H:16])([H:8])([H:9])[H:10]"
C        1.62721906      -1.03868047       0.50576283
N        0.79413257       0.52495996      -0.14707036
C        0.22814197       1.37782021       0.66647710
C       -0.97528335       1.66986685      -0.17780339
C       -0.43813432       0.43639171      -0.96961466
C       -1.10865752      -0.87376700      -0.68218568
C       -0.55955699      -1.48863477       0.35236833
H        1.48566813      -1.55883486       1.44706290
H        1.87858750      -1.75175541      -0.27274450
H        2.48244767      -0.37122923       0.65513358
H        0.71812622       1.88942638       1.49121998
H       -1.00047796       2.62880216      -0.69627886
H       -1.92423869       1.48626788       0.33255176
H       -0.22477606       0.63410503      -2.02225366
H       -2.01455211      -1.14219457      -1.22556868
H       -0.96864611      -2.42254387       0.74294331
16
Frame=5 idx=010301 GeodesicLength=0.41632441616725685 rxn_smarts="[C:1]([N:2]1[C@:3]2([H:11])[C:4]([H:12])([H:13])[C@@:5]1([H:14])[C:6]([H:15])=[C:7]2[H:16])([H:8])([H:9])[H:10]>>[C:1](/[C:7](=[C:6](\[C@:5]1([H:14])[N:2]=[C:3]([H:11])[C:4]1([H:12])[H:13])[H:15])[H:16])([H:8])([H:9])[H:10]"
C        1.62413300      -1.04913312       0.48133741
N        0.80543762       0.54539525      -0.15051130
C        0.19646850       1.35013455       0.69070967
C       -0.98037347       1.66563830      -0.18537498
C       -0.42410933       0.44175469      -0.97740437
C       -1.09000598      -0.86970127      -0.67664998
C       -0.55810675      -1.44938086       0.38788937
H        1.50480439      -1.58519058       1.41777277
H        1.88062379      -1.75592024      -0.30250126
H        2.48116801      -0.38560191       0.63417119
H        0.66788220       1.86301062       1.52572139
H       -0.98098109       2.63072434      -0.69285880
H       -1.94516418       1.48503127       0.29505878
H       -0.21382164       0.63499811      -2.03105548
H       -1.98974610      -1.15514169      -1.22014069
H       -0.97820898      -2.36661745       0.80383629
16
Frame=6 idx=010301 GeodesicLength=0.5000133892781167 rxn_smarts="[C:1]([N:2]1[C@:3]2([H:11])[C:4]([H:12])([H:13])[C@@:5]1([H:14])[C:6]([H:15])=[C:7]2[H:16])([H:8])([H:9])[H:10]>>[C:1](/[C:7](=[C:6](\[C@:5]1([H:14])[N:2]=[C:3]([H:11])[C:4]1([H:12])[H:13])[H:15])[H:16])([H:8])([H:9])[H:10]"
C        1.61983618      -1.05945890       0.45816668
N        0.81612388       0.56574846      -0.15259973
C        0.16706800       1.32436363       0.71134463
C       -0.98517320       1.66136815      -0.19244068
C       -0.41028680       0.44689856      -0.98431624
C       -1.07216819      -0.86537438      -0.66993608
C       -0.55533606      -1.41162466       0.42048862
H        1.52028695      -1.61180600       1.38843421
H        1.88350181      -1.75930748      -0.33078092
H        2.47828105      -0.39986431       0.61605213
H        0.61962762       1.83836409       1.55635078
H       -0.96367554       2.63186628      -0.68901763
H       -1.96363470       1.48357984       0.26021524
H       -0.20299555       0.63510899      -2.03904265
H       -1.96589888      -1.16745285      -1.21285415
H       -0.98555657      -2.31240944       0.85993580
16
Frame=7 idx=010301 GeodesicLength=0.5836397330509158 rxn_smarts="[C:1]([N:2]1[C@:3]2([H:11])[C:4]([H:12])([H:13])[C@@:5]1([H:14])[C:6]([H:15])=[C:7]2[H:16])([H:8])([H:9])[H:10]>>[C:1](/[C:7](=[C:6](\[C@:5]1([H:14])[N:2]=[C:3]([H:11])[C:4]1([H:12])[H:13])[H:15])[H:16])([H:8])([H:9])[H:10]"
C        1.61446496      -1.06970845       0.43607700
N        0.82623364       0.58594032      -0.15343892
C        0.13974859       1.30043281       0.72896991
C       -0.98975437       1.65704741      -0.19901811
C       -0.39665670       0.45185393      -0.99037957
C       -1.05516666      -0.86077334      -0.66223366
C       -0.55149713      -1.37537641       0.45055067
H        1.53234419      -1.63850794       1.35915782
H        1.88724513      -1.76207861      -0.35762030
H        2.47397092      -0.41402477       0.60043685
H        0.57347502       1.81575278       1.58332519
H       -0.94842989       2.63228494      -0.68483973
H       -1.97994539       1.48193188       0.22779614
H       -0.19224400       0.63454945      -2.04622590
H       -1.94301344      -1.17910825      -1.20398445
H       -0.99077489      -2.26021574       0.91142707
16
Frame=8 idx=010301 GeodesicLength=0.6672696138577423 rxn_smarts="[C:1]([N:2]1[C@:3]2([H:11])[C:4]([H:12])([H:13])[C@@:5]1([H:14])[C:6]([H:15])=[C:7]2[H:16])([H:8])([H:9])[H:10]>>[C:1](/[C:7](=[C:6](\[C@:5]1([H:14])[N:2]=[C:3]([H:11])[C:4]1([H:12])[H:13])[H:15])[H:16])([H:8])([H:9])[H:10]"
C        1.60818887      -1.07991256       0.41480874
N        0.83582290       0.60593541      -0.15317337
C        0.11422996       1.27814124       0.74423011
C       -0.99416534       1.65269123      -0.20519781
C       -0.38319402       0.45665558      -0.99565488
C       -1.03896307      -0.85590255      -0.65372971
C       -0.54673145      -1.34054754       0.47843408
H        1.54138350      -1.66511366       1.32992236
H        1.89186032      -1.76438159      -0.38317663
H        2.46841019      -0.42812357       0.58684520
H        0.52921916       1.79504223       1.60721238
H       -0.93492370       2.63212475      -0.68046155
H       -1.99452640       1.48010714       0.19741079
H       -0.18149151       0.63340992      -2.05264554
H       -1.92100896      -1.19015042      -1.19380879
H       -0.99411044      -2.20997561       0.95898462
16
Frame=9 idx=010301 GeodesicLength=0.7508055707791357 rxn_smarts="[C:1]([N:2]1[C@:3]2([H:11])[C:4]([H:12])([H:13])[C@@:5]1([H:14])[C:6]([H:15])=[C:7]2[H:16])([H:8])([H:9])[H:10]>>[C:1](/[C:7](=[C:6](\[C@:5]1([H:14])[N:2]=[C:3]([H:11])[C:4]1([H:12])[H:13])[H:15])[H:16])([H:8])([H:9])[H:10]"
C        1.60107821      -1.09008876       0.39431187
N        0.84491133       0.62563819      -0.15202942
C        0.09034094       1.25738838       0.75736212
C       -0.99844302       1.64833409      -0.21099309
C       -0.36998285       0.46133982      -1.00018957
C       -1.02362466      -0.85073486      -0.64449248
C       -0.54106019      -1.30711133       0.50414785
H        1.54774054      -1.69151726       1.30073281
H        1.89741468      -1.76635993      -0.40716789
H        2.46162150      -0.44214976       0.57516630
H        0.48686596       1.77615978       1.62818877
H       -0.92293646       2.63145550      -0.67587868
H       -2.00760581       1.47817170       0.16892137
H       -0.17083318       0.63177304      -2.05833837
H       -1.89998205      -1.20055012      -1.18244029
H       -0.99550493      -2.16174847       1.00269870
16
Frame=10 idx=010301 GeodesicLength=0.8343613330456943 rxn_smarts="[C:1]([N:2]1[C@:3]2([H:11])[C:4]([H:12])([H:13])[C@@:5]1([H:14])[C:6]([H:15])=[C:7]2[H:16])([H:8])([H:9])[H:10]>>[C:1](/[C:7](=[C:6](\[C@:5]1([H:14])[N:2]=[C:3]([H:11])[C:4]1([H:12])[H:13])[H:15])[H:16])([H:8])([H:9])[H:10]"
C        1.59331291      -1.10025226       0.37424175
N        0.85357264       0.64510675      -0.15004009
C        0.06785211       1.23794568       0.76899988
C       -1.00260382       1.64395071      -0.21650077
C       -0.35691518       0.46592631      -1.00406230
C       -1.00900734      -0.84532165      -0.63479034
C       -0.53469653      -1.27496745       0.52823204
H        1.55166521      -1.71749173       1.27167047
H        1.90384417      -1.76813165      -0.43004641
H        2.45387903      -0.45614022       0.56477752
H        0.44608404       1.75891845       1.64692577
H       -0.91223227       2.63040993      -0.67127598
H       -2.01952787       1.47607552       0.14195195
H       -0.16010175       0.62972501      -2.06335335
H       -1.87972653      -1.21036909      -1.17020093
H       -0.99539880      -2.11538431       1.04347078
16
Frame=11 idx=010301 GeodesicLength=0.9179514899235331 rxn_smarts="[C:1]([N:2]1[C@:3]2([H:11])[C:4]([H:12])([H:13])[C@@:5]1([H:14])[C:6]([H:15])=[C:7]2[H:16])([H:8])([H:9])[H:10]>>[C:1](/[C:7](=[C:6](\[C@:5]1([H:14])[N:2]=[C:3]([H:11])[C:4]1([H:12])[H:13])[H:15])[H:16])([H:8])([H:9])[H:10]"
C        1.58497400      -1.11039055       0.35447147
N        0.86184217       0.66432770      -0.14736284
C        0.04662610       1.21966048       0.77937526
C       -1.00665329       1.63954062      -0.22175613
C       -0.34400071       0.47044290      -1.00735885
C       -0.99507748      -0.83967656      -0.62475930
C       -0.52769909      -1.24404878       0.55083187
H        1.55338350      -1.74288056       1.24277943
H        1.91117818      -1.76979949      -0.45178671
H        2.44525324      -0.47008062       0.55544923
H        0.40673451       1.74307488       1.66374816
H       -0.90264009       2.62904683      -0.66667005
H       -2.03045201       1.47383837       0.11635150
H       -0.14931523       0.62734308      -2.06776437
H       -1.86022871      -1.21962283      -1.15722534
H       -0.99392509      -2.07077547       1.08167666
16
Frame=12 idx=010301 GeodesicLength=1.0015744872791323 rxn_smarts="[C:1]([N:2]1[C@:3]2([H:11])[C:4]([H:12])([H:13])[C@@:5]1([H:14])[C:6]([H:15])=[C:7]2[H:16])([H:8])([H:9])[H:10]>>[C:1](/[C:7](=[C:6](\[C@:5]1([H:14])[N:2]=[C:3]([H:11])[C:4]1([H:12])[H:13])[H:15])[H:16])([H:8])([H:9])[H:10]"
C        1.57610858      -1.12050268       0.33491967
N        0.86974750       0.68329346      -0.14411606
C        0.02655712       1.20241079       0.78866787
C       -1.01059342       1.63510503      -0.22676948
C       -0.33125032       0.47491055      -1.01013838
C       -0.98181032      -0.83381503      -0.61449280
C       -0.52012469      -1.21428621       0.57207152
H        1.55308910      -1.76755980       1.21413217
H        1.91940473      -1.77147369      -0.47231380
H        2.43577897      -0.48394773       0.54698746
H        0.36874423       1.72849500       1.67885044
H       -0.89402694       2.62741678      -0.66205761
H       -2.04049933       1.47146787       0.09201344
H       -0.13850665       0.62469532      -2.07162763
H       -1.84147824      -1.22832104      -1.14362192
H       -0.99114031      -2.02788862       1.11749510
16
Frame=13 idx=010301 GeodesicLength=1.0852823433103813 rxn_smarts="[C:1]([N:2]1[C@:3]2([H:11])[C:4]([H:12])([H:13])[C@@:5]1([H:14])[C:6]([H:15])=[C:7]2[H:16])([H:8])([H:9])[H:10]>>[C:1](/[C:7](=[C:6](\[C@:5]1([H:14])[N:2]=[C:3]([H:11])[C:4]1([H:12])[H:13])[H:15])[H:16])([H:8])([H:9])[H:10]"
C        1.56676995      -1.13058675       0.31549107
N        0.87731616       0.70200554      -0.14041536
C        0.00752838       1.18607294       0.79703309
C       -1.01443832       1.63065020      -0.23156152
C       -0.31867826       0.47935532      -1.01246324
C       -0.96916948      -0.82775347      -0.60409585
C       -0.51201442      -1.18560056       0.59205219
H        1.55102528      -1.79146182       1.18575095
H        1.92851147      -1.77324697      -0.49159017
H        2.42547821      -0.49775921       0.53922662
H        0.33201101       1.71501378       1.69244107
H       -0.88625384       2.62558214      -0.65743227
H       -2.04982745       1.46894088       0.06885472
H       -0.12768065       0.62185248      -2.07499328
H       -1.82341819      -1.23650225      -1.12954123
H       -0.98715984      -1.98656226       1.15124323
16
Frame=14 idx=010301 GeodesicLength=1.169034313026761 rxn_smarts="[C:1]([N:2]1[C@:3]2([H:11])[C:4]([H:12])([H:13])[C@@:5]1([H:14])[C:6]([H:15])=[C:7]2[H:16])([H:8])([H:9])[H:10]>>[C:1](/[C:7](=[C:6](\[C@:5]1([H:14])[N:2]=[C:3]([H:11])[C:4]1([H:12])[H:13])[H:15])[H:16])([H:8])([H:9])[H:10]"
C        1.55699040      -1.14063629       0.29614363
N        0.88456822       0.72047224      -0.13632893
C       -0.01052505       1.17056128       0.80459705
C       -1.01818881       1.62617067      -0.23613438
C       -0.30628394       0.48379137      -1.01437651
C       -0.95712569      -0.82150706      -0.59362789
C       -0.50340825      -1.15795290       0.61085909
H        1.54729435      -1.81448403       1.15774270
H        1.93843771      -1.77522240      -0.50955655
H        2.41442990      -0.51145368       0.53199301
H        0.29649222       1.70253890       1.70465066
H       -0.87927212       2.62355082      -0.65277363
H       -2.05847054       1.46629071       0.04676896
H       -0.11686607       0.61886153      -2.07790483
H       -1.80605238      -1.24415849      -1.11502830
H       -0.98201994      -1.94682268       1.18297594
16
Frame=15 idx=010301 GeodesicLength=1.2528476035968548 rxn_smarts="[C:1]([N:2]1[C@:3]2([H:11])[C:4]([H:12])([H:13])[C@@:5]1([H:14])[C:6]([H:15])=[C:7]2[H:16])([H:8])([H:9])[H:10]>>[C:1](/[C:7](=[C:6](\[C@:5]1([H:14])[N:2]=[C:3]([H:11])[C:4]1([H:12])[H:13])[H:15])[H:16])([H:8])([H:9])[H:10]"
C        1.54680597      -1.15064557       0.27682315
N        0.89152396       0.73870456      -0.13193103
C       -0.02768566       1.15578566       0.81146539
C       -1.02185643       1.62166891      -0.24049822
C       -0.29407366       0.48823776      -1.01592479
C       -0.94564454      -0.81509134      -0.58316043
C       -0.49433843      -1.13128468       0.62856974
H        1.54208092      -1.83657473       1.13015721
H        1.94912612      -1.77748808      -0.52617557
H        2.40267991      -0.52501329       0.52514015
H        0.26210770       1.69093730       1.71563567
H       -0.87299385       2.62135920      -0.64807518
H       -2.06651625       1.46352279       0.02567253
H       -0.10607334       0.61577414      -2.08040143
H       -1.78934954      -1.25130974      -1.10017338
H       -0.97579289      -1.90858291       1.21287618
16
Frame=16 idx=010301 GeodesicLength=1.3367307082444608 rxn_smarts="[C:1]([N:2]1[C@:3]2([H:11])[C:4]([H:12])([H:13])[C@@:5]1([H:14])[C:6]([H:15])=[C:7]2[H:16])([H:8])([H:9])[H:10]>>[C:1](/[C:7](=[C:6](\[C@:5]1([H:14])[N:2]=[C:3]([H:11])[C:4]1([H:12])[H:13])[H:15])[H:16])([H:8])([H:9])[H:10]"
C        1.53624583      -1.16061177       0.25748926
N        0.89820177       0.75671602      -0.12727997
C       -0.04402217       1.14166743       0.81772659
C       -1.02545052       1.61714733      -0.24466004
C       -0.28205026       0.49271337      -1.01714683
C       -0.93469092      -0.80852064      -0.57275175
C       -0.48482923      -1.10554460       0.64524332
H        1.53555111      -1.85768645       1.10305906
H        1.96049068      -1.78013461      -0.54140525
H        2.39027691      -0.53841862       0.51852449
H        0.22879701       1.68010910       1.72551683
H       -0.86735896       2.61903414      -0.64331886
H       -2.07403817       1.46063381       0.00549847
H       -0.09530683       0.61264218      -2.08251711
H       -1.77327136      -1.25797473      -1.08506235
H       -0.96854489      -1.87177196       1.24108414
