11
Frame=0 idx=003397 GeodesicLength=0.0 rxn_smarts="[N:1](=[C:2](/[O:3][C:4]([C:5]#[C:6][H:11])([H:9])[H:10])[H:8])\[H:7]>>[N:1](=[C:2](/[O:3][C:6](=[C:5]=[C:4]([H:9])[H:10])[H:11])[H:8])\[H:7]"
N       -1.98688987       0.04648561      -0.23775482
C       -1.06183078       0.68137796       0.33420872
O        0.05607523       0.06745247       0.74274087
C        0.74802258      -1.30162365      -0.28986204
C        1.88450751      -0.51239983      -0.55427721
C        1.59303213       0.56515596       0.07015593
H       -2.76009849       0.66279694      -0.46199345
H       -1.05790148       1.75412061       0.55471000
H       -0.03926913      -1.41467689      -1.03043443
H        0.80186103      -2.10019298       0.44461110
H        1.82249124       1.55150379       0.42789529
11
Frame=1 idx=003397 GeodesicLength=0.07008956378012086 rxn_smarts="[N:1](=[C:2](/[O:3][C:4]([C:5]#[C:6][H:11])([H:9])[H:10])[H:8])\[H:7]>>[N:1](=[C:2](/[O:3][C:6](=[C:5]=[C:4]([H:9])[H:10])[H:11])[H:8])\[H:7]"
N       -2.00195839       0.05185106      -0.23489774
C       -1.07199417       0.68896786       0.32601698
O        0.04776068       0.07558588       0.73036115
C        0.75269836      -1.31165927      -0.29207093
C        1.88861343      -0.51687032      -0.53113283
C        1.60786287       0.57134144       0.07568805
H       -2.78611303       0.66276673      -0.43459400
H       -1.06720867       1.76137877       0.54761423
H       -0.01307394      -1.42962210      -1.05413571
H        0.79632794      -2.11166811       0.44148449
H        1.84708491       1.55792805       0.42566631
11
Frame=2 idx=003397 GeodesicLength=0.1402174324945603 rxn_smarts="[N:1](=[C:2](/[O:3][C:4]([C:5]#[C:6][H:11])([H:9])[H:10])[H:8])\[H:7]>>[N:1](=[C:2](/[O:3][C:6](=[C:5]=[C:4]([H:9])[H:10])[H:11])[H:8])\[H:7]"
N       -2.01795106       0.05727677      -0.23093338
C       -1.08255151       0.69671630       0.31763913
O        0.03923285       0.08389975       0.71726836
C        0.75738563      -1.32181640      -0.29442217
C        1.89201651      -0.52109725      -0.50767366
C        1.62270411       0.57760938       0.08132001
H       -2.81168462       0.66301392      -0.40722684
H       -1.07678640       1.76879018       0.54035864
H        0.01446807      -1.44524297      -1.07795072
H        0.79085769      -2.12326736       0.43806941
H        1.87230874       1.56411768       0.42355122
11
Frame=3 idx=003397 GeodesicLength=0.2103948185801282 rxn_smarts="[N:1](=[C:2](/[O:3][C:4]([C:5]#[C:6][H:11])([H:9])[H:10])[H:8])\[H:7]>>[N:1](=[C:2](/[O:3][C:6](=[C:5]=[C:4]([H:9])[H:10])[H:11])[H:8])\[H:7]"
N       -2.03491395       0.06274916      -0.22578066
C       -1.09352453       0.70462765       0.30898729
O        0.03046340       0.09239604       0.70337121
C        0.76211844      -1.33210302      -0.29693278
C        1.89469381      -0.52505795      -0.48390834
C        1.63755816       0.58394681       0.08707285
H       -2.83692918       0.66365983      -0.37980566
H       -1.08664778       1.77635312       0.53288614
H        0.04350288      -1.46160371      -1.10186546
H        0.78548993      -2.13498828       0.43436260
H        1.89818883       1.57002035       0.42161281
11
Frame=4 idx=003397 GeodesicLength=0.28066557474864406 rxn_smarts="[N:1](=[C:2](/[O:3][C:4]([C:5]#[C:6][H:11])([H:9])[H:10])[H:8])\[H:7]>>[N:1](=[C:2](/[O:3][C:6](=[C:5]=[C:4]([H:9])[H:10])[H:11])[H:8])\[H:7]"
N       -2.05269228       0.06858973      -0.22043929
C       -1.10484989       0.71292660       0.29920951
O        0.02129325       0.10117950       0.68825060
C        0.76700368      -1.34252802      -0.29963669
C        1.89685905      -0.52887833      -0.45942045
C        1.65257817       0.59023736       0.09326422
H       -2.86291579       0.66422732      -0.35004714
H       -1.09668194       1.78429688       0.52431938
H        0.07457275      -1.47868395      -1.12614761
H        0.77994395      -2.14682287       0.43035763
H        1.92488905       1.57545578       0.42028984
11
Frame=5 idx=003397 GeodesicLength=0.3509914536243005 rxn_smarts="[N:1](=[C:2](/[O:3][C:4]([C:5]#[C:6][H:11])([H:9])[H:10])[H:8])\[H:7]>>[N:1](=[C:2](/[O:3][C:6](=[C:5]=[C:4]([H:9])[H:10])[H:11])[H:8])\[H:7]"
N       -2.07159754       0.07441569      -0.21350263
C       -1.11666496       0.72137105       0.28907156
O        0.01183935       0.11014411       0.67214435
C        0.77197114      -1.35308696      -0.30255359
C        1.89816394      -0.53235278      -0.43473436
C        1.66756594       0.59658310       0.09958945
H       -2.88849581       0.66546293      -0.32036865
H       -1.10704593       1.79236517       0.51549732
H        0.10739954      -1.49663821      -1.15042677
H        0.77460494      -2.15876280       0.42602483
H        1.95225938       1.58049870       0.41925849
11
Frame=6 idx=003397 GeodesicLength=0.42141376855291857 rxn_smarts="[N:1](=[C:2](/[O:3][C:4]([C:5]#[C:6][H:11])([H:9])[H:10])[H:8])\[H:7]>>[N:1](=[C:2](/[O:3][C:6](=[C:5]=[C:4]([H:9])[H:10])[H:11])[H:8])\[H:7]"
N       -2.09146570       0.08061550      -0.20609410
C       -1.12890897       0.73021932       0.27758939
O        0.00192195       0.11941541       0.65454595
C        0.77712372      -1.36378539      -0.30573162
C        1.89880973      -0.53561992      -0.40939675
C        1.68267010       0.60284991       0.10641806
H       -2.91472796       0.66677403      -0.28813588
H       -1.11761956       1.80082155       0.50540781
H        0.14260507      -1.51544340      -1.17497184
H        0.76913490      -2.17079060       0.42134193
H        1.98045671       1.58494359       0.41902705
11
Frame=7 idx=003397 GeodesicLength=0.49190559759731906 rxn_smarts="[N:1](=[C:2](/[O:3][C:4]([C:5]#[C:6][H:11])([H:9])[H:10])[H:8])\[H:7]>>[N:1](=[C:2](/[O:3][C:6](=[C:5]=[C:4]([H:9])[H:10])[H:11])[H:8])\[H:7]"
N       -2.11250766       0.08692023      -0.19715694
C       -1.14170265       0.73928286       0.26527846
O       -0.00839188       0.12890473       0.63556249
C        0.78243287      -1.37462728      -0.30920163
C        1.89853926      -0.53852192      -0.38380358
C        1.69774230       0.60909378       0.11356887
H       -2.94085219       0.66879985      -0.25505525
H       -1.12852146       1.80946024       0.49465213
H        0.18007957      -1.53524231      -1.19949301
H        0.76383470      -2.18290281       0.41628275
H        2.00934714       1.58883262       0.41936572
11
Frame=8 idx=003397 GeodesicLength=0.5624712686320453 rxn_smarts="[N:1](=[C:2](/[O:3][C:4]([C:5]#[C:6][H:11])([H:9])[H:10])[H:8])\[H:7]>>[N:1](=[C:2](/[O:3][C:6](=[C:5]=[C:4]([H:9])[H:10])[H:11])[H:8])\[H:7]"
N       -2.13478180       0.09327542      -0.18630900
C       -1.15512143       0.74850411       0.25221838
O       -0.01911546       0.13857763       0.61510676
C        0.78791934      -1.38562435      -0.31301223
C        1.89725383      -0.54100018      -0.35807755
C        1.71273407       0.61529596       0.12108667
H       -2.96673732       0.67182077      -0.22149372
H       -1.13978160       1.81822477       0.48333727
H        0.21996317      -1.55612280      -1.22388095
H        0.75880170      -2.19511181       0.41081044
H        2.03886550       1.59216049       0.42021393
11
Frame=9 idx=003397 GeodesicLength=0.6330782386164542 rxn_smarts="[N:1](=[C:2](/[O:3][C:4]([C:5]#[C:6][H:11])([H:9])[H:10])[H:8])\[H:7]>>[N:1](=[C:2](/[O:3][C:6](=[C:5]=[C:4]([H:9])[H:10])[H:11])[H:8])\[H:7]"
N       -2.15826517       0.09978952      -0.17363434
C       -1.16920658       0.75791891       0.23799798
O       -0.03034382       0.14846970       0.59285370
C        0.79362787      -1.39675145      -0.31724121
C        1.89496361      -0.54308789      -0.33206090
C        1.72765635       0.62136385       0.12920002
H       -2.99267501       0.67573128      -0.18640775
H       -1.15133018       1.82717829       0.47082572
H        0.26269059      -1.57801887      -1.24817899
H        0.75387425      -2.20738052       0.40483231
H        2.06900807       1.59478718       0.42181347
11
Frame=10 idx=003397 GeodesicLength=0.7037483312622203 rxn_smarts="[N:1](=[C:2](/[O:3][C:4]([C:5]#[C:6][H:11])([H:9])[H:10])[H:8])\[H:7]>>[N:1](=[C:2](/[O:3][C:6](=[C:5]=[C:4]([H:9])[H:10])[H:11])[H:8])\[H:7]"
N       -2.18290297       0.10660674      -0.15927087
C       -1.18404815       0.76753320       0.22254100
O       -0.04213016       0.15856754       0.56856043
C        0.79958995      -1.40803906      -0.32195309
C        1.89154594      -0.54472162      -0.30589552
C        1.74244775       0.62725222       0.13807458
H       -3.01868202       0.68060861      -0.14944150
H       -1.16316422       1.83634497       0.45703568
H        0.30848461      -1.60110377      -1.27223768
H        0.74913874      -2.21971634       0.39832976
H        2.09972053       1.59666751       0.42425722
11
Frame=11 idx=003397 GeodesicLength=0.7744464729160779 rxn_smarts="[N:1](=[C:2](/[O:3][C:4]([C:5]#[C:6][H:11])([H:9])[H:10])[H:8])\[H:7]>>[N:1](=[C:2](/[O:3][C:6](=[C:5]=[C:4]([H:9])[H:10])[H:11])[H:8])\[H:7]"
N       -2.20879956       0.11345038      -0.14196604
C       -1.19980955       0.77711550       0.20637367
O       -0.05443318       0.16878095       0.54223046
C        0.80581025      -1.41946381      -0.32725803
C        1.88682510      -0.54577454      -0.27992550
C        1.75698072       0.63296373       0.14769363
H       -3.04436351       0.68706329      -0.11201340
H       -1.17529109       1.84557941       0.44205316
H        0.35738529      -1.62537942      -1.29583183
H        0.74481224      -2.23211115       0.39118887
H        2.13088330       1.59777564       0.42745500
11
Frame=12 idx=003397 GeodesicLength=0.8451747782037916 rxn_smarts="[N:1](=[C:2](/[O:3][C:4]([C:5]#[C:6][H:11])([H:9])[H:10])[H:8])\[H:7]>>[N:1](=[C:2](/[O:3][C:6](=[C:5]=[C:4]([H:9])[H:10])[H:11])[H:8])\[H:7]"
N       -2.23586420       0.12050595      -0.12190444
C       -1.21658386       0.78671650       0.18900448
O       -0.06736435       0.17918816       0.51334888
C        0.81233841      -1.43099273      -0.33332323
C        1.88078446      -0.54627929      -0.25400105
C        1.77123050       0.63837894       0.15846896
H       -3.07004086       0.69477540      -0.07237089
H       -1.18756890       1.85509983       0.42458655
H        0.40992573      -1.65076430      -1.31899115
H        0.74064570      -2.24452533       0.38323166
H        2.16249736       1.59789688       0.43195022
11
Frame=13 idx=003397 GeodesicLength=0.9159065216529794 rxn_smarts="[N:1](=[C:2](/[O:3][C:4]([C:5]#[C:6][H:11])([H:9])[H:10])[H:8])\[H:7]>>[N:1](=[C:2](/[O:3][C:6](=[C:5]=[C:4]([H:9])[H:10])[H:11])[H:8])\[H:7]"
N       -2.26402509       0.12769572      -0.09819762
C       -1.23454223       0.79614575       0.17088234
O       -0.08091154       0.18972135       0.48174710
C        0.81919940      -1.44261524      -0.34030855
C        1.87325718      -0.54614000      -0.22843604
C        1.78505646       0.64343168       0.17061107
H       -3.09547768       0.70413339      -0.03123735
H       -1.19999679       1.86485687       0.40437587
H        0.46624366      -1.67725845      -1.34147876
H        0.73677991      -2.25695495       0.37430589
H        2.19441674       1.59698387       0.43773605
11
Frame=14 idx=003397 GeodesicLength=0.9866383200134206 rxn_smarts="[N:1](=[C:2](/[O:3][C:4]([C:5]#[C:6][H:11])([H:9])[H:10])[H:8])\[H:7]>>[N:1](=[C:2](/[O:3][C:6](=[C:5]=[C:4]([H:9])[H:10])[H:11])[H:8])\[H:7]"
N       -2.29314672       0.13509977      -0.07031836
C       -1.25382560       0.80534234       0.15177075
O       -0.09513508       0.20045348       0.44683426
C        0.82645649      -1.45429541      -0.34845901
C        1.86416232      -0.54534809      -0.20326881
C        1.79833575       0.64800128       0.18454399
H       -3.12071040       0.71505186       0.01252090
H       -1.21253220       1.87501058       0.37998959
H        0.52680431      -1.70476347      -1.36321103
H        0.73303100      -2.26934691       0.36416743
H        2.22656013       1.59479456       0.44543030
11
Frame=15 idx=003397 GeodesicLength=1.0572906605298609 rxn_smarts="[N:1](=[C:2](/[O:3][C:4]([C:5]#[C:6][H:11])([H:9])[H:10])[H:8])\[H:7]>>[N:1](=[C:2](/[O:3][C:6](=[C:5]=[C:4]([H:9])[H:10])[H:11])[H:8])\[H:7]"
N       -2.32287958       0.14280861      -0.03744377
C       -1.27456994       0.81414811       0.13232407
O       -0.11000596       0.21131240       0.40830355
C        0.83414742      -1.46602568      -0.35794588
C        1.85333668      -0.54387151      -0.17879778
C        1.81088172       0.65187674       0.20074934
H       -3.14546987       0.72789262       0.05778517
H       -1.22535855       1.88540015       0.35173874
H        0.59178263      -1.73324454      -1.38381066
H        0.72945688      -2.28167031       0.35264160
H        2.25867855       1.59137341       0.45445561
11
Frame=16 idx=003397 GeodesicLength=1.1276535788761983 rxn_smarts="[N:1](=[C:2](/[O:3][C:4]([C:5]#[C:6][H:11])([H:9])[H:10])[H:8])\[H:7]>>[N:1](=[C:2](/[O:3][C:6](=[C:5]=[C:4]([H:9])[H:10])[H:11])[H:8])\[H:7]"
N       -2.35265126       0.15131374      -0.00059893
C       -1.29685971       0.82274420       0.11146419
O       -0.12566796       0.22264069       0.36460487
C        0.84236613      -1.47769087      -0.36903330
C        1.84061968      -0.54171700      -0.15507248
C        1.82235939       0.65482015       0.21971029
H       -3.16953009       0.74192268       0.10845362
H       -1.23872081       1.89621685       0.31752970
H        0.66201181      -1.76280154      -1.40292404
H        0.72547578      -2.29348809       0.33961764
H        2.29059704       1.58603919       0.46624845
