9
Frame=0 idx=005270 GeodesicLength=0.0 rxn_smarts="[n:1]1([H:6])[c:2]([H:7])[c:3]([H:8])[c:4]([H:9])[n:5]1>>[N:1]1([H:6])[C:2]([H:7])=[C:3]=[C:4]([H:9])[N:5]1[H:8]"
N       -0.90880691      -0.47147822      -0.08262105
C       -0.76786521       0.85630690       0.21442927
C        0.55718879       1.21012844       0.41073206
C        1.15834731      -0.05523011       0.21607183
N        0.22767722      -1.12450265      -0.08549897
H       -1.73694431      -0.95884135      -0.38811696
H       -1.66790225       1.45679205       0.25353378
H        0.96819639      -0.52441930      -0.95397655
H        2.17010900      -0.38875579       0.41544660
9
Frame=1 idx=005270 GeodesicLength=0.09847779259321024 rxn_smarts="[n:1]1([H:6])[c:2]([H:7])[c:3]([H:8])[c:4]([H:9])[n:5]1>>[N:1]1([H:6])[C:2]([H:7])=[C:3]=[C:4]([H:9])[N:5]1[H:8]"
N       -0.91157324      -0.47483882      -0.07697560
C       -0.76993392       0.84969887       0.22983896
C        0.56137221       1.20593444       0.37337192
C        1.15559865      -0.07001832       0.24569001
N        0.23161434      -1.11890045      -0.10682339
H       -1.74323988      -0.96574405      -0.36581656
H       -1.66479193       1.45887782       0.24060010
H        0.97219484      -0.48260689      -0.97715642
H        2.16875895      -0.40240259       0.43727099
9
Frame=2 idx=005270 GeodesicLength=0.19666530016071349 rxn_smarts="[n:1]1([H:6])[c:2]([H:7])[c:3]([H:8])[c:4]([H:9])[n:5]1>>[N:1]1([H:6])[C:2]([H:7])=[C:3]=[C:4]([H:9])[N:5]1[H:8]"
N       -0.91416004      -0.47791712      -0.07129083
C       -0.77117862       0.84458679       0.24038671
C        0.56490863       1.19914881       0.34171292
C        1.15241016      -0.08370227       0.27221843
N        0.23557594      -1.11249570      -0.12608689
H       -1.74868486      -0.97313336      -0.34296267
H       -1.66124353       1.46078569       0.22813880
H        0.97580907      -0.44193890      -0.99988377
H        2.16656324      -0.41533394       0.45776730
9
Frame=3 idx=005270 GeodesicLength=0.2950581131679857 rxn_smarts="[n:1]1([H:6])[c:2]([H:7])[c:3]([H:8])[c:4]([H:9])[n:5]1>>[N:1]1([H:6])[C:2]([H:7])=[C:3]=[C:4]([H:9])[N:5]1[H:8]"
N       -0.91654305      -0.48084839      -0.06552369
C       -0.77189872       0.84054574       0.24740427
C        0.56813431       1.19060935       0.31482969
C        1.14887864      -0.09668845       0.29651757
N        0.23958559      -1.10550161      -0.14356334
H       -1.75329926      -0.98094032      -0.31969566
H       -1.65743705       1.46264138       0.21554551
H        0.97878715      -0.40197475      -1.02251626
H        2.16379239      -0.42784293       0.47700191
9
Frame=4 idx=005270 GeodesicLength=0.3936771603949515 rxn_smarts="[n:1]1([H:6])[c:2]([H:7])[c:3]([H:8])[c:4]([H:9])[n:5]1>>[N:1]1([H:6])[C:2]([H:7])=[C:3]=[C:4]([H:9])[N:5]1[H:8]"
N       -0.91872477      -0.48369978      -0.05963003
C       -0.77226366       0.83721334       0.25211640
C        0.57121746       1.18089986       0.29173871
C        1.14510999      -0.10917802       0.31914330
N        0.24364541      -1.09813386      -0.15942270
H       -1.75709420      -0.98896920      -0.29633562
H       -1.65349738       1.46448501       0.20250298
H        0.98095842      -0.36255186      -1.04523314
H        2.16064873      -0.44006547       0.49512011
9
Frame=5 idx=005270 GeodesicLength=0.49227948409719446 rxn_smarts="[n:1]1([H:6])[c:2]([H:7])[c:3]([H:8])[c:4]([H:9])[n:5]1>>[N:1]1([H:6])[C:2]([H:7])=[C:3]=[C:4]([H:9])[N:5]1[H:8]"
N       -0.92072318      -0.48652848      -0.05361896
C       -0.77243283       0.83438997       0.25518680
C        0.57418933       1.17022587       0.27134145
C        1.14111589      -0.12131201       0.34037434
N        0.24769219      -1.09043194      -0.17352250
H       -1.76011803      -0.99717031      -0.27331840
H       -1.64911119       1.46621307       0.18917818
H        0.98219930      -0.32335504      -1.06793206
H        2.15718853      -0.45203112       0.51231113
9
Frame=6 idx=005270 GeodesicLength=0.5912385182557114 rxn_smarts="[n:1]1([H:6])[c:2]([H:7])[c:3]([H:8])[c:4]([H:9])[n:5]1>>[N:1]1([H:6])[C:2]([H:7])=[C:3]=[C:4]([H:9])[N:5]1[H:8]"
N       -0.92251326      -0.48933131      -0.04750911
C       -0.77236767       0.83191927       0.25708728
C        0.57720813       1.15894188       0.25306570
C        1.13695541      -0.13316243       0.36074981
N        0.25180289      -1.08263486      -0.18606645
H       -1.76242288      -1.00531208      -0.25081502
H       -1.64459577       1.46782965       0.17563611
H        0.98238921      -0.28451600      -1.09092548
H        2.15354392      -0.46373410       0.52877716
9
Frame=7 idx=005270 GeodesicLength=0.6905702180855889 rxn_smarts="[n:1]1([H:6])[c:2]([H:7])[c:3]([H:8])[c:4]([H:9])[n:5]1>>[N:1]1([H:6])[C:2]([H:7])=[C:3]=[C:4]([H:9])[N:5]1[H:8]"
N       -0.92407661      -0.49211300      -0.04137602
C       -0.77208158       0.82970814       0.25808627
C        0.58033934       1.14715200       0.23641335
C        1.13262322      -0.14480583       0.38057818
N        0.25602179      -1.07478434      -0.19718840
H       -1.76406270      -1.01338290      -0.22883144
H       -1.63989576       1.46930838       0.16192345
H        0.98139998      -0.24586278      -1.11435744
H        2.14973231      -0.47521966       0.54475205
9
Frame=8 idx=005270 GeodesicLength=0.7901431116004276 rxn_smarts="[n:1]1([H:6])[c:2]([H:7])[c:3]([H:8])[c:4]([H:9])[n:5]1>>[N:1]1([H:6])[C:2]([H:7])=[C:3]=[C:4]([H:9])[N:5]1[H:8]"
N       -0.92541083      -0.49486487      -0.03531317
C       -0.77156408       0.82768741       0.25834628
C        0.58363651       1.13493360       0.22106031
C        1.12811241      -0.15628685       0.40010102
N        0.26038616      -1.06694067      -0.20703904
H       -1.76504963      -1.02135673      -0.20731055
H       -1.63501815       1.47064668       0.14808873
H        0.97915623      -0.20729726      -1.13835882
H        2.14575136      -0.48652132       0.56042524
9
Frame=9 idx=005270 GeodesicLength=0.8889113901565586 rxn_smarts="[n:1]1([H:6])[c:2]([H:7])[c:3]([H:8])[c:4]([H:9])[n:5]1>>[N:1]1([H:6])[C:2]([H:7])=[C:3]=[C:4]([H:9])[N:5]1[H:8]"
N       -0.92652844      -0.49761018      -0.02918833
C       -0.77078208       0.82580613       0.25802755
C        0.58706845       1.12233726       0.20648840
C        1.12350416      -0.16755391       0.41918647
N        0.26487539      -1.05915802      -0.21578533
H       -1.76548401      -1.02918197      -0.18641359
H       -1.63001386       1.47183934       0.13433956
H        0.97575357      -0.16878156      -1.16270312
H        2.14160683      -0.49769709       0.57604839
9
Frame=10 idx=005270 GeodesicLength=0.987889741377745 rxn_smarts="[n:1]1([H:6])[c:2]([H:7])[c:3]([H:8])[c:4]([H:9])[n:5]1>>[N:1]1([H:6])[C:2]([H:7])=[C:3]=[C:4]([H:9])[N:5]1[H:8]"
N       -0.92737651      -0.50034752      -0.02319655
C       -0.76972623       0.82402315       0.25719237
C        0.59077714       1.10935106       0.19262814
C        1.11869263      -0.17873429       0.43834564
N        0.26961354      -1.05143776      -0.22339175
H       -1.76529835      -1.03688359      -0.16604604
H       -1.62475324       1.47287550       0.12059570
H        0.97078635      -0.13012291      -1.18788493
H        2.13728468      -0.50872365       0.59175743
9
Frame=11 idx=005270 GeodesicLength=1.0870079867728142 rxn_smarts="[n:1]1([H:6])[c:2]([H:7])[c:3]([H:8])[c:4]([H:9])[n:5]1>>[N:1]1([H:6])[C:2]([H:7])=[C:3]=[C:4]([H:9])[N:5]1[H:8]"
N       -0.92791853      -0.50309623      -0.01732722
C       -0.76834315       0.82230131       0.25591601
C        0.59481167       1.09594641       0.17920863
C        1.11369403      -0.18982366       0.45768967
N        0.27466376      -1.04384909      -0.22982285
H       -1.76455517      -1.04442555      -0.14635712
H       -1.61917678       1.47373819       0.10695731
H        0.96402496      -0.09120708      -1.21403025
H        2.13279921      -0.51958429       0.60776582
9
Frame=12 idx=005270 GeodesicLength=1.186213014552066 rxn_smarts="[n:1]1([H:6])[c:2]([H:7])[c:3]([H:8])[c:4]([H:9])[n:5]1>>[N:1]1([H:6])[C:2]([H:7])=[C:3]=[C:4]([H:9])[N:5]1[H:8]"
N       -0.92812213      -0.50586171      -0.01164697
C       -0.76656936       0.82060689       0.25423997
C        0.59924025       1.08207998       0.16602829
C        1.10848509      -0.20083776       0.47736954
N        0.28010229      -1.03641618      -0.23516029
H       -1.76322003      -1.05180446      -0.12733893
H       -1.61324227       1.47444133       0.09348944
H        0.95521911      -0.05191729      -1.24130241
H        2.12810705      -0.53029078       0.62432135
9
Frame=13 idx=005270 GeodesicLength=1.2855599778131106 rxn_smarts="[n:1]1([H:6])[c:2]([H:7])[c:3]([H:8])[c:4]([H:9])[n:5]1>>[N:1]1([H:6])[C:2]([H:7])=[C:3]=[C:4]([H:9])[N:5]1[H:8]"
N       -0.92792715      -0.50866732      -0.00614963
C       -0.76432181       0.81891233       0.25220653
C        0.60414803       1.06768155       0.15280509
C        1.10306657      -0.21176166       0.49749873
N        0.28602273      -1.02919987      -0.23935689
H       -1.76133845      -1.05900334      -0.10916414
H       -1.60686052       1.47497274       0.08031493
H        0.94401500      -0.01210502      -1.26986814
H        2.12319560      -0.54082940       0.64171351
9
Frame=14 idx=005270 GeodesicLength=1.3847917963940526 rxn_smarts="[n:1]1([H:6])[c:2]([H:7])[c:3]([H:8])[c:4]([H:9])[n:5]1>>[N:1]1([H:6])[C:2]([H:7])=[C:3]=[C:4]([H:9])[N:5]1[H:8]"
N       -0.92730749      -0.51152077      -0.00090517
C       -0.76153841       0.81718568       0.24984355
C        0.60959041       1.05268973       0.13942087
C        1.09743229      -0.22258981       0.51811837
N        0.29248244      -1.02224378      -0.24249595
H       -1.75887364      -1.06601710      -0.09179682
H       -1.59999772       1.47536725       0.06744740
H        0.93019023       0.02835370      -1.29978753
H        2.11802189      -0.55122490       0.66015528
9
Frame=15 idx=005270 GeodesicLength=1.4838394537829676 rxn_smarts="[n:1]1([H:6])[c:2]([H:7])[c:3]([H:8])[c:4]([H:9])[n:5]1>>[N:1]1([H:6])[C:2]([H:7])=[C:3]=[C:4]([H:9])[N:5]1[H:8]"
N       -0.92621827      -0.51444004       0.00405862
C       -0.75813722       0.81539918       0.24717366
C        0.61563815       1.03701720       0.12566179
C        1.09158512      -0.23329805       0.53926887
N        0.29954881      -1.01562836      -0.24454836
H       -1.75585708      -1.07283009      -0.07534562
H       -1.59257399       1.47563453       0.05496939
H        0.91345461       0.06961121      -1.33112076
H        2.11255986      -0.56146558       0.67988240
9
Frame=16 idx=005270 GeodesicLength=1.58269495983343 rxn_smarts="[n:1]1([H:6])[c:2]([H:7])[c:3]([H:8])[c:4]([H:9])[n:5]1>>[N:1]1([H:6])[C:2]([H:7])=[C:3]=[C:4]([H:9])[N:5]1[H:8]"
N       -0.92460777      -0.51744937       0.00872622
C       -0.75402219       0.81352530       0.24421256
C        0.62237297       1.02055406       0.11130489
C        1.08552218      -0.24385410       0.56098558
N        0.30729614      -1.00944123      -0.24547869
H       -1.75232313      -1.07943013      -0.05993937
H       -1.58450110       1.47579574       0.04296342
H        0.89348621       0.11183198      -1.36391484
H        2.10677667      -0.57153226       0.70114024
