19
Frame=0 idx=006357 GeodesicLength=0.0 rxn_smarts="[C:1]([C:2]([C@@:3]([O:4][H:14])([C:5]([C:6]([O:7][H:19])([H:17])[H:18])([H:15])[H:16])[H:13])([H:11])[H:12])([H:8])([H:9])[H:10]>>[C:1]([C:2]([C:3](=[C:5]([H:15])[H:16])[H:13])([H:11])[H:12])([H:8])([H:9])[H:10].[C:6](=[O:7])([H:17])[H:18].[O:4]([H:14])[H:19]"
C        2.37456769      -0.21543669       0.64438543
C        1.25467610       0.25905959      -0.26687959
C        0.10601666      -0.66568996      -0.43493620
O       -0.68962083      -0.40295029       1.57844837
C       -0.94619443      -0.30551435      -1.29881382
C       -2.22439251       0.57423358      -0.41610179
O       -1.73111622       1.43579613       0.41502130
H        3.17698187       0.52139786       0.68580672
H        2.02974407      -0.38414934       1.66496963
H        2.80242073      -1.15291762       0.28332316
H        1.65004230       0.45105711      -1.27119982
H        0.82602928       1.22044583       0.05087577
H        0.21046559      -1.69244776      -0.10885340
H       -0.01527130      -0.17632525       2.22083509
H       -1.47844547      -1.13720507      -1.75103272
H       -0.66594768       0.47093694      -2.00532862
H       -2.75399692      -0.28828162       0.01778191
H       -2.77545075       0.97969641      -1.27613591
H       -1.15050813       0.50829441       1.26783442
19
Frame=1 idx=006357 GeodesicLength=0.11787470151452926 rxn_smarts="[C:1]([C:2]([C@@:3]([O:4][H:14])([C:5]([C:6]([O:7][H:19])([H:17])[H:18])([H:15])[H:16])[H:13])([H:11])[H:12])([H:8])([H:9])[H:10]>>[C:1]([C:2]([C:3](=[C:5]([H:15])[H:16])[H:13])([H:11])[H:12])([H:8])([H:9])[H:10].[C:6](=[O:7])([H:17])[H:18].[O:4]([H:14])[H:19]"
C        2.38342245      -0.22827362       0.64104500
C        1.27059679       0.25514157      -0.27458898
C        0.10672816      -0.65479293      -0.42888536
O       -0.67740156      -0.39531595       1.59364727
C       -0.93691238      -0.29286748      -1.30394636
C       -2.24711669       0.56030891      -0.41156349
O       -1.77355858       1.42580564       0.42860008
H        3.19443264       0.49919627       0.68149706
H        2.03344033      -0.39017904       1.66095605
H        2.79955123      -1.17312779       0.28528378
H        1.67206189       0.42998387      -1.27960724
H        0.85591148       1.22494324       0.03503818
H        0.21248650      -1.68872086      -0.12375213
H       -0.02491004      -0.11473895       2.23720919
H       -1.44765014      -1.12353888      -1.78248221
H       -0.66474697       0.50074182      -1.99473736
H       -2.76209202      -0.31427385       0.01596387
H       -2.80363680       0.96227005      -1.26964031
H       -1.19060628       0.51743797       1.28996295
19
Frame=2 idx=006357 GeodesicLength=0.23583399398606403 rxn_smarts="[C:1]([C:2]([C@@:3]([O:4][H:14])([C:5]([C:6]([O:7][H:19])([H:17])[H:18])([H:15])[H:16])[H:13])([H:11])[H:12])([H:8])([H:9])[H:10]>>[C:1]([C:2]([C:3](=[C:5]([H:15])[H:16])[H:13])([H:11])[H:12])([H:8])([H:9])[H:10].[C:6](=[O:7])([H:17])[H:18].[O:4]([H:14])[H:19]"
C        2.39237223      -0.24174274       0.63783889
C        1.28741031       0.25069557      -0.28291817
C        0.10761515      -0.64300221      -0.42275082
O       -0.66383727      -0.38538284       1.60932154
C       -0.92731210      -0.27866408      -1.30875960
C       -2.27046830       0.54497215      -0.40669266
O       -1.81807906       1.41431171       0.44279617
H        3.21267318       0.47538363       0.67664456
H        2.03706673      -0.39516778       1.65720016
H        2.79571711      -1.19459393       0.28848292
H        1.69481651       0.40697720      -1.28858238
H        0.88804892       1.22939092       0.01772189
H        0.21393058      -1.68386599      -0.13894207
H       -0.03545347      -0.05118257       2.25119565
H       -1.41534120      -1.10708987      -1.81450166
H       -0.66389717       0.53277223      -1.98238972
H       -2.76949870      -0.34207545       0.01426055
H       -2.83282364       0.94280750      -1.26280592
H       -1.23293982       0.52545655       1.31288069
19
Frame=3 idx=006357 GeodesicLength=0.3538392001089131 rxn_smarts="[C:1]([C:2]([C@@:3]([O:4][H:14])([C:5]([C:6]([O:7][H:19])([H:17])[H:18])([H:15])[H:16])[H:13])([H:11])[H:12])([H:8])([H:9])[H:10]>>[C:1]([C:2]([C:3](=[C:5]([H:15])[H:16])[H:13])([H:11])[H:12])([H:8])([H:9])[H:10].[C:6](=[O:7])([H:17])[H:18].[O:4]([H:14])[H:19]"
C        2.40142910      -0.25587275       0.63473902
C        1.30514294       0.24565178      -0.29189783
C        0.10871555      -0.63026220      -0.41652265
O       -0.64897981      -0.37290900       1.62542239
C       -0.91738897      -0.26277119      -1.31317958
C       -2.29439778       0.52812507      -0.40150375
O       -1.86476189       1.40106783       0.45769684
H        3.23170760       0.44986654       0.67120395
H        2.04069796      -0.39907380       1.65366183
H        2.79085231      -1.21731034       0.29293200
H        1.71823604       0.38189725      -1.29813033
H        0.92258928       1.23368610      -0.00117497
H        0.21471488      -1.67780001      -0.15431712
H       -0.04699559       0.01457880       2.26258876
H       -1.38150542      -1.08754656      -1.84699649
H       -0.66342631       0.56714047      -1.96805596
H       -2.77613090      -0.37175239       0.01257375
H       -2.86288086       0.92122405      -1.25567805
H       -1.27761815       0.53206034       1.33663820
19
Frame=4 idx=006357 GeodesicLength=0.47184210739994664 rxn_smarts="[C:1]([C:2]([C@@:3]([O:4][H:14])([C:5]([C:6]([O:7][H:19])([H:17])[H:18])([H:15])[H:16])[H:13])([H:11])[H:12])([H:8])([H:9])[H:10]>>[C:1]([C:2]([C:3](=[C:5]([H:15])[H:16])[H:13])([H:11])[H:12])([H:8])([H:9])[H:10].[C:6](=[O:7])([H:17])[H:18].[O:4]([H:14])[H:19]"
C        2.41059001      -0.27068725       0.63172710
C        1.32381453       0.23993097      -0.30156601
C        0.11007560      -0.61652166      -0.41020234
O       -0.63288458      -0.35763468       1.64188619
C       -0.90714431      -0.24504481      -1.31712370
C       -2.31883479       0.50966362      -0.39600089
O       -1.91366814       1.38579653       0.47339811
H        3.25152038       0.42254907       0.66514273
H        2.04439135      -0.40183867       1.65030144
H        2.78487608      -1.24125897       0.29867048
H        1.74223855       0.35458554      -1.30825695
H        0.95967267       1.23770226      -0.02178000
H        0.21475746      -1.67044942      -0.16977903
H       -0.05967378       0.08280232       2.27112156
H       -1.34614890      -1.06456380      -1.87986352
H       -0.66337100       0.60396334      -1.95147434
H       -2.78187472      -0.40336984       0.01081297
H       -2.89366068       0.89743739      -1.24828594
H       -1.32467573       0.53693806       1.36127216
19
Frame=5 idx=006357 GeodesicLength=0.5897680571670616 rxn_smarts="[C:1]([C:2]([C@@:3]([O:4][H:14])([C:5]([C:6]([O:7][H:19])([H:17])[H:18])([H:15])[H:16])[H:13])([H:11])[H:12])([H:8])([H:9])[H:10]>>[C:1]([C:2]([C:3](=[C:5]([H:15])[H:16])[H:13])([H:11])[H:12])([H:8])([H:9])[H:10].[C:6](=[O:7])([H:17])[H:18].[O:4]([H:14])[H:19]"
C        2.41982461      -0.28618151       0.62879602
C        1.34342899       0.23344793      -0.31197038
C        0.11175114      -0.60174728      -0.40382114
O       -0.61559453      -0.33930164       1.65861042
C       -0.89658989      -0.22535063      -1.32050496
C       -2.34366567       0.48950521      -0.39018307
O       -1.96477787       1.36820386       0.48999555
H        3.27205522       0.39336680       0.65845095
H        2.04817494      -0.40336860       1.64707605
H        2.77769464      -1.26638066       0.30576786
H        1.76672528       0.32487293      -1.31896449
H        0.99941185       1.24128778      -0.04425009
H        0.21398733      -1.66176396      -0.18526962
H       -0.07370485       0.15368240       2.27652852
H       -1.30934073      -1.03779934      -1.91293571
H       -0.66377527       0.64331859      -1.93237482
H       -2.78659125      -0.43695304       0.00889601
H       -2.92497074       0.87140724      -1.24064857
H       -1.37404319       0.53975392       1.38680145
19
Frame=6 idx=006357 GeodesicLength=0.707553522380647 rxn_smarts="[C:1]([C:2]([C@@:3]([O:4][H:14])([C:5]([C:6]([O:7][H:19])([H:17])[H:18])([H:15])[H:16])[H:13])([H:11])[H:12])([H:8])([H:9])[H:10]>>[C:1]([C:2]([C:3](=[C:5]([H:15])[H:16])[H:13])([H:11])[H:12])([H:8])([H:9])[H:10].[C:6](=[O:7])([H:17])[H:18].[O:4]([H:14])[H:19]"
C        2.42909017      -0.30234802       0.62594870
C        1.36397163       0.22610747      -0.32315524
C        0.11380400      -0.58591888      -0.39740554
O       -0.59718152      -0.31764424       1.67549317
C       -0.88574094      -0.20354646      -1.32322386
C       -2.36875686       0.46756083      -0.38403927
O       -2.01805046       1.34797782       0.50758019
H        3.29323180       0.36225668       0.65113442
H        2.05206852      -0.40356752       1.64394463
H        2.76920524      -1.29259707       0.31431140
H        1.79156547       0.29258289      -1.33024691
H        1.04188935       1.24425382      -0.06874789
H        0.21234105      -1.65170819      -0.20072420
H       -0.08933800       0.22740801       2.27843292
H       -1.27117261      -1.00686746      -1.94606701
H       -0.66467609       0.68528136      -1.91044298
H       -2.79011120      -0.47252511       0.00675471
H       -2.95660440       0.84308438      -1.23277328
H       -1.42553515       0.54020967       1.41322602
19
Frame=7 idx=006357 GeodesicLength=0.8251060973043974 rxn_smarts="[C:1]([C:2]([C@@:3]([O:4][H:14])([C:5]([C:6]([O:7][H:19])([H:17])[H:18])([H:15])[H:16])[H:13])([H:11])[H:12])([H:8])([H:9])[H:10]>>[C:1]([C:2]([C:3](=[C:5]([H:15])[H:16])[H:13])([H:11])[H:12])([H:8])([H:9])[H:10].[C:6](=[O:7])([H:17])[H:18].[O:4]([H:14])[H:19]"
C        2.43831558      -0.31913539       0.62319737
C        1.38539318       0.21781554      -0.33516174
C        0.11630012      -0.56905285      -0.39100734
O       -0.57772690      -0.29243053       1.69238729
C       -0.87462554      -0.17952563      -1.32517785
C       -2.39391885       0.44378826      -0.37755830
O       -2.07332115       1.32482891       0.52621213
H        3.31491564       0.32921978       0.64322808
H        2.05606593      -0.40231373       1.64085601
H        2.75930989      -1.31976131       0.32440212
H        1.81659131       0.25755541      -1.34207707
H        1.08711694       1.24638107      -0.09544201
H        0.20978241      -1.64028535      -0.21613082
H       -0.10691242       0.30399048       2.27648686
H       -1.23181926      -0.97142762      -1.97903332
H       -0.66610796       0.72984106      -1.88537580
H       -2.79224549      -0.51002937       0.00434319
H       -2.98829713       0.81248154      -1.22466443
H       -1.47881631       0.53805972       1.44051561
19
Frame=8 idx=006357 GeodesicLength=0.9423302391342981 rxn_smarts="[C:1]([C:2]([C@@:3]([O:4][H:14])([C:5]([C:6]([O:7][H:19])([H:17])[H:18])([H:15])[H:16])[H:13])([H:11])[H:12])([H:8])([H:9])[H:10]>>[C:1]([C:2]([C:3](=[C:5]([H:15])[H:16])[H:13])([H:11])[H:12])([H:8])([H:9])[H:10].[C:6](=[O:7])([H:17])[H:18].[O:4]([H:14])[H:19]"
C        2.44741489      -0.33645446       0.62056045
C        1.40760052       0.20848419      -0.34801462
C        0.11930364      -0.55121160      -0.38468402
O       -0.55734563      -0.26348547       1.70912320
C       -0.86328328      -0.15322955      -1.32626359
C       -2.41891672       0.41819683      -0.37073138
O       -2.13030841       1.29852169       0.54590316
H        3.33692555       0.29432933       0.63479590
H        2.06015260      -0.39949214       1.63774968
H        2.74793941      -1.34765735       0.33613016
H        1.84158323       0.21967197      -1.35439874
H        1.13501031       1.24741921      -0.12447845
H        0.20630904      -1.62754427      -0.23150943
H       -0.12682687       0.38324217       2.27035905
H       -1.19152326      -0.93119857      -2.01157633
H       -0.66809107       0.77688920      -1.85689402
H       -2.79279851      -0.54932471       0.00164736
H       -3.01973895       0.77966836      -1.21633007
H       -1.53340649       0.53317518       1.46861167
19
Frame=9 idx=006357 GeodesicLength=1.0591354630381005 rxn_smarts="[C:1]([C:2]([C@@:3]([O:4][H:14])([C:5]([C:6]([O:7][H:19])([H:17])[H:18])([H:15])[H:16])[H:13])([H:11])[H:12])([H:8])([H:9])[H:10]>>[C:1]([C:2]([C:3](=[C:5]([H:15])[H:16])[H:13])([H:11])[H:12])([H:8])([H:9])[H:10].[C:6](=[O:7])([H:17])[H:18].[O:4]([H:14])[H:19]"
C        2.45628909      -0.35416076       0.61805163
C        1.43044794       0.19804027      -0.36171631
C        0.12287358      -0.53251751      -0.37850365
O       -0.53617013      -0.23071787       1.72550763
C       -0.85175911      -0.12468400      -1.32638793
C       -2.44346801       0.39088581      -0.36356402
O       -2.18856821       1.26891840       0.56660156
H        3.35902604       0.25776722       0.62593284
H        2.06430559      -0.39500178       1.63454477
H        2.73507585      -1.37597669       0.34954014
H        1.86626912       0.17888034      -1.36712056
H        1.18535744       1.24709220      -0.15595521
H        0.20196575      -1.61358665      -0.24693097
H       -0.14952667       0.46470685       2.25984432
H       -1.15060972      -0.88603706      -2.04336901
H       -0.67061213       0.82616246      -1.82479290
H       -2.79160119      -0.59014381      -0.00132351
H       -3.05056330       0.74482750      -1.20779662
H       -1.58873192       0.52554510       1.49743780
19
Frame=10 idx=006357 GeodesicLength=1.1754334954754406 rxn_smarts="[C:1]([C:2]([C@@:3]([O:4][H:14])([C:5]([C:6]([O:7][H:19])([H:17])[H:18])([H:15])[H:16])[H:13])([H:11])[H:12])([H:8])([H:9])[H:10]>>[C:1]([C:2]([C:3](=[C:5]([H:15])[H:16])[H:13])([H:11])[H:12])([H:8])([H:9])[H:10].[C:6](=[O:7])([H:17])[H:18].[O:4]([H:14])[H:19]"
C        2.46483662      -0.37207396       0.61567094
C        1.45374351       0.18643185      -0.37624973
C        0.12705580      -0.51314682      -0.37251463
O       -0.51435898      -0.19412461       1.74134932
C       -0.84008991      -0.09398728      -1.32545641
C       -2.46725741       0.36202717      -0.35607293
O       -2.24753676       1.23597686       0.58820138
H        3.38095030       0.21980511       0.61673029
H        2.06850152      -0.38876651       1.63114136
H        2.72074558      -1.40435028       0.36463290
H        1.89033181       0.13520280      -1.38012619
H        1.23782783       1.24511225      -0.18992705
H        0.19683350      -1.59855990      -0.26246703
H       -0.17546466       0.54771208       2.24481741
H       -1.10944608      -0.83591002      -2.07406409
H       -0.67359714       0.87726853      -1.78892898
H       -2.78851981      -0.63212916      -0.00454835
H       -3.08035375       0.70823685      -1.19910092
H       -1.64420195       0.51527506       1.52691271
19
Frame=11 idx=006357 GeodesicLength=1.291179930122003 rxn_smarts="[C:1]([C:2]([C@@:3]([O:4][H:14])([C:5]([C:6]([O:7][H:19])([H:17])[H:18])([H:15])[H:16])[H:13])([H:11])[H:12])([H:8])([H:9])[H:10]>>[C:1]([C:2]([C:3](=[C:5]([H:15])[H:16])[H:13])([H:11])[H:12])([H:8])([H:9])[H:10].[C:6](=[O:7])([H:17])[H:18].[O:4]([H:14])[H:19]"
C        2.47297911      -0.38997466       0.61340801
C        1.47726000       0.17363414      -0.39156760
C        0.13187595      -0.49332856      -0.36676240
O       -0.49207955      -0.15378607       1.75645498
C       -0.82831310      -0.06133579      -1.32341044
C       -2.48997374       0.33189017      -0.34829709
O       -2.30653429       1.19981100       0.61052726
H        3.40243044       0.18081880       0.60729687
H        2.07273546      -0.38075529       1.62742509
H        2.70506778      -1.43235668       0.38134328
H        1.91343032       0.08875206      -1.39326496
H        1.29196626       1.24120627      -0.22637571
H        0.19103156      -1.58266060      -0.27822291
H       -0.20505325       0.63132157       2.22537807
H       -1.06842387      -0.78098918      -2.10329724
H       -0.67694053       0.92967533      -1.74929557
H       -2.78349613      -0.67481737      -0.00798568
H       -3.10869954       0.67029387      -1.19030639
H       -1.69926286       0.50260099       1.55695242
19
Frame=12 idx=006357 GeodesicLength=1.406365249565825 rxn_smarts="[C:1]([C:2]([C@@:3]([O:4][H:14])([C:5]([C:6]([O:7][H:19])([H:17])[H:18])([H:15])[H:16])[H:13])([H:11])[H:12])([H:8])([H:9])[H:10]>>[C:1]([C:2]([C:3](=[C:5]([H:15])[H:16])[H:13])([H:11])[H:12])([H:8])([H:9])[H:10].[C:6](=[O:7])([H:17])[H:18].[O:4]([H:14])[H:19]"
C        2.48066519      -0.40762703       0.61123208
C        1.50075447       0.15965141      -0.40760388
C        0.13733729      -0.47332144      -0.36127232
O       -0.46949855      -0.10984491       1.77064657
C       -0.81645039      -0.02700198      -1.32022002
C       -2.51133191       0.30081392      -0.34029330
O       -2.36482733       1.16067016       0.63336043
H        3.42322069       0.14125334       0.59772732
H        2.07701386      -0.37098335       1.62326786
H        2.68823355      -1.45956037       0.39954023
H        1.93522770       0.03972133      -1.40637155
H        1.34723554       1.23513245      -0.26522333
H        0.18469651      -1.56610993      -0.29429530
H       -0.23863252       0.71444024       2.20184223
H       -1.02790896      -0.72161961      -2.13071800
H       -0.68048453       0.98275204      -1.70601439
H       -2.77655898      -0.71769020      -0.01159358
H       -3.13521450       0.63149013      -1.18149127
H       -1.75347714       0.48783380       1.58748020
19
Frame=13 idx=006357 GeodesicLength=1.521016733174884 rxn_smarts="[C:1]([C:2]([C@@:3]([O:4][H:14])([C:5]([C:6]([O:7][H:19])([H:17])[H:18])([H:15])[H:16])[H:13])([H:11])[H:12])([H:8])([H:9])[H:10]>>[C:1]([C:2]([C:3](=[C:5]([H:15])[H:16])[H:13])([H:11])[H:12])([H:8])([H:9])[H:10].[C:6](=[O:7])([H:17])[H:18].[O:4]([H:14])[H:19]"
C        2.48787478      -0.42483843       0.60910042
C        1.52399067       0.14449266      -0.42426935
C        0.14341919      -0.45337342      -0.35603235
O       -0.44677257      -0.06241538       1.78377892
C       -0.80449865       0.00874064      -1.31586496
C       -2.53111747       0.26911533      -0.33212316
O       -2.42177314       1.11887910       0.65644939
H        3.44311683       0.10153622       0.58810801
H        2.08135257      -0.35956173       1.61853575
H        2.67048625      -1.48558068       0.41903674
H        1.95540316      -0.01164918      -1.41926292
H        1.40308099       1.22667042      -0.30633611
H        0.17794175      -1.54911092      -0.31074542
H       -0.27636630       0.79602281       2.17453522
H       -0.98813951      -0.65816471      -2.15606648
H       -0.68404642       1.03590748      -1.65921818
H       -2.76777399      -0.76029245      -0.01531062
H       -3.15960993       0.59225858      -1.17273810
H       -1.80656820       0.47136368       1.61842320
19
Frame=14 idx=006357 GeodesicLength=1.6351897139266327 rxn_smarts="[C:1]([C:2]([C@@:3]([O:4][H:14])([C:5]([C:6]([O:7][H:19])([H:17])[H:18])([H:15])[H:16])[H:13])([H:11])[H:12])([H:8])([H:9])[H:10]>>[C:1]([C:2]([C:3](=[C:5]([H:15])[H:16])[H:13])([H:11])[H:12])([H:8])([H:9])[H:10].[C:6](=[O:7])([H:17])[H:18].[O:4]([H:14])[H:19]"
C        2.49460518      -0.44137209       0.60694461
C        1.54674987       0.12820701      -0.44150284
C        0.15008908      -0.43373291      -0.35103717
O       -0.42400746      -0.01167793       1.79570519
C       -0.79242729       0.04553462      -1.31037857
C       -2.54914520       0.23721282      -0.32386906
O       -2.47667968       1.07486341       0.67958305
H        3.46196398       0.06215146       0.57845387
H        2.08576536      -0.34650111       1.61309675
H        2.65207208      -1.51003868       0.43964808
H        1.97369814      -0.06509416      -1.43179835
H        1.45893684       1.21567314      -0.34958327
H        0.17089307      -1.53186620      -0.32761328
H       -0.31840981       0.87488408       2.14422833
H       -0.94935540      -0.59124437      -2.17904405
H       -0.68736281       1.08843168      -1.60928825
H       -2.75735045      -0.80210593      -0.01915375
H       -3.18160258       0.55324312      -1.16412938
H       -1.85843291       0.45343205       1.64973808
19
Frame=15 idx=006357 GeodesicLength=1.7489662963315689 rxn_smarts="[C:1]([C:2]([C@@:3]([O:4][H:14])([C:5]([C:6]([O:7][H:19])([H:17])[H:18])([H:15])[H:16])[H:13])([H:11])[H:12])([H:8])([H:9])[H:10]>>[C:1]([C:2]([C:3](=[C:5]([H:15])[H:16])[H:13])([H:11])[H:12])([H:8])([H:9])[H:10].[C:6](=[O:7])([H:17])[H:18].[O:4]([H:14])[H:19]"
C        2.50089522      -0.45704407       0.60470082
C        1.56885128       0.11083673      -0.45923029
C        0.15729494      -0.41459675      -0.34625896
O       -0.40129466       0.04224396       1.80627847
C       -0.78019704       0.08306082      -1.30381954
C       -2.56533182       0.20547009      -0.31561013
O       -2.52902000       1.02908967       0.70254150
H        3.47968543       0.02351327       0.56877046
H        2.09028437      -0.33186003       1.60682393
H        2.63326929      -1.53263823       0.46119491
H        1.98990782      -0.12035712      -1.44382183
H        1.51429189       1.20202551      -0.39481707
H        0.16363656      -1.51452880      -0.34490190
H       -0.36472113       0.94994603       2.11172970
H       -0.91164359      -0.52146402      -2.19946779
H       -0.69020486       1.13973649      -1.55662305
H       -2.74552064      -0.84271581      -0.02312399
H       -3.20106124       0.51498079      -1.15573274
H       -1.90912182       0.43430147       1.68136751
19
Frame=16 idx=006357 GeodesicLength=1.8624460645950185 rxn_smarts="[C:1]([C:2]([C@@:3]([O:4][H:14])([C:5]([C:6]([O:7][H:19])([H:17])[H:18])([H:15])[H:16])[H:13])([H:11])[H:12])([H:8])([H:9])[H:10]>>[C:1]([C:2]([C:3](=[C:5]([H:15])[H:16])[H:13])([H:11])[H:12])([H:8])([H:9])[H:10].[C:6](=[O:7])([H:17])[H:18].[O:4]([H:14])[H:19]"
C        2.50679688      -0.47171581       0.60230891
C        1.59014769       0.09242419      -0.47738423
C        0.16497320      -0.39611092      -0.34165710
O       -0.37869628       0.09928284       1.81537598
C       -0.76775179       0.12104000      -1.29627243
C       -2.57966300       0.17419452      -0.30742446
O       -2.57840575       0.98202617       0.72513424
H        3.49625326      -0.01402605       0.55904647
H        2.09493494      -0.31571952       1.59961230
H        2.61434219      -1.55316597       0.48350553
H        2.00387656      -0.17719203      -1.45519879
H        1.56870652       1.18565519      -0.44189005
H        0.15621335      -1.49721064      -0.36256979
H       -0.41509489       1.02029462       2.07788356
H       -0.87496999      -0.44940573      -2.21724473
H       -0.69235527       1.18934465      -1.50165771
H       -2.73253359      -0.88181813      -0.02723044
H       -3.21795201       0.47792905      -1.14761269
H       -1.95882201       0.41417357       1.71327540
