10
Frame=0 idx=002468 GeodesicLength=0.0 rxn_smarts="[O:1]=[C:2]1[C:3]([H:6])([H:7])[C:4]([H:8])([H:9])[N:5]1[H:10]>>[C:3](=[C:4]([H:8])[H:9])([H:6])[H:7].[O:1]=[C:2]=[N:5][H:10]"
O        2.13659116       0.47457446      -0.10736867
C        1.11342371      -0.11630558      -0.14003476
C       -0.35258757       0.97688189       0.29062088
C       -1.19173722      -0.09770380       0.08485840
N        0.57347167      -1.27195852      -0.36790290
H       -0.12118338       1.28003517       1.30408348
H       -0.28699665       1.74930603      -0.46527451
H       -1.49401541      -0.74791339       0.89358254
H       -1.65691467      -0.28023029      -0.87380759
H        1.27994836      -1.96668597      -0.61875687
10
Frame=1 idx=002468 GeodesicLength=0.06876080475741642 rxn_smarts="[O:1]=[C:2]1[C:3]([H:6])([H:7])[C:4]([H:8])([H:9])[N:5]1[H:10]>>[C:3](=[C:4]([H:8])[H:9])([H:6])[H:7].[O:1]=[C:2]=[N:5][H:10]"
O        2.16791722       0.46956087      -0.10903437
C        1.14185699      -0.11675541      -0.11987722
C       -0.35633663       0.97711982       0.28751221
C       -1.18670099      -0.10864005       0.08335106
N        0.59239956      -1.27599217      -0.29607924
H       -0.14341877       1.29494273       1.30084383
H       -0.29653184       1.74682951      -0.47196077
H       -1.51357527      -0.73629566       0.90076981
H       -1.64643799      -0.29752103      -0.87710626
H        1.24082774      -1.95324862      -0.69841906
10
Frame=2 idx=002468 GeodesicLength=0.13882809110261218 rxn_smarts="[O:1]=[C:2]1[C:3]([H:6])([H:7])[C:4]([H:8])([H:9])[N:5]1[H:10]>>[C:3](=[C:4]([H:8])[H:9])([H:6])[H:7].[O:1]=[C:2]=[N:5][H:10]"
O        2.20138122       0.46581465      -0.11348365
C        1.17284835      -0.11573425      -0.09929849
C       -0.35935261       0.97598727       0.28475912
C       -1.17885351      -0.12213598       0.08100836
N        0.61588194      -1.27630418      -0.23255058
H       -0.16593813       1.30757031       1.29789938
H       -0.30644849       1.74364536      -0.47762038
H       -1.52899457      -0.72938392       0.90466557
H       -1.63428096      -0.31535159      -0.88105073
H        1.18375677      -1.93410767      -0.76432859
10
Frame=3 idx=002468 GeodesicLength=0.21040954336886686 rxn_smarts="[O:1]=[C:2]1[C:3]([H:6])([H:7])[C:4]([H:8])([H:9])[N:5]1[H:10]>>[C:3](=[C:4]([H:8])[H:9])([H:6])[H:7].[O:1]=[C:2]=[N:5][H:10]"
O        2.23609794       0.46205258      -0.12055382
C        1.20518838      -0.11367498      -0.08018779
C       -0.36180042       0.97381142       0.28256437
C       -1.16952035      -0.13688666       0.07797568
N        0.64085140      -1.27319254      -0.18131497
H       -0.18836310       1.31754455       1.29557472
H       -0.31689709       1.74053179      -0.48158135
H       -1.54083702      -0.72667946       0.90550684
H       -1.62310991      -0.33117828      -0.88516034
H        1.11839018      -1.91232842      -0.81282335
10
Frame=4 idx=002468 GeodesicLength=0.28290070956946456 rxn_smarts="[O:1]=[C:2]1[C:3]([H:6])([H:7])[C:4]([H:8])([H:9])[N:5]1[H:10]>>[C:3](=[C:4]([H:8])[H:9])([H:6])[H:7].[O:1]=[C:2]=[N:5][H:10]"
O        2.27151564       0.45724770      -0.12914653
C        1.23777281      -0.11089726      -0.06428475
C       -0.36401333       0.97108583       0.28090338
C       -1.15993954      -0.15181719       0.07445285
N        0.66528295      -1.26759957      -0.14161925
H       -0.21022447       1.32501557       1.29388562
H       -0.32813914       1.73815696      -0.48369951
H       -1.55023736      -0.72697686       0.90404879
H       -1.61450066      -0.34390967      -0.88912725
H        1.05248309      -1.89030552      -0.84541335
10
Frame=5 idx=002468 GeodesicLength=0.3559992263085851 rxn_smarts="[O:1]=[C:2]1[C:3]([H:6])([H:7])[C:4]([H:8])([H:9])[N:5]1[H:10]>>[C:3](=[C:4]([H:8])[H:9])([H:6])[H:7].[O:1]=[C:2]=[N:5][H:10]"
O        2.30746898       0.45074266      -0.13808166
C        1.27035693      -0.10801513      -0.05046218
C       -0.36614548       0.96804992       0.27948491
C       -1.15054813      -0.16660836       0.07084261
N        0.68861240      -1.26047931      -0.11088589
H       -0.23190620       1.33107315       1.29233898
H       -0.33990314       1.73603234      -0.48495450
H       -1.55806205      -0.72902553       0.90141697
H       -1.60855478      -0.35416126      -0.89249139
H        0.98868147      -1.86760848      -0.86720785
10
Frame=6 idx=002468 GeodesicLength=0.4294861059890754 rxn_smarts="[O:1]=[C:2]1[C:3]([H:6])([H:7])[C:4]([H:8])([H:9])[N:5]1[H:10]>>[C:3](=[C:4]([H:8])[H:9])([H:6])[H:7].[O:1]=[C:2]=[N:5][H:10]"
O        2.34403084       0.44246182      -0.14646657
C        1.30273320      -0.10496712      -0.03928611
C       -0.36834110       0.96491441       0.27819487
C       -1.14161990      -0.18101793       0.06721505
N        0.71071760      -1.25222392      -0.08709246
H       -0.25330217       1.33593554       1.29083281
H       -0.35241064       1.73428639      -0.48550516
H       -1.56484522      -0.73213462       0.89805638
H       -1.60514691      -0.36232378      -0.89519457
H        0.92818431      -1.84493077      -0.88075426
10
Frame=7 idx=002468 GeodesicLength=0.5033420152124111 rxn_smarts="[O:1]=[C:2]1[C:3]([H:6])([H:7])[C:4]([H:8])([H:9])[N:5]1[H:10]>>[C:3](=[C:4]([H:8])[H:9])([H:6])[H:7].[O:1]=[C:2]=[N:5][H:10]"
O        2.38138192       0.43201957      -0.15288582
C        1.33495489      -0.10215243      -0.02952383
C       -0.37065278       0.96176000       0.27670416
C       -1.13326512      -0.19511381       0.06400435
N        0.73154912      -1.24326993      -0.06936105
H       -0.27480697       1.34069096       1.28875477
H       -0.36538613       1.73226753      -0.48641141
H       -1.57061180      -0.73581088       0.89496539
H       -1.60438625      -0.36919192      -0.89661786
H        0.87122312      -1.82119909      -0.88962870
10
Frame=8 idx=002468 GeodesicLength=0.577377042306184 rxn_smarts="[O:1]=[C:2]1[C:3]([H:6])([H:7])[C:4]([H:8])([H:9])[N:5]1[H:10]>>[C:3](=[C:4]([H:8])[H:9])([H:6])[H:7].[O:1]=[C:2]=[N:5][H:10]"
O        2.41917385       0.42026088      -0.16051272
C        1.36686089      -0.09888889      -0.02332005
C       -0.37321264       0.95869584       0.27571280
C       -1.12554437      -0.20849783       0.06026519
N        0.75143955      -1.23328931      -0.05490352
H       -0.29584747       1.34351368       1.28744534
H       -0.37950783       1.73142008      -0.48553236
H       -1.57662590      -0.73986819       0.89048331
H       -1.60484708      -0.37416287      -0.89835322
H        0.81811101      -1.79918338      -0.89128478
10
Frame=9 idx=002468 GeodesicLength=0.6516494159088577 rxn_smarts="[O:1]=[C:2]1[C:3]([H:6])([H:7])[C:4]([H:8])([H:9])[N:5]1[H:10]>>[C:3](=[C:4]([H:8])[H:9])([H:6])[H:7].[O:1]=[C:2]=[N:5][H:10]"
O        2.45770625       0.40675856      -0.16756195
C        1.39858393      -0.09547251      -0.01944486
C       -0.37605559       0.95578879       0.27485780
C       -1.11848506      -0.22133930       0.05651598
N        0.77035291      -1.22251193      -0.04380394
H       -0.31681764       1.34559861       1.28624416
H       -0.39449204       1.73098242      -0.48408170
H       -1.58250356      -0.74412861       0.88565927
H       -1.60684474      -0.37800381      -0.89964317
H        0.76855553      -1.77767221      -0.88874159
10
Frame=10 idx=002468 GeodesicLength=0.7261722617240579 rxn_smarts="[O:1]=[C:2]1[C:3]([H:6])([H:7])[C:4]([H:8])([H:9])[N:5]1[H:10]>>[C:3](=[C:4]([H:8])[H:9])([H:6])[H:7].[O:1]=[C:2]=[N:5][H:10]"
O        2.49715075       0.39130156      -0.17281102
C        1.43019822      -0.09207840      -0.01736901
C       -0.37917651       0.95306293       0.27388537
C       -1.11205329      -0.23377086       0.05305651
N        0.78838421      -1.21107784      -0.03603214
H       -0.33793967       1.34761741       1.28469101
H       -0.41025718       1.73056248      -0.48272850
H       -1.58797410      -0.74849313       0.88115346
H       -1.61053734      -0.38117838      -0.89999008
H        0.72220490      -1.75594578      -0.88385559
10
Frame=11 idx=002468 GeodesicLength=0.800848868224579 rxn_smarts="[O:1]=[C:2]1[C:3]([H:6])([H:7])[C:4]([H:8])([H:9])[N:5]1[H:10]>>[C:3](=[C:4]([H:8])[H:9])([H:6])[H:7].[O:1]=[C:2]=[N:5][H:10]"
O        2.53773102       0.37341884      -0.17450333
C        1.46180667      -0.08902008      -0.01608611
C       -0.38261113       0.95049122       0.27243848
C       -1.10630347      -0.24593430       0.05044128
N        0.80541175      -1.19912330      -0.03218958
H       -0.35952672       1.35052863       1.28201696
H       -0.42659253       1.72936288      -0.48255254
H       -1.59255326      -0.75277829       0.87804515
H       -1.61644547      -0.38428091      -0.89843479
H        0.67908315      -1.73266469      -0.87917551
10
Frame=12 idx=002468 GeodesicLength=0.8756505330936296 rxn_smarts="[O:1]=[C:2]1[C:3]([H:6])([H:7])[C:4]([H:8])([H:9])[N:5]1[H:10]>>[C:3](=[C:4]([H:8])[H:9])([H:6])[H:7].[O:1]=[C:2]=[N:5][H:10]"
O        2.57927887       0.35335391      -0.17382593
C        1.49340658      -0.08602383      -0.01628088
C       -0.38641195       0.94818470       0.27078832
C       -1.10121219      -0.25773158       0.04829298
N        0.82159113      -1.18648847      -0.03123660
H       -0.38139601       1.35376337       1.27879738
H       -0.44371931       1.72800695      -0.48281218
H       -1.59668727      -0.75701599       0.87571640
H       -1.62392154      -0.38718584      -0.89568954
H        0.63907169      -1.70886322      -0.87374994
10
Frame=13 idx=002468 GeodesicLength=0.9504623016380274 rxn_smarts="[O:1]=[C:2]1[C:3]([H:6])([H:7])[C:4]([H:8])([H:9])[N:5]1[H:10]>>[C:3](=[C:4]([H:8])[H:9])([H:6])[H:7].[O:1]=[C:2]=[N:5][H:10]"
O        2.62137870       0.33159512      -0.17373289
C        1.52497958      -0.08256969      -0.01927579
C       -0.39066810       0.94621480       0.26952020
C       -1.09670110      -0.26886199       0.04574938
N        0.83721578      -1.17276724      -0.03120773
H       -0.40326045       1.35589034       1.27618785
H       -0.46204303       1.72756826      -0.48175914
H       -1.60138540      -0.76115642       0.87248553
H       -1.63157493      -0.38928026      -0.89330878
H        0.60205895      -1.68663293      -0.86465864
10
Frame=14 idx=002468 GeodesicLength=1.0253351609833419 rxn_smarts="[O:1]=[C:2]1[C:3]([H:6])([H:7])[C:4]([H:8])([H:9])[N:5]1[H:10]>>[C:3](=[C:4]([H:8])[H:9])([H:6])[H:7].[O:1]=[C:2]=[N:5][H:10]"
O        2.66446991       0.30728732      -0.17003040
C        1.55670399      -0.07923795      -0.02343627
C       -0.39534386       0.94454037       0.26784856
C       -1.09278150      -0.27975074       0.04401108
N        0.85209198      -1.15827536      -0.03422628
H       -0.42557644       1.35889979       1.27261976
H       -0.48115114       1.72654588      -0.48173293
H       -1.60522086      -0.76522705       0.87072025
H       -1.64089282      -0.39169050      -0.88918115
H        0.56770074      -1.66309175      -0.85659263
10
Frame=15 idx=002468 GeodesicLength=1.1002073896650746 rxn_smarts="[O:1]=[C:2]1[C:3]([H:6])([H:7])[C:4]([H:8])([H:9])[N:5]1[H:10]>>[C:3](=[C:4]([H:8])[H:9])([H:6])[H:7].[O:1]=[C:2]=[N:5][H:10]"
O        2.70814292       0.28080093      -0.16512377
C        1.58858125      -0.07556897      -0.02997553
C       -0.40050726       0.94326420       0.26626243
C       -1.08937912      -0.29015227       0.04232670
N        0.86644969      -1.14265338      -0.03865317
H       -0.44808126       1.36162822       1.26911691
H       -0.50137033       1.72591116      -0.48128735
H       -1.60906148      -0.76922224       0.86898417
H       -1.65068952      -0.39391350      -0.88471063
H        0.53591513      -1.64009414      -0.84693975
10
Frame=16 idx=002468 GeodesicLength=1.1750727328217472 rxn_smarts="[O:1]=[C:2]1[C:3]([H:6])([H:7])[C:4]([H:8])([H:9])[N:5]1[H:10]>>[C:3](=[C:4]([H:8])[H:9])([H:6])[H:7].[O:1]=[C:2]=[N:5][H:10]"
O        2.75241498       0.25169392      -0.15692844
C        1.62075930      -0.07184847      -0.03821099
C       -0.40613978       0.94236094       0.26438910
C       -1.08643810      -0.30027518       0.04128061
N        0.88024667      -1.12598114      -0.04554507
H       -0.47098509       1.36497856       1.26491430
H       -0.52254251       1.72493584      -0.48150376
H       -1.61211612      -0.77317400       0.86844241
H       -1.66164254      -0.39649816      -0.87881305
H        0.50644319      -1.61619232      -0.83802510
