20
Frame=0 idx=003448 GeodesicLength=0.0 rxn_smarts="[C:1]([C:2]([C:3]([H:11])([H:12])[H:13])([C:4]([C:5]([H:15])([H:16])[H:17])([C:6]([H:18])([H:19])[H:20])[H:14])[H:10])([H:7])([H:8])[H:9]>>[C:1](=[C:2]([C:3]([H:11])([H:12])[H:13])[C:4]([C:5]([H:15])([H:16])[H:17])([C:6]([H:18])([H:19])[H:20])[H:14])([H:7])[H:8].[H:9][H:10]"
C       -1.74570818       1.03266529      -0.24565992
C       -0.78863114       0.02376429       0.08725954
C       -1.01522363      -1.34175972      -0.50624273
C        0.65155702       0.48115340       0.30699760
C        1.52161078      -0.49594565       1.08562635
C        1.27346858       0.79654568      -1.05582774
H       -1.50746181       2.07471502      -0.08926070
H       -2.66971166       0.75848553      -0.73243905
H       -1.61350276       0.32100257       1.04989132
H       -1.03548860      -0.44694028       1.60547481
H       -0.71517348      -1.29752110      -1.55654875
H       -2.07231165      -1.60145479      -0.47565746
H       -0.44596383      -2.11771206       0.00291776
H        0.58848941       1.41672252       0.87082246
H        1.70927238      -1.40771106       0.51358095
H        1.05529109      -0.77562953       2.03175036
H        2.49007928      -0.04192282       1.30206415
H        0.64326064       1.47059207      -1.63639165
H        2.24908101       1.26535206      -0.91882510
H        1.42706657      -0.11440143      -1.63953221
20
Frame=1 idx=003448 GeodesicLength=0.10945858100176056 rxn_smarts="[C:1]([C:2]([C:3]([H:11])([H:12])[H:13])([C:4]([C:5]([H:15])([H:16])[H:17])([C:6]([H:18])([H:19])[H:20])[H:14])[H:10])([H:7])([H:8])[H:9]>>[C:1](=[C:2]([C:3]([H:11])([H:12])[H:13])[C:4]([C:5]([H:15])([H:16])[H:17])([C:6]([H:18])([H:19])[H:20])[H:14])([H:7])[H:8].[H:9][H:10]"
C       -1.74714154       1.03206427      -0.23041575
C       -0.78956361       0.02229004       0.09782960
C       -1.01158931      -1.33900650      -0.50994381
C        0.65242455       0.48218215       0.30346657
C        1.52458572      -0.49154223       1.08483830
C        1.27390341       0.79184203      -1.06079517
H       -1.50927177       2.07372915      -0.06744713
H       -2.65019578       0.76794940      -0.76064819
H       -1.65378030       0.31338243       1.07973564
H       -1.04952902      -0.45321127       1.61295530
H       -0.70898249      -1.29306523      -1.55931572
H       -2.06812152      -1.60214351      -0.48592216
H       -0.44359300      -2.11732713      -0.00250387
H        0.59397842       1.42059944       0.86331068
H        1.70720876      -1.40790066       0.51853815
H        1.06229531      -0.76353497       2.03524222
H        2.49520204      -0.03897480       1.29481853
H        0.64512273       1.46496131      -1.64403789
H        2.25107478       1.25871658      -0.92775767
H        1.42597261      -0.12101052      -1.64194762
20
Frame=2 idx=003448 GeodesicLength=0.2183518361797835 rxn_smarts="[C:1]([C:2]([C:3]([H:11])([H:12])[H:13])([C:4]([C:5]([H:15])([H:16])[H:17])([C:6]([H:18])([H:19])[H:20])[H:14])[H:10])([H:7])([H:8])[H:9]>>[C:1](=[C:2]([C:3]([H:11])([H:12])[H:13])[C:4]([C:5]([H:15])([H:16])[H:17])([C:6]([H:18])([H:19])[H:20])[H:14])([H:7])[H:8].[H:9][H:10]"
C       -1.74873620       1.03108680      -0.21458984
C       -0.79006979       0.02063213       0.10796807
C       -1.00783762      -1.33636505      -0.51366887
C        0.65346904       0.48326487       0.29964345
C        1.52757546      -0.48699080       1.08401110
C        1.27449856       0.78708840      -1.06604633
H       -1.51120433       2.07226218      -0.04460138
H       -2.62897343       0.77851730      -0.78770293
H       -1.69604082       0.30467447       1.10926837
H       -1.06443948      -0.45859073       1.62005423
H       -0.70269267      -1.28894835      -1.56211797
H       -2.06382112      -1.60270999      -0.49620452
H       -0.44121356      -2.11698811      -0.00774162
H        0.59944263       1.42454247       0.85538054
H        1.70528060      -1.40794076       0.52362700
H        1.06911338      -0.75112629       2.03854998
H        2.50028950      -0.03590091       1.28758992
H        0.64700188       1.45913869      -1.65196770
H        2.25318121       1.25207678      -0.93694319
H        1.42517674      -0.12772311      -1.64450829
20
Frame=3 idx=003448 GeodesicLength=0.3270270513434647 rxn_smarts="[C:1]([C:2]([C:3]([H:11])([H:12])[H:13])([C:4]([C:5]([H:15])([H:16])[H:17])([C:6]([H:18])([H:19])[H:20])[H:14])[H:10])([H:7])([H:8])[H:9]>>[C:1](=[C:2]([C:3]([H:11])([H:12])[H:13])[C:4]([C:5]([H:15])([H:16])[H:17])([C:6]([H:18])([H:19])[H:20])[H:14])([H:7])[H:8].[H:9][H:10]"
C       -1.75049997       1.02967074      -0.19814791
C       -0.79008704       0.01878847       0.11758736
C       -1.00394562      -1.33386318      -0.51744140
C        0.65473080       0.48441173       0.29549849
C        1.53059282      -0.48228089       1.08314108
C        1.27530044       0.78227406      -1.07161058
H       -1.51326571       2.07023727      -0.02064728
H       -2.60607985       0.79026815      -0.81329437
H       -1.74051862       0.29485473       1.13846240
H       -1.08036089      -0.46291225       1.62669049
H       -0.69626932      -1.28521507      -1.56497687
H       -2.05939336      -1.60316536      -0.50652022
H       -0.43881420      -2.11670828      -0.01278054
H        0.60489909       1.42856844       0.84698995
H        1.70351184      -1.40782191       0.52885098
H        1.07572731      -0.73838513       2.04165763
H        2.50535437      -0.03269396       1.28039052
H        0.64894373       1.45311374      -1.66021056
H        2.25545069       1.24541509      -0.94640683
H        1.42472352      -0.13455638      -1.64723234
20
Frame=4 idx=003448 GeodesicLength=0.435724834925425 rxn_smarts="[C:1]([C:2]([C:3]([H:11])([H:12])[H:13])([C:4]([C:5]([H:15])([H:16])[H:17])([C:6]([H:18])([H:19])[H:20])[H:14])[H:10])([H:7])([H:8])[H:9]>>[C:1](=[C:2]([C:3]([H:11])([H:12])[H:13])[C:4]([C:5]([H:15])([H:16])[H:17])([C:6]([H:18])([H:19])[H:20])[H:14])([H:7])[H:8].[H:9][H:10]"
C       -1.75243095       1.02776514      -0.18105066
C       -0.78954802       0.01676081       0.12660210
C       -0.99988457      -1.33152144      -0.52129345
C        0.65625736       0.48563285       0.29100189
C        1.53365248      -0.47740322       1.08222843
C        1.27636718       0.77738320      -1.07751594
H       -1.51544429       2.06758689       0.00447384
H       -2.58166825       0.80321731      -0.83706790
H       -1.78742015       0.28392414       1.16728397
H       -1.09746438      -0.46600028       1.63276948
H       -0.68968440      -1.28188840      -1.56792520
H       -2.05481389      -1.60352142      -0.51688194
H       -0.43637163      -2.11649559      -0.01762572
H        0.61037465       1.43269502       0.83809439
H        1.70192871      -1.40753487       0.53421763
H        1.08211532      -0.72529479       2.04455097
H        2.51041140      -0.02934907       1.27324117
H        0.65100999       1.44687190      -1.66879712
H        2.25794667       1.23870504      -0.95617094
H        1.42466676      -0.14153323      -1.65013499
20
Frame=5 idx=003448 GeodesicLength=0.5447718040105193 rxn_smarts="[C:1]([C:2]([C:3]([H:11])([H:12])[H:13])([C:4]([C:5]([H:15])([H:16])[H:17])([C:6]([H:18])([H:19])[H:20])[H:14])[H:10])([H:7])([H:8])[H:9]>>[C:1](=[C:2]([C:3]([H:11])([H:12])[H:13])[C:4]([C:5]([H:15])([H:16])[H:17])([C:6]([H:18])([H:19])[H:20])[H:14])([H:7])[H:8].[H:9][H:10]"
C       -1.75451194       1.02530267      -0.16324033
C       -0.78837220       0.01456371       0.13489852
C       -0.99561979      -1.32935519      -0.52526508
C        0.65810595       0.48694107       0.28611369
C        1.53676641      -0.47234675       1.08127264
C        1.27777796       0.77239644      -1.08379606
H       -1.51773220       2.06423280       0.03084448
H       -2.55596852       0.81733664      -0.85861392
H       -1.83698801       0.27191103       1.19573506
H       -1.11594115      -0.46765494       1.63814488
H       -0.68290775      -1.27899295      -1.57100517
H       -2.05005231      -1.60378806      -0.52729644
H       -0.43385738      -2.11635004      -0.02228783
H        0.61590603       1.43694312       0.82863646
H        1.70055767      -1.40706987       0.53973744
H        1.08824093      -0.71183487       2.04720879
H        2.51547113      -0.02586199       1.26617126
H        0.65329162       1.44039977      -1.67776716
H        2.26075581       1.23190947      -0.96625714
H        1.42507775      -0.14868205      -1.65323410
20
Frame=6 idx=003448 GeodesicLength=0.6541543192772206 rxn_smarts="[C:1]([C:2]([C:3]([H:11])([H:12])[H:13])([C:4]([C:5]([H:15])([H:16])[H:17])([C:6]([H:18])([H:19])[H:20])[H:14])[H:10])([H:7])([H:8])[H:9]>>[C:1](=[C:2]([C:3]([H:11])([H:12])[H:13])[C:4]([C:5]([H:15])([H:16])[H:17])([C:6]([H:18])([H:19])[H:20])[H:14])([H:7])[H:8].[H:9][H:10]"
C       -1.75672979       1.02224062      -0.14467071
C       -0.78649706       0.01220599       0.14241513
C       -0.99111939      -1.32737192      -0.52939442
C        0.66032882       0.48834591       0.28080953
C        1.53995499      -0.46710260       1.08027819
C        1.27959709       0.76729343      -1.09047176
H       -1.52008605       2.06011536       0.05848693
H       -2.52927519       0.83255349      -0.87756131
H       -1.88933164       0.25887317       1.22379292
H       -1.13602446      -0.46772119       1.64269013
H       -0.67592448      -1.27651709      -1.57426003
H       -2.04507879      -1.60397783      -0.53777019
H       -0.43123299      -2.11627197      -0.02679911
H        0.62152895       1.44133070       0.81857477
H        1.69942642      -1.40641782       0.54542082
H        1.09408651      -0.69799141       2.04961948
H        2.52055360      -0.02222809       1.25920677
H        0.65586179       1.43367789      -1.68714946
H        2.26394900       1.22499455      -0.97668097
H        1.42601265      -0.15603116      -1.65653669
20
Frame=7 idx=003448 GeodesicLength=0.7639128101181104 rxn_smarts="[C:1]([C:2]([C:3]([H:11])([H:12])[H:13])([C:4]([C:5]([H:15])([H:16])[H:17])([C:6]([H:18])([H:19])[H:20])[H:14])[H:10])([H:7])([H:8])[H:9]>>[C:1](=[C:2]([C:3]([H:11])([H:12])[H:13])[C:4]([C:5]([H:15])([H:16])[H:17])([C:6]([H:18])([H:19])[H:20])[H:14])([H:7])[H:8].[H:9][H:10]"
C       -1.75905947       1.01851904      -0.12528383
C       -0.78385674       0.00970585       0.14908051
C       -0.98635170      -1.32557244      -0.53372175
C        0.66298146       0.48985869       0.27506181
C        1.54323764      -0.46165964       1.07924902
C        1.28189820       0.76205247      -1.09756493
H       -1.52246095       2.05516315       0.08743233
H       -2.50192149       0.84876003      -0.89353292
H       -1.94456312       0.24490892       1.25147604
H       -1.15796295      -0.46605506       1.64623172
H       -0.66872547      -1.27444495      -1.57773734
H       -2.03986320      -1.60410038      -0.54829868
H       -0.42845565      -2.11625548      -0.03119997
H        0.62728286       1.44587772       0.80786334
H        1.69856223      -1.40556931       0.55127917
H        1.09962999      -0.68374680       2.05176884
H        2.52567828      -0.01844139       1.25237815
H        0.65880895       1.42668953      -1.69697613
H        2.26760790       1.21792118      -0.98745522
H        1.42753323      -0.16361113      -1.66005016
20
Frame=8 idx=003448 GeodesicLength=0.8739695587992448 rxn_smarts="[C:1]([C:2]([C:3]([H:11])([H:12])[H:13])([C:4]([C:5]([H:15])([H:16])[H:17])([C:6]([H:18])([H:19])[H:20])[H:14])[H:10])([H:7])([H:8])[H:9]>>[C:1](=[C:2]([C:3]([H:11])([H:12])[H:13])[C:4]([C:5]([H:15])([H:16])[H:17])([C:6]([H:18])([H:19])[H:20])[H:14])([H:7])[H:8].[H:9][H:10]"
C       -1.76147029       1.01410333      -0.10503955
C       -0.78038510       0.00709089       0.15487409
C       -0.98128260      -1.32394266      -0.53826775
C        0.66611816       0.49149038       0.26885382
C        1.54663257      -0.45600316       1.07818658
C        1.28475529       0.75664995      -1.10508281
H       -1.52479874       2.04933819       0.11765031
H       -2.47434097       0.86581913      -0.90618126
H       -2.00272786       0.23017800       1.27881313
H       -1.18200262      -0.46267011       1.64852565
H       -0.66130373      -1.27274131      -1.58146648
H       -2.03437871      -1.60415493      -0.55884990
H       -0.42547607      -2.11628362      -0.03553161
H        0.63321552       1.45059815       0.79645898
H        1.69797856      -1.40450524       0.55733056
H        1.10486747      -0.66908734       2.05364084
H        2.53086040      -0.01448975       1.24570262
H        0.66223162       1.41941378      -1.70726977
H        2.27181453       1.21064640      -0.99858498
H        1.42969259      -0.17145007      -1.66376247
20
Frame=9 idx=003448 GeodesicLength=0.9839159916687327 rxn_smarts="[C:1]([C:2]([C:3]([H:11])([H:12])[H:13])([C:4]([C:5]([H:15])([H:16])[H:17])([C:6]([H:18])([H:19])[H:20])[H:14])[H:10])([H:7])([H:8])[H:9]>>[C:1](=[C:2]([C:3]([H:11])([H:12])[H:13])[C:4]([C:5]([H:15])([H:16])[H:17])([C:6]([H:18])([H:19])[H:20])[H:14])([H:7])[H:8].[H:9][H:10]"
C       -1.76382609       1.00901636      -0.08399750
C       -0.77621181       0.00437512       0.15996297
C       -0.97599234      -1.32242779      -0.54295538
C        0.66970179       0.49323630       0.26223097
C        1.55022235      -0.45011309       1.07707429
C        1.28808300       0.75109158      -1.11300774
H       -1.52696020       2.04260619       0.14925263
H       -2.44615843       0.88351579      -0.91578766
H       -2.06396975       0.21469319       1.30565778
H       -1.20822748      -0.45767745       1.64952018
H       -0.65375126      -1.27133448      -1.58536926
H       -2.02868329      -1.60409970      -0.56936650
H       -0.42233843      -2.11633036      -0.03977847
H        0.63929638       1.45549244       0.78443365
H        1.69770780      -1.40322598       0.56352547
H        1.10998396      -0.65398178       2.05528428
H        2.53621101      -0.01034907       1.23910180
H        0.66604679       1.41187149      -1.71800602
H        2.27648810       1.20318292      -1.01008567
H        1.43237788      -0.17954170      -1.66768981
20
Frame=10 idx=003448 GeodesicLength=1.0938407311179346 rxn_smarts="[C:1]([C:2]([C:3]([H:11])([H:12])[H:13])([C:4]([C:5]([H:15])([H:16])[H:17])([C:6]([H:18])([H:19])[H:20])[H:14])[H:10])([H:7])([H:8])[H:9]>>[C:1](=[C:2]([C:3]([H:11])([H:12])[H:13])[C:4]([C:5]([H:15])([H:16])[H:17])([C:6]([H:18])([H:19])[H:20])[H:14])([H:7])[H:8].[H:9][H:10]"
C       -1.76619552       1.00316078      -0.06210895
C       -0.77117895       0.00157126       0.16421576
C       -0.97037188      -1.32104445      -0.54792652
C        0.67380952       0.49510650       0.25515231
C        1.55395832      -0.44398644       1.07594794
C        1.29203819       0.74533930      -1.12133739
H       -1.52893561       2.03492346       0.18192620
H       -2.41842613       0.90169164      -0.92163105
H       -2.12783544       0.19898951       1.33242027
H       -1.23702337      -0.45116049       1.64886948
H       -0.64602391      -1.27016294      -1.58960939
H       -2.02268880      -1.60398942      -0.57986345
H       -0.41889973      -2.11639811      -0.04411856
H        0.64557390       1.46057544       0.77169204
H        1.69774376      -1.40170844       0.56994062
H        1.11481291      -0.63844109       2.05665635
H        2.54165229      -0.00601600       1.23269372
H        0.67045088       1.40401229      -1.72922618
H        2.28178910       1.19546791      -1.02191137
H        1.43575049      -0.18793071      -1.67178184
20
Frame=11 idx=003448 GeodesicLength=1.2035711073755864 rxn_smarts="[C:1]([C:2]([C:3]([H:11])([H:12])[H:13])([C:4]([C:5]([H:15])([H:16])[H:17])([C:6]([H:18])([H:19])[H:20])[H:14])[H:10])([H:7])([H:8])[H:9]>>[C:1](=[C:2]([C:3]([H:11])([H:12])[H:13])[C:4]([C:5]([H:15])([H:16])[H:17])([C:6]([H:18])([H:19])[H:20])[H:14])([H:7])[H:8].[H:9][H:10]"
C       -1.76852227       0.99651113      -0.03943776
C       -0.76533766      -0.00132322       0.16768169
C       -0.96442059      -1.31976792      -0.55322774
C        0.67841712       0.49708976       0.24763653
C        1.55784381      -0.43761741       1.07482126
C        1.29662076       0.73938771      -1.13003863
H       -1.53063353       2.02627569       0.21548282
H       -2.39143964       0.92008771      -0.92370826
H       -2.19393556       0.18351674       1.35945865
H       -1.26858623      -0.44336582       1.64642043
H       -0.63816199      -1.26913401      -1.59424168
H       -2.01638416      -1.60384434      -0.59034102
H       -0.41510496      -2.11647822      -0.04867597
H        0.65200916       1.46583783       0.75825853
H        1.69808981      -1.39994629       0.57658004
H        1.11936219      -0.62246962       2.05777447
H        2.54718684      -0.00147337       1.22650262
H        0.67547006       1.39583531      -1.74091856
H        2.28771668       1.18749686      -1.03401327
H        1.43981014      -0.19661852      -1.67601417
20
Frame=12 idx=003448 GeodesicLength=1.3129333318235508 rxn_smarts="[C:1]([C:2]([C:3]([H:11])([H:12])[H:13])([C:4]([C:5]([H:15])([H:16])[H:17])([C:6]([H:18])([H:19])[H:20])[H:14])[H:10])([H:7])([H:8])[H:9]>>[C:1](=[C:2]([C:3]([H:11])([H:12])[H:13])[C:4]([C:5]([H:15])([H:16])[H:17])([C:6]([H:18])([H:19])[H:20])[H:14])([H:7])[H:8].[H:9][H:10]"
C       -1.77075728       0.98906447      -0.01610065
C       -0.75875349      -0.00430790       0.17045765
C       -0.95814443      -1.31856465      -0.55889073
C        0.68348597       0.49917321       0.23971690
C        1.56187556      -0.43099928       1.07370807
C        1.30181658       0.73323524      -1.13906178
H       -1.53197765       2.01667413       0.24969900
H       -2.36548723       0.93845728      -0.92213623
H       -2.26179074       0.16875711       1.38719086
H       -1.30305924      -0.43468300       1.64199378
H       -0.63020446      -1.26814607      -1.59930523
H       -2.00977064      -1.60367440      -0.60079817
H       -0.41090888      -2.11655700      -0.05356679
H        0.65855710       1.47126359       0.74416935
H        1.69873304      -1.39793153       0.58345474
H        1.12365837      -0.60607226       2.05866210
H        2.55281207       0.00329700       1.22054059
H        0.68112064       1.38734129      -1.75305794
H        2.29425429       1.17927236      -1.04633021
H        1.44454042      -0.20559959      -1.68034532
20
Frame=13 idx=003448 GeodesicLength=1.4218563016569084 rxn_smarts="[C:1]([C:2]([C:3]([H:11])([H:12])[H:13])([C:4]([C:5]([H:15])([H:16])[H:17])([C:6]([H:18])([H:19])[H:20])[H:14])[H:10])([H:7])([H:8])[H:9]>>[C:1](=[C:2]([C:3]([H:11])([H:12])[H:13])[C:4]([C:5]([H:15])([H:16])[H:17])([C:6]([H:18])([H:19])[H:20])[H:14])([H:7])[H:8].[H:9][H:10]"
C       -1.77284680       0.98084028       0.00774152
C       -0.75151646      -0.00738646       0.17267021
C       -0.95155804      -1.31739792      -0.56493135
C        0.68895543       0.50133749       0.23143874
C        1.56604511      -0.42412867       1.07261905
C        1.30758965       0.72689035      -1.14834450
H       -1.53290400       2.00615378       0.28432090
H       -2.34075598       0.95656891      -0.91717162
H       -2.33091866       0.15524735       1.41609233
H       -1.34048946      -0.42564015       1.63542834
H       -0.62219594      -1.26709991      -1.60482230
H       -2.00285765      -1.60348869      -0.61122259
H       -0.40627286      -2.11662140      -0.05890100
H        0.66515467       1.47682472       0.72948021
H        1.69964934      -1.39565592       0.59056947
H        1.12774122      -0.58926240       2.05934564
H        2.55851681       0.00831481       1.21480749
H        0.68739863       1.37854322      -1.76560445
H        2.30136048       1.17081292      -1.05878806
H        1.44990452      -0.21485231      -1.68472803
20
Frame=14 idx=003448 GeodesicLength=1.530290129036436 rxn_smarts="[C:1]([C:2]([C:3]([H:11])([H:12])[H:13])([C:4]([C:5]([H:15])([H:16])[H:17])([C:6]([H:18])([H:19])[H:20])[H:14])[H:10])([H:7])([H:8])[H:9]>>[C:1](=[C:2]([C:3]([H:11])([H:12])[H:13])[C:4]([C:5]([H:15])([H:16])[H:17])([C:6]([H:18])([H:19])[H:20])[H:14])([H:7])[H:8].[H:9][H:10]"
C       -1.77475927       0.97188211       0.03188704
C       -0.74373646      -0.01058494       0.17449071
C       -0.94468310      -1.31624063      -0.57134731
C        0.69474661       0.50355349       0.22286590
C        1.57035050      -0.41701150       1.07156190
C        1.31387055       0.72037289      -1.15780909
H       -1.53335679       1.99476880       0.31908935
H       -2.31731765       0.97423868      -0.90921150
H       -2.40081056       0.14350589       1.44665124
H       -1.38086934      -0.41677649       1.62656508
H       -0.61417061      -1.26590682      -1.61079137
H       -1.99566194      -1.60330018      -0.62162065
H       -0.40117501      -2.11667138      -0.06476290
H        0.67172361       1.48247905       0.71427633
H        1.70081751      -1.39311910       0.59791953
H        1.13168090      -0.57206738       2.05986007
H        2.56429862       0.01359357       1.20928341
H        0.69425581       1.36946228      -1.77849394
H        2.30895710       1.16215985      -1.07130409
H        1.45583953      -0.22433816      -1.68910972
20
Frame=15 idx=003448 GeodesicLength=1.6383490889946875 rxn_smarts="[C:1]([C:2]([C:3]([H:11])([H:12])[H:13])([C:4]([C:5]([H:15])([H:16])[H:17])([C:6]([H:18])([H:19])[H:20])[H:14])[H:10])([H:7])([H:8])[H:9]>>[C:1](=[C:2]([C:3]([H:11])([H:12])[H:13])[C:4]([C:5]([H:15])([H:16])[H:17])([C:6]([H:18])([H:19])[H:20])[H:14])([H:7])[H:8].[H:9][H:10]"
C       -1.77646319       0.96224400       0.05611447
C       -0.73552994      -0.01393236       0.17608115
C       -0.93754332      -1.31506984      -0.57813306
C        0.70077320       0.50579050       0.21406025
C        1.57478265      -0.40965466       1.07054124
C        1.32058518       0.71370740      -1.16737974
H       -1.53330888       1.98257652       0.35377562
H       -2.29513831       0.99131732      -0.89870658
H       -2.47104684       0.13402946       1.47937821
H       -1.42410783      -0.40864775       1.61527868
H       -0.60615617      -1.26449457      -1.61720546
H       -1.98820198      -1.60312176      -0.63200431
H       -0.39560160      -2.11670987      -0.07122554
H        0.67817805       1.48818115       0.69864419
H        1.70221174      -1.39032094       0.60549708
H        1.13554335      -0.55451635       2.06023709
H        2.57014572       0.01914669       1.20394578
H        0.70163806       1.36012597      -1.79166157
H        2.31695952       1.15336159      -1.08379493
H        1.46228060      -0.23401252      -1.69344255
20
Frame=16 idx=003448 GeodesicLength=1.746271426297548 rxn_smarts="[C:1]([C:2]([C:3]([H:11])([H:12])[H:13])([C:4]([C:5]([H:15])([H:16])[H:17])([C:6]([H:18])([H:19])[H:20])[H:14])[H:10])([H:7])([H:8])[H:9]>>[C:1](=[C:2]([C:3]([H:11])([H:12])[H:13])[C:4]([C:5]([H:15])([H:16])[H:17])([C:6]([H:18])([H:19])[H:20])[H:14])([H:7])[H:8].[H:9][H:10]"
C       -1.77793810       0.95199083       0.08018740
C       -0.72701195      -0.01746506       0.17759754
C       -0.93016284      -1.31387173      -0.58527439
C        0.70694662       0.50801600       0.20508258
C        1.57933231      -0.40206729       1.06955792
C        1.32765310       0.70692229      -1.17698408
H       -1.53275235       1.96963133       0.38820087
H       -2.27408849       1.00772340      -0.88615943
H       -2.54130567       0.12723131       1.51478938
H       -1.47005619      -0.40176252       1.60145103
H       -0.59816587      -1.26281511      -1.62404509
H       -1.98049730      -1.60296671      -0.64239700
H       -0.38955256      -2.11674644      -0.07833475
H        0.68443117       1.49388320       0.68267171
H        1.70380682      -1.38726379       0.61329075
H        1.13939720      -0.53663807       2.06050687
H        2.57604794       0.02498566       1.19876464
H        0.70947964       1.35056487      -1.80504088
H        2.32527598       1.14447403      -1.09618196
H        1.46916052      -0.24382620      -1.69768312
