12
Frame=0 idx=003468 GeodesicLength=0.0 rxn_smarts="[N:1]([C@@:2]1([H:9])[C:3]([H:10])([H:11])[O:4]/[C:5]1=[N:6]\[H:12])([H:7])[H:8]>>[N:1]([C:2](/[C:5]([O+:4]=[C-:3][H:10])=[N:6]/[H:12])([H:9])[H:11])([H:7])[H:8]"
N        1.65579529      -0.37775268       0.67687648
C        0.64554598      -0.13060622      -0.22755037
C       -1.38836073      -1.04438246      -0.98157924
O       -1.53164738       0.29406180      -0.65845018
C       -0.56355130       0.62168444       0.23854563
N       -0.64975058       1.33095208       1.26886290
H        2.59155823      -0.12330573       0.41919740
H        1.42339286      -0.18758085       1.63835234
H        0.98654003       0.21202169      -1.20333444
H       -1.48570341      -1.07002701      -2.08785652
H       -0.08253012      -1.16826096      -0.52055181
H       -1.60128884       1.64319587       1.43748781
12
Frame=1 idx=003468 GeodesicLength=0.05835618767520625 rxn_smarts="[N:1]([C@@:2]1([H:9])[C:3]([H:10])([H:11])[O:4]/[C:5]1=[N:6]\[H:12])([H:7])[H:8]>>[N:1]([C:2](/[C:5]([O+:4]=[C-:3][H:10])=[N:6]/[H:12])([H:9])[H:11])([H:7])[H:8]"
N        1.65964893      -0.38218246       0.66949891
C        0.63912808      -0.14286160      -0.23126405
C       -1.37386525      -1.03569503      -0.99387209
O       -1.53978960       0.29279590      -0.64811305
C       -0.56089254       0.62270790       0.23927667
N       -0.64025241       1.34461481       1.26068154
H        2.57989009      -0.06385865       0.42566849
H        1.41763518      -0.22783938       1.63525902
H        0.98101671       0.19849839      -1.20743220
H       -1.48566556      -1.05307347      -2.09796202
H       -0.08430773      -1.20408827      -0.48834293
H       -1.59254591       1.65098186       1.43660171
12
Frame=2 idx=003468 GeodesicLength=0.11694878063358685 rxn_smarts="[N:1]([C@@:2]1([H:9])[C:3]([H:10])([H:11])[O:4]/[C:5]1=[N:6]\[H:12])([H:7])[H:8]>>[N:1]([C:2](/[C:5]([O+:4]=[C-:3][H:10])=[N:6]/[H:12])([H:9])[H:11])([H:7])[H:8]"
N        1.66329584      -0.38673570       0.66199909
C        0.63288323      -0.15441041      -0.23522527
C       -1.35752456      -1.02772475      -1.00567493
O       -1.54869306       0.28950806      -0.63625257
C       -0.55831356       0.62390210       0.23981278
N       -0.63105915       1.35765809       1.25260217
H        2.56529226      -0.00883970       0.43374561
H        1.41320222      -0.26631901       1.63079247
H        0.97613985       0.18778586      -1.21092246
H       -1.48635413      -1.03682539      -2.10705872
H       -0.08522989      -1.23796319      -0.45866298
H       -1.58363906       1.65996403       1.43484480
12
Frame=3 idx=003468 GeodesicLength=0.1755739198369529 rxn_smarts="[N:1]([C@@:2]1([H:9])[C:3]([H:10])([H:11])[O:4]/[C:5]1=[N:6]\[H:12])([H:7])[H:8]>>[N:1]([C:2](/[C:5]([O+:4]=[C-:3][H:10])=[N:6]/[H:12])([H:9])[H:11])([H:7])[H:8]"
N        1.66650270      -0.39117838       0.65466902
C        0.62698071      -0.16506023      -0.23954781
C       -1.33999878      -1.01986655      -1.01665514
O       -1.55778033       0.28503068      -0.62373430
C       -0.55536936       0.62622783       0.23922403
N       -0.62168696       1.37175466       1.24314655
H        2.54837268       0.04135973       0.44353127
H        1.40928543      -0.30247418       1.62525972
H        0.97238151       0.17897375      -1.21411779
H       -1.48811432      -1.02174024      -2.11465320
H       -0.08555074      -1.26975264      -0.43123781
H       -1.57502256       1.66672557       1.43411545
12
Frame=4 idx=003468 GeodesicLength=0.23453291832853806 rxn_smarts="[N:1]([C@@:2]1([H:9])[C:3]([H:10])([H:11])[O:4]/[C:5]1=[N:6]\[H:12])([H:7])[H:8]>>[N:1]([C:2](/[C:5]([O+:4]=[C-:3][H:10])=[N:6]/[H:12])([H:9])[H:11])([H:7])[H:8]"
N        1.66960031      -0.39560717       0.64736080
C        0.62140977      -0.17485030      -0.24415907
C       -1.32142787      -1.01234236      -1.02700612
O       -1.56728451       0.27889307      -0.61000286
C       -0.55244981       0.62896276       0.23826940
N       -0.61269968       1.38575914       1.23351939
H        2.52962523       0.08764826       0.45481946
H        1.40602909      -0.33744401       1.61887731
H        0.96935388       0.17244992      -1.21705195
H       -1.49086463      -1.00765595      -2.12099378
H       -0.08483116      -1.29993018      -0.40649609
H       -1.56646062       1.67411683       1.43286350
12
Frame=5 idx=003468 GeodesicLength=0.2935205023681686 rxn_smarts="[N:1]([C@@:2]1([H:9])[C:3]([H:10])([H:11])[O:4]/[C:5]1=[N:6]\[H:12])([H:7])[H:8]>>[N:1]([C:2](/[C:5]([O+:4]=[C-:3][H:10])=[N:6]/[H:12])([H:9])[H:11])([H:7])[H:8]"
N        1.67268372      -0.39996640       0.63992518
C        0.61614044      -0.18373875      -0.24893013
C       -1.30204162      -1.00515606      -1.03677867
O       -1.57715369       0.27068013      -0.59461186
C       -0.54966214       0.63148249       0.23747034
N       -0.60414808       1.39871318       1.22436324
H        2.50926794       0.13073941       0.46763238
H        1.40342090      -0.37198879       1.61147889
H        0.96677368       0.16848369      -1.21941245
H       -1.49460166      -0.99435156      -2.12594903
H       -0.08285678      -1.32871960      -0.38484046
H       -1.55782272       1.68382226       1.42965257
12
Frame=6 idx=003468 GeodesicLength=0.35271192688539 rxn_smarts="[N:1]([C@@:2]1([H:9])[C:3]([H:10])([H:11])[O:4]/[C:5]1=[N:6]\[H:12])([H:7])[H:8]>>[N:1]([C:2](/[C:5]([O+:4]=[C-:3][H:10])=[N:6]/[H:12])([H:9])[H:11])([H:7])[H:8]"
N        1.67574624      -0.40418890       0.63249993
C        0.61122707      -0.19172985      -0.25392506
C       -1.28213364      -0.99802848      -1.04592598
O       -1.58714649       0.26077526      -0.57787699
C       -0.54691364       0.63418195       0.23654646
N       -0.59601493       1.41129003       1.21532863
H        2.48757704       0.17060549       0.48191752
H        1.40127986      -0.40599079       1.60329196
H        0.96471896       0.16655157      -1.22152155
H       -1.49934218      -0.98197234      -2.12948887
H       -0.07964309      -1.35630183      -0.36605774
H       -1.54935520       1.69480788       1.42521171
12
Frame=7 idx=003468 GeodesicLength=0.4120707637254399 rxn_smarts="[N:1]([C@@:2]1([H:9])[C:3]([H:10])([H:11])[O:4]/[C:5]1=[N:6]\[H:12])([H:7])[H:8]>>[N:1]([C:2](/[C:5]([O+:4]=[C-:3][H:10])=[N:6]/[H:12])([H:9])[H:11])([H:7])[H:8]"
N        1.67879068      -0.40823551       0.62513213
C        0.60668885      -0.19882798      -0.25912576
C       -1.26195244      -0.99077067      -1.05442335
O       -1.59710568       0.24932482      -0.55985999
C       -0.54418541       0.63715252       0.23538712
N       -0.58829454       1.42370498       1.20616205
H        2.46478861       0.20738673       0.49768500
H        1.39945945      -0.43947011       1.59431089
H        0.96320724       0.16637075      -1.22340169
H       -1.50506945      -0.97048182      -2.13150979
H       -0.07519946      -1.38280342      -0.35005403
H       -1.54112785       1.70664972       1.41969742
12
Frame=8 idx=003468 GeodesicLength=0.47154138421254294 rxn_smarts="[N:1]([C@@:2]1([H:9])[C:3]([H:10])([H:11])[O:4]/[C:5]1=[N:6]\[H:12])([H:7])[H:8]>>[N:1]([C:2](/[C:5]([O+:4]=[C-:3][H:10])=[N:6]/[H:12])([H:9])[H:11])([H:7])[H:8]"
N        1.68179791      -0.41206126       0.61786488
C        0.60250270      -0.20506539      -0.26448953
C       -1.24170801      -0.98326716      -1.06231544
O       -1.60686116       0.23643176      -0.54062174
C       -0.54144942       0.64041027       0.23404184
N       -0.58097956       1.43599570       1.19695982
H        2.44112512       0.24118429       0.51476136
H        1.39792224      -0.47236196       1.58462999
H        0.96219301       0.16771144      -1.22506849
H       -1.51167297      -0.95988887      -2.13205840
H       -0.06960793      -1.40838142      -0.33681284
H       -1.53326191       1.71929259       1.41310856
12
Frame=9 idx=003468 GeodesicLength=0.5311412130611965 rxn_smarts="[N:1]([C@@:2]1([H:9])[C:3]([H:10])([H:11])[O:4]/[C:5]1=[N:6]\[H:12])([H:7])[H:8]>>[N:1]([C:2](/[C:5]([O+:4]=[C-:3][H:10])=[N:6]/[H:12])([H:9])[H:11])([H:7])[H:8]"
N        1.68476515      -0.41565643       0.61074667
C        0.59867056      -0.21046226      -0.27000129
C       -1.22155688      -0.97539274      -1.06959400
O       -1.61626171       0.22223004      -0.52021847
C       -0.53869911       0.64404173       0.23244936
N       -0.57409618       1.44831390       1.18761880
H        2.41676616       0.27209774       0.53305902
H        1.39657633      -0.50468360       1.57430362
H        0.96167354       0.17034981      -1.22657423
H       -1.51910927      -0.95017645      -2.13110197
H       -0.06287931      -1.43314883      -0.32624211
H       -1.52584930       1.73248709       1.40555460
12
Frame=10 idx=003468 GeodesicLength=0.5908658845928244 rxn_smarts="[N:1]([C@@:2]1([H:9])[C:3]([H:10])([H:11])[O:4]/[C:5]1=[N:6]\[H:12])([H:7])[H:8]>>[N:1]([C:2](/[C:5]([O+:4]=[C-:3][H:10])=[N:6]/[H:12])([H:9])[H:11])([H:7])[H:8]"
N        1.68769746      -0.41901516       0.60380302
C        0.59517901      -0.21504335      -0.27563334
C       -1.20162621      -0.96706812      -1.07626600
O       -1.62516530       0.20679519      -0.49866727
C       -0.53594150       0.64805068       0.23064004
N       -0.56768340       1.46065402       1.17819945
H        2.39184499       0.30025714       0.55248382
H        1.39539148      -0.53650354       1.56336742
H        0.96160220       0.17414658      -1.22793348
H       -1.52732493      -0.94132695      -2.12863247
H       -0.05501520      -1.45721593      -0.31831360
H       -1.51895860       1.74626944       1.39695241
12
Frame=11 idx=003468 GeodesicLength=0.6506787911847741 rxn_smarts="[N:1]([C@@:2]1([H:9])[C:3]([H:10])([H:11])[O:4]/[C:5]1=[N:6]\[H:12])([H:7])[H:8]>>[N:1]([C:2](/[C:5]([O+:4]=[C-:3][H:10])=[N:6]/[H:12])([H:9])[H:11])([H:7])[H:8]"
N        1.69064099      -0.42214699       0.59699901
C        0.59201553      -0.21882650      -0.28134791
C       -1.18200453      -0.95826582      -1.08232666
O       -1.63347332       0.19006009      -0.47582887
C       -0.53323374       0.65229634       0.22877400
N       -0.56185156       1.47275774       1.16895520
H        2.36644612       0.32583401       0.57302220
H        1.39440351      -0.56803295       1.55174768
H        0.96188754       0.17911556      -1.22909579
H       -1.53628286      -0.93326094      -2.12461221
H       -0.04592880      -1.48069482      -0.31311524
H       -1.51261887       1.76116428       1.38682859
12
Frame=12 idx=003468 GeodesicLength=0.7105788952877042 rxn_smarts="[N:1]([C@@:2]1([H:9])[C:3]([H:10])([H:11])[O:4]/[C:5]1=[N:6]\[H:12])([H:7])[H:8]>>[N:1]([C:2](/[C:5]([O+:4]=[C-:3][H:10])=[N:6]/[H:12])([H:9])[H:11])([H:7])[H:8]"
N        1.69366904      -0.42506928       0.59028362
C        0.58915634      -0.22183642      -0.28709567
C       -1.16278377      -0.94897630      -1.08776433
O       -1.64109288       0.17196427      -0.45159078
C       -0.53063422       0.65659891       0.22712194
N       -0.55672250       1.48427040       1.16035987
H        2.34063365       0.34898294       0.59463127
H        1.39376166      -0.59952003       1.53938111
H        0.96238690       0.18533104      -1.23000282
H       -1.54593483      -0.92592761      -2.11903248
H       -0.03552980      -1.50370784      -0.31078264
H       -1.50690959       1.77788993       1.37449091
12
Frame=13 idx=003468 GeodesicLength=0.7705836217058052 rxn_smarts="[N:1]([C@@:2]1([H:9])[C:3]([H:10])([H:11])[O:4]/[C:5]1=[N:6]\[H:12])([H:7])[H:8]>>[N:1]([C:2](/[C:5]([O+:4]=[C-:3][H:10])=[N:6]/[H:12])([H:9])[H:11])([H:7])[H:8]"
N        1.69666033      -0.42777285       0.58376067
C        0.58659415      -0.22407498      -0.29289110
C       -1.14403909      -0.93904935      -1.09251994
O       -1.64773770       0.15288623      -0.42626188
C       -0.52804536       0.66126756       0.22538526
N       -0.55222839       1.49565386       1.15197476
H        2.31445200       0.36965558       0.61719949
H        1.39323164      -0.63077538       1.52634488
H        0.96319122       0.19247418      -1.23075211
H       -1.55625397      -0.91947626      -2.11177732
H       -0.02395545      -1.52619826      -0.31107044
H       -1.50186938       1.79540966       1.36060774
12
Frame=14 idx=003468 GeodesicLength=0.8306162607332656 rxn_smarts="[N:1]([C@@:2]1([H:9])[C:3]([H:10])([H:11])[O:4]/[C:5]1=[N:6]\[H:12])([H:7])[H:8]>>[N:1]([C:2](/[C:5]([O+:4]=[C-:3][H:10])=[N:6]/[H:12])([H:9])[H:11])([H:7])[H:8]"
N        1.69955998      -0.43024650       0.57749877
C        0.58429321      -0.22560449      -0.29872783
C       -1.12596300      -0.92845672      -1.09653786
O       -1.65325795       0.13334314      -0.40030794
C       -0.52539571       0.66650848       0.22337947
N       -0.54828676       1.50724214       1.14355066
H        2.28806357       0.38788266       0.64056367
H        1.39270969      -0.66150624       1.51274626
H        0.96435877       0.20018372      -1.23142381
H       -1.56703099      -0.91412014      -2.10294192
H       -0.01148923      -1.54813903      -0.31373206
H       -1.49756158       1.81291298       1.34593258
12
Frame=15 idx=003468 GeodesicLength=0.8906545523609015 rxn_smarts="[N:1]([C@@:2]1([H:9])[C:3]([H:10])([H:11])[O:4]/[C:5]1=[N:6]\[H:12])([H:7])[H:8]>>[N:1]([C:2](/[C:5]([O+:4]=[C-:3][H:10])=[N:6]/[H:12])([H:9])[H:11])([H:7])[H:8]"
N        1.70212884      -0.43247087       0.57173415
C        0.58223028      -0.22648255      -0.30466721
C       -1.10867787      -0.91707980      -1.09979333
O       -1.65738260       0.11436111      -0.37468643
C       -0.52247371       0.67297940       0.22035773
N       -0.54452908       1.52021528       1.13386414
H        2.26160285       0.40360566       0.66441007
H        1.39170516      -0.69103863       1.49893151
H        0.96617071       0.20770025      -1.23228239
H       -1.57806046      -0.91031537      -2.09260308
H        0.00134110      -1.56936450      -0.31807350
H       -1.49405522       1.82789003       1.33280834
12
Frame=16 idx=003468 GeodesicLength=0.9506836587943858 rxn_smarts="[N:1]([C@@:2]1([H:9])[C:3]([H:10])([H:11])[O:4]/[C:5]1=[N:6]\[H:12])([H:7])[H:8]>>[N:1]([C:2](/[C:5]([O+:4]=[C-:3][H:10])=[N:6]/[H:12])([H:9])[H:11])([H:7])[H:8]"
N        1.70434276      -0.43446282       0.56646120
C        0.58036472      -0.22674775      -0.31070221
C       -1.09219659      -0.90500899      -1.10230439
O       -1.66010233       0.09624124      -0.34963168
C       -0.51930129       0.68065000       0.21633401
N       -0.54090040       1.53459569       1.12287003
H        2.23506593       0.41701170       0.68862439
H        1.39016435      -0.71943163       1.48493247
H        0.96858653       0.21495092      -1.23335497
H       -1.58915661      -0.90820184      -2.08084294
H        0.01442687      -1.58990507      -0.32393377
H       -1.49129394       1.84030855       1.32154786
