11
Frame=0 idx=011515 GeodesicLength=0.0 rxn_smarts="[N:1](=[c:2]1/[c:3]([H:9])[n:4][c:5]([H:10])[c:6]([H:11])[o:7]1)\[H:8]>>[N:1]([C:2]1=[C:3]=[N:4][C:5]([H:10])=[C:6]([H:11])[O:7]1)([H:8])[H:9]"
N        2.16405396      -0.05240353       0.02821183
C        0.88520435       0.09254469       0.01438499
C        0.35664897      -1.28797691      -0.02818365
N       -0.91871334      -1.45915799      -0.04929992
C       -1.69287232      -0.28672904      -0.03032114
C       -1.20236361       0.94972196       0.00762418
O        0.17063328       1.18797438       0.03252484
H        2.84919433       0.68742719       0.05736321
H        1.91876726      -1.28300220      -0.00663140
H       -2.76737386      -0.41799941      -0.04833033
H       -1.76317899       1.86960085       0.02265738
11
Frame=1 idx=011515 GeodesicLength=0.03810875081617742 rxn_smarts="[N:1](=[c:2]1/[c:3]([H:9])[n:4][c:5]([H:10])[c:6]([H:11])[o:7]1)\[H:8]>>[N:1]([C:2]1=[C:3]=[N:4][C:5]([H:10])=[C:6]([H:11])[O:7]1)([H:8])[H:9]"
N        2.16556859      -0.05191460       0.03154297
C        0.88828613       0.09186480      -0.04869031
C        0.35785274      -1.28908488      -0.04463756
N       -0.91864113      -1.45722460      -0.03625050
C       -1.69291068      -0.28598222      -0.02217757
C       -1.20035990       0.94973382       0.02081093
O        0.17160335       1.18512027       0.03394361
H        2.83796389       0.69925704       0.07200360
H        1.91773955      -1.29555667       0.01862422
H       -2.76713955      -0.41685160      -0.05442332
H       -1.75996299       1.87063863       0.02925393
11
Frame=2 idx=011515 GeodesicLength=0.07647827564692172 rxn_smarts="[N:1](=[c:2]1/[c:3]([H:9])[n:4][c:5]([H:10])[c:6]([H:11])[o:7]1)\[H:8]>>[N:1]([C:2]1=[C:3]=[N:4][C:5]([H:10])=[C:6]([H:11])[O:7]1)([H:8])[H:9]"
N        2.16616197      -0.05086312       0.03059696
C        0.89120334       0.09068058      -0.09244086
C        0.35900820      -1.28997802      -0.06608135
N       -0.91780816      -1.45503145      -0.02700972
C       -1.69235865      -0.28519712      -0.01728007
C       -1.19757918       0.94978008       0.02496533
O        0.17322240       1.18129702       0.03363712
H        2.82502900       0.71088784       0.09196139
H        1.91535630      -1.30714663       0.03774937
H       -2.76657033      -0.41614618      -0.04654750
H       -1.75566490       1.87171701       0.03044933
11
Frame=3 idx=011515 GeodesicLength=0.11508389477396075 rxn_smarts="[N:1](=[c:2]1/[c:3]([H:9])[n:4][c:5]([H:10])[c:6]([H:11])[o:7]1)\[H:8]>>[N:1]([C:2]1=[C:3]=[N:4][C:5]([H:10])=[C:6]([H:11])[O:7]1)([H:8])[H:9]"
N        2.16650765      -0.04971641       0.03301743
C        0.89421666       0.08949094      -0.12482054
C        0.36019510      -1.29072607      -0.08668401
N       -0.91658641      -1.45273251      -0.02316486
C       -1.69163866      -0.28449744      -0.01369435
C       -1.19474260       0.94980400       0.02823571
O        0.17487683       1.17753375       0.03301168
H        2.81245300       0.72232308       0.10399881
H        1.91204146      -1.31856275       0.05640172
H       -2.76591573      -0.41566701      -0.03730038
H       -1.75140731       1.87275042       0.03099880
11
Frame=4 idx=011515 GeodesicLength=0.15378128709299324 rxn_smarts="[N:1](=[c:2]1/[c:3]([H:9])[n:4][c:5]([H:10])[c:6]([H:11])[o:7]1)\[H:8]>>[N:1]([C:2]1=[C:3]=[N:4][C:5]([H:10])=[C:6]([H:11])[O:7]1)([H:8])[H:9]"
N        2.16681542      -0.04847660       0.03466259
C        0.89731184       0.08837682      -0.15249239
C        0.36145751      -1.29138001      -0.10578147
N       -0.91507121      -1.45038937      -0.02150325
C       -1.69074189      -0.28380924      -0.01110702
C       -1.19182720       0.94986759       0.03026983
O        0.17660741       1.17386534       0.03146858
H        2.79954898       0.73346823       0.11681838
H        1.90811717      -1.32990970       0.07258875
H       -2.76509213      -0.41539179      -0.02520222
H       -1.74712590       1.87377873       0.03027822
11
Frame=5 idx=011515 GeodesicLength=0.1925865462392951 rxn_smarts="[N:1](=[c:2]1/[c:3]([H:9])[n:4][c:5]([H:10])[c:6]([H:11])[o:7]1)\[H:8]>>[N:1]([C:2]1=[C:3]=[N:4][C:5]([H:10])=[C:6]([H:11])[O:7]1)([H:8])[H:9]"
N        2.16716277      -0.04713259       0.03550841
C        0.90056136       0.08734726      -0.17767185
C        0.36275317      -1.29197794      -0.12423209
N       -0.91335114      -1.44801579      -0.02114858
C       -1.68969717      -0.28313076      -0.00936330
C       -1.18883407       0.94996314       0.03097442
O        0.17838236       1.17031982       0.02876081
H        2.78618039       0.74432774       0.13148455
H        1.90370449      -1.34122574       0.08706185
H       -2.76403126      -0.41526249      -0.01018961
H       -1.74283090       1.87478736       0.02881539
11
Frame=6 idx=011515 GeodesicLength=0.23133083947518465 rxn_smarts="[N:1](=[c:2]1/[c:3]([H:9])[n:4][c:5]([H:10])[c:6]([H:11])[o:7]1)\[H:8]>>[N:1]([C:2]1=[C:3]=[N:4][C:5]([H:10])=[C:6]([H:11])[O:7]1)([H:8])[H:9]"
N        2.16753850      -0.04565560       0.03576397
C        0.90374086       0.08633026      -0.19994526
C        0.36404583      -1.29255915      -0.14005117
N       -0.91153906      -1.44561487      -0.02038347
C       -1.68861657      -0.28246543      -0.00724071
C       -1.18585021       0.95004232       0.03250659
O        0.18012254       1.16678460       0.02693444
H        2.77279661       0.75501560       0.14345904
H        1.89914632      -1.35252944       0.10015837
H       -2.76281624      -0.41510714       0.00112521
H       -1.73856857       1.87575885       0.02767299
11
Frame=7 idx=011515 GeodesicLength=0.27013107932769487 rxn_smarts="[N:1](=[c:2]1/[c:3]([H:9])[n:4][c:5]([H:10])[c:6]([H:11])[o:7]1)\[H:8]>>[N:1]([C:2]1=[C:3]=[N:4][C:5]([H:10])=[C:6]([H:11])[O:7]1)([H:8])[H:9]"
N        2.16795075      -0.04401434       0.03581901
C        0.90685336       0.08533378      -0.21999439
C        0.36532158      -1.29312442      -0.15393020
N       -0.90968648      -1.44323592      -0.01916318
C       -1.68750587      -0.28184088      -0.00419801
C       -1.18288016       0.95010026       0.03484217
O        0.18183334       1.16326968       0.02577852
H        2.75958536       0.76562582       0.15284740
H        1.89442690      -1.36388199       0.11231075
H       -2.76156062      -0.41491584       0.00873191
H       -1.73433816       1.87668384       0.02695600
11
Frame=8 idx=011515 GeodesicLength=0.3089709927763112 rxn_smarts="[N:1](=[c:2]1/[c:3]([H:9])[n:4][c:5]([H:10])[c:6]([H:11])[o:7]1)\[H:8]>>[N:1]([C:2]1=[C:3]=[N:4][C:5]([H:10])=[C:6]([H:11])[O:7]1)([H:8])[H:9]"
N        2.16840653      -0.04221173       0.03550737
C        0.90989680       0.08431778      -0.23847114
C        0.36658854      -1.29369982      -0.16621305
N       -0.90777530      -1.44087742      -0.01731860
C       -1.68634700      -0.28125200      -0.00029274
C       -1.17990136       0.95014186       0.03778654
O        0.18352807       1.15978996       0.02480085
H        2.74649846       0.77617354       0.16018496
H        1.88954604      -1.37526374       0.12400273
H       -2.76030984      -0.41468471       0.01283624
H       -1.73013094       1.87756630       0.02717684
11
Frame=9 idx=011515 GeodesicLength=0.3478492326824098 rxn_smarts="[N:1](=[c:2]1/[c:3]([H:9])[n:4][c:5]([H:10])[c:6]([H:11])[o:7]1)\[H:8]>>[N:1]([C:2]1=[C:3]=[N:4][C:5]([H:10])=[C:6]([H:11])[O:7]1)([H:8])[H:9]"
N        2.16888500      -0.04026030       0.03515412
C        0.91293436       0.08331994      -0.25574962
C        0.36788032      -1.29425076      -0.17762052
N       -0.90580298      -1.43852269      -0.01559402
C       -1.68513751      -0.28068410       0.00375154
C       -1.17691259       0.95017457       0.04082334
O        0.18520478       1.15635447       0.02381931
H        2.73347654       0.78662950       0.16640358
H        1.88444201      -1.38670345       0.13541836
H       -2.75902438      -0.41447303       0.01577438
H       -1.72594554       1.87841585       0.02781953
11
Frame=10 idx=011515 GeodesicLength=0.38676533664634316 rxn_smarts="[N:1](=[c:2]1/[c:3]([H:9])[n:4][c:5]([H:10])[c:6]([H:11])[o:7]1)\[H:8]>>[N:1]([C:2]1=[C:3]=[N:4][C:5]([H:10])=[C:6]([H:11])[O:7]1)([H:8])[H:9]"
N        2.16938486      -0.03816516       0.03477652
C        0.91599417       0.08234846      -0.27212499
C        0.36921165      -1.29477022      -0.18846947
N       -0.90376450      -1.43616675      -0.01416625
C       -1.68387041      -0.28013348       0.00775291
C       -1.17390574       0.95020291       0.04378775
O        0.18686947       1.15297593       0.02266711
H        2.72045100       0.79698261       0.17204589
H        1.87908787      -1.39821282       0.14664490
H       -2.75768155      -0.41429896       0.01836441
H       -1.72177681       1.87923747       0.02872122
11
Frame=11 idx=011515 GeodesicLength=0.4257278987672952 rxn_smarts="[N:1](=[c:2]1/[c:3]([H:9])[n:4][c:5]([H:10])[c:6]([H:11])[o:7]1)\[H:8]>>[N:1]([C:2]1=[C:3]=[N:4][C:5]([H:10])=[C:6]([H:11])[O:7]1)([H:8])[H:9]"
N        2.16990002      -0.03593119       0.03455761
C        0.91914367       0.08141610      -0.28782787
C        0.37062259      -1.29524533      -0.19911640
N       -0.90166536      -1.43380388      -0.01353877
C       -1.68254744      -0.27958912       0.01108128
C       -1.17087734       0.95022840       0.04628314
O        0.18852596       1.14966057       0.02113929
H        2.70736111       0.80722255       0.17763460
H        1.87341007      -1.40979869       0.15791695
H       -2.75625628      -0.41420211       0.02209488
H       -1.71761698       1.88004271       0.02977529
11
Frame=12 idx=011515 GeodesicLength=0.4647380059206592 rxn_smarts="[N:1](=[c:2]1/[c:3]([H:9])[n:4][c:5]([H:10])[c:6]([H:11])[o:7]1)\[H:8]>>[N:1]([C:2]1=[C:3]=[N:4][C:5]([H:10])=[C:6]([H:11])[O:7]1)([H:8])[H:9]"
N        2.17045205      -0.03354351       0.03414119
C        0.92232353       0.08044765      -0.30301273
C        0.37208925      -1.29573552      -0.20919530
N       -0.89950890      -1.43145600      -0.01300696
C       -1.68116026      -0.27906832       0.01442422
C       -1.16780869       0.95023689       0.04869049
O        0.19018121       1.14640420       0.01913521
H        2.69423725       0.81740718       0.18258123
H        1.86741872      -1.42139966       0.16950110
H       -2.75477719      -0.41411981       0.02495990
H       -1.71344696       1.88082690       0.03178165
11
Frame=13 idx=011515 GeodesicLength=0.5038034671454799 rxn_smarts="[N:1](=[c:2]1/[c:3]([H:9])[n:4][c:5]([H:10])[c:6]([H:11])[o:7]1)\[H:8]>>[N:1]([C:2]1=[C:3]=[N:4][C:5]([H:10])=[C:6]([H:11])[O:7]1)([H:8])[H:9]"
N        2.17103436      -0.03100717       0.03374927
C        0.92559760       0.07948125      -0.31777474
C        0.37365069      -1.29621083      -0.21907154
N       -0.89730390      -1.42911528      -0.01315503
C       -1.67971589      -0.27856045       0.01716155
C       -1.16470103       0.95022717       0.05075333
O        0.19183667       1.14320597       0.01665947
H        2.68103440       0.82751562       0.18738593
H        1.86104310      -1.43303150       0.18145271
H       -2.75322103      -0.41409967       0.02857976
H       -1.70925496       1.88159490       0.03425929
11
Frame=14 idx=011515 GeodesicLength=0.5429109663067966 rxn_smarts="[N:1](=[c:2]1/[c:3]([H:9])[n:4][c:5]([H:10])[c:6]([H:11])[o:7]1)\[H:8]>>[N:1]([C:2]1=[C:3]=[N:4][C:5]([H:10])=[C:6]([H:11])[O:7]1)([H:8])[H:9]"
N        2.17164792      -0.02831135       0.03339582
C        0.92892284       0.07852533      -0.33199323
C        0.37528830      -1.29666993      -0.22856377
N       -0.89507434      -1.42678964      -0.01371318
C       -1.67823212      -0.27807390       0.01968595
C       -1.16157321       0.95019342       0.05280659
O        0.19347732       1.14004768       0.01407502
H        2.66787394       0.83758194       0.19157245
H        1.85434432      -1.44472545       0.19359028
H       -2.75162245      -0.41411521       0.03206542
H       -1.70505252       1.88233711       0.03707866
11
Frame=15 idx=011515 GeodesicLength=0.5820424022463253 rxn_smarts="[N:1](=[c:2]1/[c:3]([H:9])[n:4][c:5]([H:10])[c:6]([H:11])[o:7]1)\[H:8]>>[N:1]([C:2]1=[C:3]=[N:4][C:5]([H:10])=[C:6]([H:11])[O:7]1)([H:8])[H:9]"
N        2.17229210      -0.02544807       0.03316756
C        0.93228175       0.07759999      -0.34557003
C        0.37699396      -1.29710162      -0.23759543
N       -0.89284191      -1.42447649      -0.01459506
C       -1.67673424      -0.27760768       0.02203614
C       -1.15845041       0.95013794       0.05492597
O        0.19508789       1.13691787       0.01164525
H        2.65485260       0.84762408       0.19496744
H        1.84738826      -1.45653681       0.20570556
H       -2.75000902      -0.41416256       0.03526916
H       -1.70086098       1.88305335       0.04004344
11
Frame=16 idx=011515 GeodesicLength=0.6211832997228367 rxn_smarts="[N:1](=[c:2]1/[c:3]([H:9])[n:4][c:5]([H:10])[c:6]([H:11])[o:7]1)\[H:8]>>[N:1]([C:2]1=[C:3]=[N:4][C:5]([H:10])=[C:6]([H:11])[O:7]1)([H:8])[H:9]"
N        2.17296846      -0.02241356       0.03315477
C        0.93569631       0.07671293      -0.35852202
C        0.37878306      -1.29749994      -0.24621062
N       -0.89062253      -1.42216969      -0.01593467
C       -1.67524291      -0.27715402       0.02392897
C       -1.15534678       0.95006291       0.05695087
O        0.19666257       1.13381477       0.00936708
H        2.64200107       0.85764839       0.19767473
H        1.84018020      -1.46849365       0.21780285
H       -2.74838819      -0.41425706       0.03866353
H       -1.69669127       1.88374894       0.04312450
