12
Frame=0 idx=009505 GeodesicLength=0.0 rxn_smarts="[C:1]([c:2]1[c:3]([H:11])[o:4][c:5]([O:6][H:12])[n:7]1)([H:8])([H:9])[H:10]>>[C:1]([C@:2]1([H:11])[C-:3]=[O+:4][C:5]([O:6][H:12])=[N:7]1)([H:8])([H:9])[H:10]"
C       -1.86977423       0.25552856       0.22099871
C       -0.46380677      -0.16465366      -0.06863577
C        0.01398154      -1.51925950      -0.09472855
O        1.38682765      -1.31775612      -0.11221561
C        1.62239682      -0.00273435       0.01663402
O        2.89386978       0.32796095       0.08212612
N        0.59988706       0.76336306       0.04111105
H       -1.95150781       0.51361638       1.27700766
H       -2.14712132       1.13057687      -0.36573373
H       -2.55737201      -0.56258874       0.01058852
H       -0.47202692      -0.71013137      -1.17391232
H        2.94464617       1.28607797       0.16675985
12
Frame=1 idx=009505 GeodesicLength=0.047244997254318924 rxn_smarts="[C:1]([c:2]1[c:3]([H:11])[o:4][c:5]([O:6][H:12])[n:7]1)([H:8])([H:9])[H:10]>>[C:1]([C@:2]1([H:11])[C-:3]=[O+:4][C:5]([O:6][H:12])=[N:7]1)([H:8])([H:9])[H:10]"
C       -1.86724851       0.25739144       0.22435893
C       -0.46513533      -0.16177223      -0.08526451
C        0.01582202      -1.51394053      -0.09575517
O        1.38676392      -1.31654674      -0.10896972
C        1.62212853       0.00073473       0.01171022
O        2.89347909       0.32941660       0.09325020
N        0.59974119       0.76636985       0.02062794
H       -1.93690179       0.51455042       1.28151116
H       -2.15135935       1.13300777      -0.35839597
H       -2.55826641      -0.55960797       0.02078858
H       -0.48305745      -0.73632561      -1.19047380
H        2.94403410       1.28672227       0.18661214
12
Frame=2 idx=009505 GeodesicLength=0.09446091680123886 rxn_smarts="[C:1]([c:2]1[c:3]([H:11])[o:4][c:5]([O:6][H:12])[n:7]1)([H:8])([H:9])[H:10]>>[C:1]([C@:2]1([H:11])[C-:3]=[O+:4][C:5]([O:6][H:12])=[N:7]1)([H:8])([H:9])[H:10]"
C       -1.86455983       0.25930725       0.22747638
C       -0.46649163      -0.15901299      -0.10168214
C        0.01755607      -1.50861123      -0.09720710
O        1.38658560      -1.31535588      -0.10517857
C        1.62175227       0.00403140       0.00855237
O        2.89291988       0.33115371       0.10267596
N        0.59962353       0.76906271       0.00174834
H       -1.92263076       0.51486829       1.28576526
H       -2.15487547       1.13592297      -0.35082223
H       -2.55904217      -0.55626077       0.02990519
H       -0.49377821      -0.76264307      -1.20647735
H        2.94294072       1.28753761       0.20524388
12
Frame=3 idx=009505 GeodesicLength=0.14172186919393182 rxn_smarts="[C:1]([c:2]1[c:3]([H:11])[o:4][c:5]([O:6][H:12])[n:7]1)([H:8])([H:9])[H:10]>>[C:1]([C@:2]1([H:11])[C-:3]=[O+:4][C:5]([O:6][H:12])=[N:7]1)([H:8])([H:9])[H:10]"
C       -1.86157366       0.26134249       0.23053295
C       -0.46788171      -0.15638550      -0.11826842
C        0.01926679      -1.50327521      -0.09892826
O        1.38635606      -1.31408813      -0.10162341
C        1.62130089       0.00736655       0.00543818
O        2.89214711       0.33320044       0.11147755
N        0.59952681       0.77159957      -0.01712504
H       -1.90795392       0.51530089       1.28984486
H       -2.15795133       1.13900337      -0.34322916
H       -2.55962756      -0.55267651       0.03904906
H       -0.50483338      -0.78979139      -1.22193465
H        2.94122391       1.28840344       0.22476634
12
Frame=4 idx=009505 GeodesicLength=0.1889230820891073 rxn_smarts="[C:1]([c:2]1[c:3]([H:11])[o:4][c:5]([O:6][H:12])[n:7]1)([H:8])([H:9])[H:10]>>[C:1]([C@:2]1([H:11])[C-:3]=[O+:4][C:5]([O:6][H:12])=[N:7]1)([H:8])([H:9])[H:10]"
C       -1.85837761       0.26343012       0.23345934
C       -0.46929884      -0.15385333      -0.13482799
C        0.02091495      -1.49789190      -0.10114890
O        1.38603447      -1.31276599      -0.09806169
C        1.62073279       0.01062604       0.00321641
O        2.89118169       0.33539890       0.12034126
N        0.59944882       0.77390729      -0.03512468
H       -1.89328649       0.51533689       1.29373967
H       -2.16046895       1.14240266      -0.33539993
H       -2.56007120      -0.54879147       0.04761525
H       -0.51591725      -0.81727692      -1.23685968
H        2.93910763       1.28947770       0.24305094
12
Frame=5 idx=009505 GeodesicLength=0.23598241005722764 rxn_smarts="[C:1]([c:2]1[c:3]([H:11])[o:4][c:5]([O:6][H:12])[n:7]1)([H:8])([H:9])[H:10]>>[C:1]([C@:2]1([H:11])[C-:3]=[O+:4][C:5]([O:6][H:12])=[N:7]1)([H:8])([H:9])[H:10]"
C       -1.85565554       0.26523233       0.23566899
C       -0.47072422      -0.15118780      -0.15005726
C        0.02222326      -1.49244110      -0.10420888
O        1.38534438      -1.31159718      -0.09193968
C        1.61979475       0.01343491       0.00740983
O        2.89059059       0.33752591       0.12539903
N        0.59935570       0.77589338      -0.04708006
H       -1.88133314       0.51263028       1.29731403
H       -2.16190675       1.14690360      -0.32687169
H       -2.56082235      -0.54452780       0.05211603
H       -0.52503284      -0.84274502      -1.25139899
H        2.93816616       1.29087849       0.25364863
12
Frame=6 idx=009505 GeodesicLength=0.28304717388653877 rxn_smarts="[C:1]([c:2]1[c:3]([H:11])[o:4][c:5]([O:6][H:12])[n:7]1)([H:8])([H:9])[H:10]>>[C:1]([C@:2]1([H:11])[C-:3]=[O+:4][C:5]([O:6][H:12])=[N:7]1)([H:8])([H:9])[H:10]"
C       -1.85315853       0.26686226       0.23747661
C       -0.47213894      -0.14839075      -0.16459941
C        0.02334269      -1.48689655      -0.10788359
O        1.38437850      -1.31042108      -0.08452514
C        1.61854283       0.01609431       0.01525080
O        2.89019458       0.33953248       0.12879814
N        0.59924534       0.77777043      -0.05563586
H       -1.87084774       0.50831716       1.30069671
H       -2.16268950       1.15200340      -0.31789972
H       -2.56173761      -0.54004605       0.05433941
H       -0.53319237      -0.86733313      -1.26565770
H        2.93806074       1.29250755       0.25963975
12
Frame=7 idx=009505 GeodesicLength=0.33014337754294076 rxn_smarts="[C:1]([c:2]1[c:3]([H:11])[o:4][c:5]([O:6][H:12])[n:7]1)([H:8])([H:9])[H:10]>>[C:1]([C@:2]1([H:11])[C-:3]=[O+:4][C:5]([O:6][H:12])=[N:7]1)([H:8])([H:9])[H:10]"
C       -1.85029793       0.26862470       0.23937345
C       -0.47355571      -0.14564813      -0.17958896
C        0.02453039      -1.48129719      -0.11174689
O        1.38338780      -1.30905450      -0.07800641
C        1.61719448       0.01899933       0.02175366
O        2.88954427       0.34171891       0.13287661
N        0.59914682       0.77969090      -0.06546087
H       -1.85945252       0.50458087       1.30397836
H       -2.16331269       1.15696286      -0.30902829
H       -2.56243192      -0.53545943       0.05743252
H       -0.54220348      -0.89322826      -1.27939249
H        2.93745049       1.29410993       0.26780930
12
Frame=8 idx=009505 GeodesicLength=0.3773013988126389 rxn_smarts="[C:1]([c:2]1[c:3]([H:11])[o:4][c:5]([O:6][H:12])[n:7]1)([H:8])([H:9])[H:10]>>[C:1]([C@:2]1([H:11])[C-:3]=[O+:4][C:5]([O:6][H:12])=[N:7]1)([H:8])([H:9])[H:10]"
C       -1.84682897       0.27063376       0.24153051
C       -0.47500730      -0.14307287      -0.19544100
C        0.02585068      -1.47568536      -0.11581035
O        1.38247261      -1.30747046      -0.07324526
C        1.61583964       0.02222382       0.02528979
O        2.88844481       0.34419180       0.13903361
N        0.59908026       0.78164963      -0.07814926
H       -1.84626566       0.50211967       1.30720003
H       -2.16386862       1.16160370      -0.30038095
H       -2.56274207      -0.53076953       0.06244173
H       -0.55274478      -0.92115520      -1.29245538
H        2.93576940       1.29573105       0.27998653
12
Frame=9 idx=009505 GeodesicLength=0.4244352343844461 rxn_smarts="[C:1]([c:2]1[c:3]([H:11])[o:4][c:5]([O:6][H:12])[n:7]1)([H:8])([H:9])[H:10]>>[C:1]([C@:2]1([H:11])[C-:3]=[O+:4][C:5]([O:6][H:12])=[N:7]1)([H:8])([H:9])[H:10]"
C       -1.84349283       0.27251021       0.24336138
C       -0.47642415      -0.14035200      -0.21077084
C        0.02705377      -1.46996653      -0.12044609
O        1.38132593      -1.30584147      -0.06757100
C        1.61419978       0.02538301       0.03153709
O        2.88743145       0.34654339       0.14406541
N        0.59901208       0.78355452      -0.08822344
H       -1.83417298       0.49839840       1.31023256
H       -2.16386810       1.16668710      -0.29138364
H       -2.56314615      -0.52589539       0.06570422
H       -0.56266308      -0.94855175      -1.30513290
H        2.93474427       1.29753052       0.28862724
12
Frame=10 idx=009505 GeodesicLength=0.47161709480916253 rxn_smarts="[C:1]([c:2]1[c:3]([H:11])[o:4][c:5]([O:6][H:12])[n:7]1)([H:8])([H:9])[H:10]>>[C:1]([C@:2]1([H:11])[C-:3]=[O+:4][C:5]([O:6][H:12])=[N:7]1)([H:8])([H:9])[H:10]"
C       -1.83993216       0.27443241       0.24515178
C       -0.47783202      -0.13761866      -0.22624060
C        0.02826962      -1.46418928      -0.12553723
O        1.38010110      -1.30409346      -0.06231891
C        1.61240755       0.02865840       0.03776578
O        2.88623204       0.34893258       0.14976526
N        0.59896484       0.78546256      -0.09833600
H       -1.82178872       0.49461261       1.31314526
H       -2.16354419       1.17185226      -0.28229254
H       -2.56341094      -0.52088036       0.06897765
H       -0.57302832      -0.97664082      -1.31726467
H        2.93356120       1.29947177       0.29718422
12
Frame=11 idx=009505 GeodesicLength=0.5188306228628546 rxn_smarts="[C:1]([c:2]1[c:3]([H:11])[o:4][c:5]([O:6][H:12])[n:7]1)([H:8])([H:9])[H:10]>>[C:1]([C@:2]1([H:11])[C-:3]=[O+:4][C:5]([O:6][H:12])=[N:7]1)([H:8])([H:9])[H:10]"
C       -1.83600526       0.27646387       0.24698867
C       -0.47925194      -0.13494195      -0.24209116
C        0.02953352      -1.45837497      -0.13110976
O        1.37885420      -1.30221010      -0.05794181
C        1.61049245       0.03207982       0.04315320
O        2.88474022       0.35144280       0.15678281
N        0.59896088       0.78736138      -0.10941197
H       -1.80860739       0.49112447       1.31595076
H       -2.16293004       1.17701152      -0.27315990
H       -2.56344819      -0.51570980       0.07281986
H       -0.58422703      -1.00582678      -1.32873009
H        2.93188857       1.30157974       0.30674938
12
Frame=12 idx=009505 GeodesicLength=0.5661118456109855 rxn_smarts="[C:1]([c:2]1[c:3]([H:11])[o:4][c:5]([O:6][H:12])[n:7]1)([H:8])([H:9])[H:10]>>[C:1]([C@:2]1([H:11])[C-:3]=[O+:4][C:5]([O:6][H:12])=[N:7]1)([H:8])([H:9])[H:10]"
C       -1.83152262       0.27870246       0.24896439
C       -0.48072306      -0.13242060      -0.25859751
C        0.03088375      -1.45259287      -0.13717397
O        1.37765870      -1.30020075      -0.05495673
C        1.60850010       0.03569537       0.04672040
O        2.88281650       0.35424775       0.16542507
N        0.59902103       0.78922167      -0.12254009
H       -1.79400794       0.48843301       1.31864585
H       -2.16203353       1.18208481      -0.26409883
H       -2.56311969      -0.51036313       0.07791700
H       -0.59668668      -1.03663794      -1.33933347
H        2.92921341       1.30383021       0.31902788
12
Frame=13 idx=009505 GeodesicLength=0.6134979963091791 rxn_smarts="[C:1]([c:2]1[c:3]([H:11])[o:4][c:5]([O:6][H:12])[n:7]1)([H:8])([H:9])[H:10]>>[C:1]([C@:2]1([H:11])[C-:3]=[O+:4][C:5]([O:6][H:12])=[N:7]1)([H:8])([H:9])[H:10]"
C       -1.82638009       0.28118342       0.25110370
C       -0.48226405      -0.13010457      -0.27588909
C        0.03234794      -1.44683298      -0.14376113
O        1.37657804      -1.29803204      -0.05363169
C        1.60644919       0.03951782       0.04817463
O        2.88032809       0.35740169       0.17585939
N        0.59916445       0.79099403      -0.13816817
H       -1.77770003       0.48671894       1.32118779
H       -2.16080975       1.18703621      -0.25513630
H       -2.56234389      -0.50481244       0.08453915
H       -0.61061217      -1.06926489      -1.34892519
H        2.92524226       1.30619480       0.33464691
12
Frame=14 idx=009505 GeodesicLength=0.6609690997650646 rxn_smarts="[C:1]([c:2]1[c:3]([H:11])[o:4][c:5]([O:6][H:12])[n:7]1)([H:8])([H:9])[H:10]>>[C:1]([C@:2]1([H:11])[C-:3]=[O+:4][C:5]([O:6][H:12])=[N:7]1)([H:8])([H:9])[H:10]"
C       -1.82073809       0.28383258       0.25327579
C       -0.48385381      -0.12792269      -0.29362980
C        0.03387372      -1.44110969      -0.15099461
O        1.37553229      -1.29578309      -0.05333075
C        1.60428994       0.04344995       0.04862794
O        2.87741264       0.36085057       0.18734054
N        0.59939325       0.79266215      -0.15507012
H       -1.76033780       0.48541052       1.32355736
H       -2.15912904       1.19206268      -0.24615127
H       -2.56121757      -0.49902798       0.09184836
H       -0.62553282      -1.10315179      -1.35749013
H        2.92030731       1.30872679       0.35201670
12
Frame=15 idx=009505 GeodesicLength=0.7085031811783057 rxn_smarts="[C:1]([c:2]1[c:3]([H:11])[o:4][c:5]([O:6][H:12])[n:7]1)([H:8])([H:9])[H:10]>>[C:1]([C@:2]1([H:11])[C-:3]=[O+:4][C:5]([O:6][H:12])=[N:7]1)([H:8])([H:9])[H:10]"
C       -1.81473842       0.28657484       0.25538524
C       -0.48546212      -0.12578113      -0.31155886
C        0.03543947      -1.43538143      -0.15893141
O        1.37446891      -1.29346726      -0.05358983
C        1.60199627       0.04744776       0.04886909
O        2.87414179       0.36446672       0.19943547
N        0.59970465       0.79424558      -0.17228646
H       -1.74245068       0.48407496       1.32573311
H       -2.15693907       1.19725385      -0.23706354
H       -2.55982059      -0.49302212       0.09923320
H       -0.64108233      -1.13783914      -1.36505229
H        2.91474213       1.31142738       0.36982628
12
Frame=16 idx=009505 GeodesicLength=0.7560769224297813 rxn_smarts="[C:1]([c:2]1[c:3]([H:11])[o:4][c:5]([O:6][H:12])[n:7]1)([H:8])([H:9])[H:10]>>[C:1]([C@:2]1([H:11])[C-:3]=[O+:4][C:5]([O:6][H:12])=[N:7]1)([H:8])([H:9])[H:10]"
C       -1.80846493       0.28936958       0.25738239
C       -0.48707342      -0.12361683      -0.32954000
C        0.03703604      -1.42962177      -0.16759471
O        1.37335590      -1.29108796      -0.05416574
C        1.59955891       0.05149784       0.04923009
O        2.87058029       0.36819172       0.21181430
N        0.60009606       0.79577664      -0.18934578
H       -1.72431894       0.48251769       1.32770188
H       -2.15424021       1.20263095      -0.22786208
H       -2.55819706      -0.48682259       0.10640796
H       -0.65708032      -1.17310278      -1.37159540
H        2.90874769       1.31426751       0.38756711
