16
Frame=0 idx=004071 GeodesicLength=0.0 rxn_smarts="[C:1]([C@@:2]1([H:10])[C:3]([H:11])([H:12])[C@:4]1([C:5]([H:13])([H:14])[H:15])[O:6][H:16])([H:7])([H:8])[H:9]>>[C:1](=[C:2]([C:3]([C:4](=[C:5]([H:13])[H:14])[O:6][H:16])([H:11])[H:12])[H:10])([H:7])[H:8].[H:9][H:15]"
C        1.50423207      -0.35203604       0.95915926
C        1.24173942      -0.19121953      -0.38072491
C        0.15391183      -0.90069153      -1.12011497
C       -0.79655455       0.17450695      -0.75343709
C       -1.47425252       0.21812603       0.45116687
O       -0.84188432       1.20126960      -1.65318076
H        1.25798682      -1.29404694       1.44400355
H        2.35033655       0.17385085       1.38678125
H        0.42899599       0.40407233       1.70500453
H        1.67583594       0.65657650      -0.89781414
H        0.31001677      -0.98882041      -2.19308008
H       -0.11421376      -1.86319464      -0.68654697
H       -1.70355800      -0.72881981       0.92665435
H       -2.23544780       0.98168587       0.58284812
H       -0.46471977       0.55652685       1.48975020
H       -1.29242465       1.95221394      -1.26046921
16
Frame=1 idx=004071 GeodesicLength=0.06937568223279053 rxn_smarts="[C:1]([C@@:2]1([H:10])[C:3]([H:11])([H:12])[C@:4]1([C:5]([H:13])([H:14])[H:15])[O:6][H:16])([H:7])([H:8])[H:9]>>[C:1](=[C:2]([C:3]([C:4](=[C:5]([H:13])[H:14])[O:6][H:16])([H:11])[H:12])[H:10])([H:7])[H:8].[H:9][H:15]"
C        1.51609713      -0.34522966       0.95762834
C        1.23493104      -0.18064277      -0.38060666
C        0.15100607      -0.90376209      -1.11294995
C       -0.79155610       0.17985247      -0.74905834
C       -1.48619641       0.22348270       0.44826806
O       -0.84335772       1.19660354      -1.66059357
H        1.30934585      -1.30227227       1.43150446
H        2.36200360       0.19027761       1.37444514
H        0.42500779       0.38270431       1.73179089
H        1.67540787       0.65721856      -0.90818019
H        0.30557387      -0.99873200      -2.18543062
H       -0.11571120      -1.86158000      -0.66893931
H       -1.74945779      -0.72570764       0.90131533
H       -2.23831697       0.99716863       0.57522381
H       -0.48062336       0.53170747       1.51319094
H       -1.27415365       1.95891115      -1.26760832
16
Frame=2 idx=004071 GeodesicLength=0.13824695362168588 rxn_smarts="[C:1]([C@@:2]1([H:10])[C:3]([H:11])([H:12])[C@:4]1([C:5]([H:13])([H:14])[H:15])[O:6][H:16])([H:7])([H:8])[H:9]>>[C:1](=[C:2]([C:3]([C:4](=[C:5]([H:13])[H:14])[O:6][H:16])([H:11])[H:12])[H:10])([H:7])[H:8].[H:9][H:15]"
C        1.52796331      -0.33834750       0.95621182
C        1.22820197      -0.17020160      -0.38020823
C        0.14806877      -0.90673298      -1.10534449
C       -0.78655189       0.18533678      -0.74445046
C       -1.49798403       0.22917148       0.44546120
O       -0.84462343       1.19186957      -1.66776829
H        1.36179758      -1.30932643       1.41772745
H        2.37281918       0.20758180       1.36242742
H        0.42102790       0.35946841       1.75877177
H        1.67513698       0.65727551      -0.91847068
H        0.30109654      -1.00869127      -2.17727925
H       -0.11731451      -1.85968269      -0.65082144
H       -1.79584905      -0.72107899       0.87442699
H       -2.23985634       1.01370700       0.56848833
H       -0.49683862       0.50485147       1.53664199
H       -1.25709435       1.96479945      -1.27581415
16
Frame=3 idx=004071 GeodesicLength=0.20658644277667965 rxn_smarts="[C:1]([C@@:2]1([H:10])[C:3]([H:11])([H:12])[C@:4]1([C:5]([H:13])([H:14])[H:15])[O:6][H:16])([H:7])([H:8])[H:9]>>[C:1](=[C:2]([C:3]([C:4](=[C:5]([H:13])[H:14])[O:6][H:16])([H:11])[H:12])[H:10])([H:7])[H:8].[H:9][H:15]"
C        1.53977506      -0.33138312       0.95490828
C        1.22154714      -0.15991097      -0.37955291
C        0.14509783      -0.90963432      -1.09732006
C       -0.78156830       0.19090671      -0.73963882
C       -1.50959116       0.23513998       0.44275947
O       -0.84571813       1.18702307      -1.67471665
H        1.41511717      -1.31504436       1.40268878
H        2.38269363       0.22574202       1.35077928
H        0.41706227       0.33439979       1.78582227
H        1.67497786       0.65674846      -0.92867981
H        0.29658203      -1.01872363      -2.16864516
H       -0.11901037      -1.85753179      -0.63221358
H       -1.84247537      -0.71484474       0.84607659
H       -2.24005685       1.03116579       0.56269524
H       -0.51337182       0.47599767       1.55994119
H       -1.24106100       1.96994945      -1.28490410
16
Frame=4 idx=004071 GeodesicLength=0.2743971274851976 rxn_smarts="[C:1]([C@@:2]1([H:10])[C:3]([H:11])([H:12])[C@:4]1([C:5]([H:13])([H:14])[H:15])[O:6][H:16])([H:7])([H:8])[H:9]>>[C:1](=[C:2]([C:3]([C:4](=[C:5]([H:13])[H:14])[O:6][H:16])([H:11])[H:12])[H:10])([H:7])[H:8].[H:9][H:15]"
C        1.55147920      -0.32433277       0.95371253
C        1.21495827      -0.14978426      -0.37866875
C        0.14209119      -0.91249734      -1.08890222
C       -0.77663401       0.19650552      -0.73465060
C       -1.52099660       0.24133338       0.44017651
O       -0.84668581       1.18202129      -1.68144798
H        1.46907743      -1.31927224       1.38641887
H        2.39155127       0.24472257       1.33954314
H        0.41311746       0.30755060       1.81282785
H        1.67487968       0.65564692      -0.93880319
H        0.29202677      -1.02885222      -2.15955241
H       -0.12078328      -1.85515874      -0.61314373
H       -1.88908785      -0.70693909       0.81637739
H       -2.23892928       1.04939387       0.55787979
H       -0.53022436       0.44522362       1.58292707
H       -1.22584007       1.97443891      -1.29469426
16
Frame=5 idx=004071 GeodesicLength=0.34170321335621046 rxn_smarts="[C:1]([C@@:2]1([H:10])[C:3]([H:11])([H:12])[C@:4]1([C:5]([H:13])([H:14])[H:15])[O:6][H:16])([H:7])([H:8])[H:9]>>[C:1](=[C:2]([C:3]([C:4](=[C:5]([H:13])[H:14])[O:6][H:16])([H:11])[H:12])[H:10])([H:7])[H:8].[H:9][H:15]"
C        1.56302477      -0.31720426       0.95262531
C        1.20843269      -0.13983500      -0.37757923
C        0.13905200      -0.91534162      -1.08012215
C       -0.77176768       0.20208974      -0.72951243
C       -1.53217583       0.24770411       0.43772727
O       -0.84755304       1.17684054      -1.68796446
H        1.52343873      -1.32190700       1.36896384
H        2.39934162       0.26444797       1.32875950
H        0.40921059       0.27898517       1.83968466
H        1.67480492       0.65397949      -0.94882517
H        0.28743635      -1.03908149      -2.15003044
H       -0.12261895      -1.85258743      -0.59365645
H       -1.93543063      -0.69730969       0.78547171
H       -2.23650423       1.06822741       0.55406028
H       -0.54738272       0.41267927       1.60544717
H       -1.21130860       1.97831278      -1.30504944
16
Frame=6 idx=004071 GeodesicLength=0.4084699067378791 rxn_smarts="[C:1]([C@@:2]1([H:10])[C:3]([H:11])([H:12])[C@:4]1([C:5]([H:13])([H:14])[H:15])[O:6][H:16])([H:7])([H:8])[H:9]>>[C:1](=[C:2]([C:3]([C:4](=[C:5]([H:13])[H:14])[O:6][H:16])([H:11])[H:12])[H:10])([H:7])[H:8].[H:9][H:15]"
C        1.57435912      -0.31004611       0.95165264
C        1.20197500      -0.13009232      -0.37630566
C        0.13598963      -0.91817859      -1.07102954
C       -0.76697703       0.20762313      -0.72424877
C       -1.54309233       0.25420116       0.43543002
O       -0.84832658       1.17148612      -1.69424762
H        1.57785812      -1.32283729       1.35041406
H        2.40604781       0.28474859       1.31847343
H        0.40538812       0.24884203       1.86626310
H        1.67472936       0.65176380      -0.95870011
H        0.28282749      -1.04938358      -2.14013068
H       -0.12450637      -1.84984281      -0.57383812
H       -1.98116712      -0.68593803       0.75357082
H       -2.23286744       1.08745119       0.55122323
H       -0.56480028       0.37861114       1.62732929
H       -1.19743750       1.98159158      -1.31585609
16
Frame=7 idx=004071 GeodesicLength=0.4746988837526124 rxn_smarts="[C:1]([C@@:2]1([H:10])[C:3]([H:11])([H:12])[C@:4]1([C:5]([H:13])([H:14])[H:15])[O:6][H:16])([H:7])([H:8])[H:9]>>[C:1](=[C:2]([C:3]([C:4](=[C:5]([H:13])[H:14])[O:6][H:16])([H:11])[H:12])[H:10])([H:7])[H:8].[H:9][H:15]"
C        1.58543407      -0.30291160       0.95079918
C        1.19558562      -0.12057847      -0.37486616
C        0.13291235      -0.92101602      -1.06167712
C       -0.76227103       0.21307269      -0.71888484
C       -1.55372948       0.26076329       0.43329335
O       -0.84901350       1.16596947      -1.70027880
H        1.63204343      -1.32200353       1.33087049
H        2.41168463       0.30543968       1.30871038
H        0.40169116       0.21728011       1.89245557
H        1.67462896       0.64902791      -0.96837794
H        0.27821743      -1.05972556      -2.12990805
H       -0.12643331      -1.84695284      -0.55378109
H       -2.02599041      -0.67282284       0.72089658
H       -2.22813262       1.10684472       0.54932903
H       -0.58243793       0.34331910       1.64842608
H       -1.18418936       1.98429388      -1.32700667
16
Frame=8 idx=004071 GeodesicLength=0.5403964784654457 rxn_smarts="[C:1]([C@@:2]1([H:10])[C:3]([H:11])([H:12])[C@:4]1([C:5]([H:13])([H:14])[H:15])[O:6][H:16])([H:7])([H:8])[H:9]>>[C:1](=[C:2]([C:3]([C:4](=[C:5]([H:13])[H:14])[O:6][H:16])([H:11])[H:12])[H:10])([H:7])[H:8].[H:9][H:15]"
C        1.59621678      -0.29584972       0.95006232
C        1.18926249      -0.11130983      -0.37328459
C        0.12983006      -0.92386212      -1.05211923
C       -0.75765919       0.21840347      -0.71344579
C       -1.56408068       0.26732658       0.43132175
O       -0.84962895       1.16030085      -1.70604449
H        1.68569097      -1.31937789       1.31044745
H        2.41629058       0.32634384       1.29947440
H        0.39816681       0.18446669       1.91816705
H        1.67447736       0.64580625      -0.97782196
H        0.27362395      -1.07007543      -2.11942073
H       -0.12838249      -1.84394613      -0.53358022
H       -2.06962532      -0.65802119       0.68769195
H       -2.22245742       1.12617836       0.54829968
H       -0.60024994       0.30715099       1.66862064
H       -1.17147501       1.98646527      -1.33836823
16
Frame=9 idx=004071 GeodesicLength=0.6056973841623611 rxn_smarts="[C:1]([C@@:2]1([H:10])[C:3]([H:11])([H:12])[C@:4]1([C:5]([H:13])([H:14])[H:15])[O:6][H:16])([H:7])([H:8])[H:9]>>[C:1](=[C:2]([C:3]([C:4](=[C:5]([H:13])[H:14])[O:6][H:16])([H:11])[H:12])[H:10])([H:7])[H:8].[H:9][H:15]"
C        1.60669492      -0.28894108       0.94946487
C        1.18301454      -0.10229519      -0.37154739
C        0.12675428      -0.92669526      -1.04237938
C       -0.75312618       0.22363029      -0.70792847
C       -1.57414754       0.27385292       0.42951941
O       -0.85014245       1.15453419      -1.71150326
H        1.73873688      -1.31507676       1.28923933
H        2.42006729       0.34710453       1.29073846
H        0.39490914       0.15071978       1.94334666
H        1.67427986       0.64216261      -0.98694554
H        0.26906835      -1.08037734      -2.10869489
H       -0.13035821      -1.84082282      -0.51329469
H       -2.11204522      -0.64164048       0.65403201
H       -2.21610966       1.14520044       0.54797915
H       -0.61816076       0.27054876       1.68788288
H       -1.15943525       1.98809544      -1.34990915
16
Frame=10 idx=004071 GeodesicLength=0.6705745671904837 rxn_smarts="[C:1]([C@@:2]1([H:10])[C:3]([H:11])([H:12])[C@:4]1([C:5]([H:13])([H:14])[H:15])[O:6][H:16])([H:7])([H:8])[H:9]>>[C:1](=[C:2]([C:3]([C:4](=[C:5]([H:13])[H:14])[O:6][H:16])([H:11])[H:12])[H:10])([H:7])[H:8].[H:9][H:15]"
C        1.61687407      -0.28220597       0.94896807
C        1.17682883      -0.09353278      -0.36970025
C        0.12368760      -0.92953689      -1.03251378
C       -0.74869222       0.22870698      -0.70236820
C       -1.58396259       0.28027597       0.42786028
O       -0.85059651       1.14864995      -1.71667701
H        1.79082068      -1.30907953       1.26734476
H        2.42297631       0.36774419       1.28248568
H        0.39192012       0.11606605       1.96795163
H        1.67399725       0.63811291      -0.99577714
H        0.26455546      -1.09062699      -2.09779182
H       -0.13233081      -1.83762148      -0.49301082
H       -2.15290650      -0.62379804       0.62022762
H       -2.20919261       1.16379095       0.54829894
H       -0.63618190       0.23376926       1.70616788
H       -1.14779717       1.98928543      -1.36146582
16
Frame=11 idx=004071 GeodesicLength=0.735081268310279 rxn_smarts="[C:1]([C@@:2]1([H:10])[C:3]([H:11])([H:12])[C@:4]1([C:5]([H:13])([H:14])[H:15])[O:6][H:16])([H:7])([H:8])[H:9]>>[C:1](=[C:2]([C:3]([C:4](=[C:5]([H:13])[H:14])[O:6][H:16])([H:11])[H:12])[H:10])([H:7])[H:8].[H:9][H:15]"
C        1.62676773      -0.27567697       0.94856116
C        1.17070527      -0.08501543      -0.36775408
C        0.12063629      -0.93237579      -1.02255360
C       -0.74435540       0.23363546      -0.69677466
C       -1.59354875       0.28657030       0.42632721
O       -0.85098770       1.14267741      -1.72156255
H        1.84177209      -1.30149909       1.24486195
H        2.42514730       0.38809384       1.27467785
H        0.38925739       0.08070181       1.99196527
H        1.67362090       0.63370430      -1.00429154
H        0.26009570      -1.10079215      -2.08674712
H       -0.13429049      -1.83435229      -0.47278733
H       -2.19209649      -0.60468191       0.58643354
H       -2.20190149       1.18181936       0.54913207
H       -0.65429197       0.19711842       1.72349238
H       -1.13653037       1.99007275      -1.37298054
16
Frame=12 idx=004071 GeodesicLength=0.7992648234736754 rxn_smarts="[C:1]([C@@:2]1([H:10])[C:3]([H:11])([H:12])[C@:4]1([C:5]([H:13])([H:14])[H:15])[O:6][H:16])([H:7])([H:8])[H:9]>>[C:1](=[C:2]([C:3]([C:4](=[C:5]([H:13])[H:14])[O:6][H:16])([H:11])[H:12])[H:10])([H:7])[H:8].[H:9][H:15]"
C        1.63640302      -0.26938132       0.94823149
C        1.16464416      -0.07673139      -0.36571512
C        0.11760674      -0.93520118      -1.01252064
C       -0.74011128       0.23842176      -0.69115217
C       -1.60293942       0.29270880       0.42489680
O       -0.85131087       1.13664312      -1.72615630
H        1.89146066      -1.29246048       1.22187192
H        2.42671171       0.40802437       1.26726784
H        0.38697595       0.04480016       2.01538532
H        1.67314633       0.62898396      -1.01247260
H        0.25569855      -1.11084683      -2.07558718
H       -0.13622763      -1.83102361      -0.45266604
H       -2.22955640      -0.58445616       0.55276251
H       -2.19441080       1.19918676       0.55036184
H       -0.67248309       0.16084193       1.73990203
H       -1.12560763       1.99049010      -1.38440971
16
Frame=13 idx=004071 GeodesicLength=0.8631814489540215 rxn_smarts="[C:1]([C@@:2]1([H:10])[C:3]([H:11])([H:12])[C@:4]1([C:5]([H:13])([H:14])[H:15])[O:6][H:16])([H:7])([H:8])[H:9]>>[C:1](=[C:2]([C:3]([C:4](=[C:5]([H:13])[H:14])[O:6][H:16])([H:11])[H:12])[H:10])([H:7])[H:8].[H:9][H:15]"
C        1.64581594      -0.26333496       0.94796398
C        1.15864547      -0.06866653      -0.36358912
C        0.11459978      -0.93800512      -1.00242033
C       -0.73595374       0.24307704      -0.68550039
C       -1.61216960       0.29867934       0.42354534
O       -0.85155977       1.13056376      -1.73046158
H        1.93987009      -1.28205840       1.19842770
H        2.42777924       0.42745747       1.26021086
H        0.38511941       0.00847296       2.03822770
H        1.67256954       0.62398543      -1.02031659
H        0.25136227      -1.12078357      -2.06431897
H       -0.13813919      -1.82763652      -0.43265588
H       -2.26532857      -0.56324528       0.51925197
H       -2.18685157       1.21584731       0.55189538
H       -0.69076402       0.12507880       1.75546888
H       -1.11499528       1.99056827      -1.39572894
16
Frame=14 idx=004071 GeodesicLength=0.9268574162684187 rxn_smarts="[C:1]([C@@:2]1([H:10])[C:3]([H:11])([H:12])[C@:4]1([C:5]([H:13])([H:14])[H:15])[O:6][H:16])([H:7])([H:8])[H:9]>>[C:1](=[C:2]([C:3]([C:4](=[C:5]([H:13])[H:14])[O:6][H:16])([H:11])[H:12])[H:10])([H:7])[H:8].[H:9][H:15]"
C        1.65504448      -0.25755581       0.94773793
C        1.15270668      -0.06080784      -0.36138265
C        0.11161736      -0.94078245      -0.99226573
C       -0.73188004       0.24760680      -0.67982101
C       -1.62128070       0.30445741       0.42224324
O       -0.85173230       1.12445931      -1.73448105
H        1.98691448      -1.27039831       1.17459773
H        2.42846826       0.44632025       1.25344950
H        0.38373345      -0.02811355       2.06051414
H        1.67188516       0.61874905      -1.02781793
H        0.24708891      -1.13058892      -2.05296073
H       -0.14001863      -1.82419880      -0.41278006
H       -2.29940656      -0.54118851       0.48596036
H       -2.17935130       1.23175514       0.55364603
H       -0.70914823       0.08994081       1.77025822
H       -1.10464103       1.99034543      -1.40689798
16
Frame=15 idx=004071 GeodesicLength=0.9903296837977 rxn_smarts="[C:1]([C@@:2]1([H:10])[C:3]([H:11])([H:12])[C@:4]1([C:5]([H:13])([H:14])[H:15])[O:6][H:16])([H:7])([H:8])[H:9]>>[C:1](=[C:2]([C:3]([C:4](=[C:5]([H:13])[H:14])[O:6][H:16])([H:11])[H:12])[H:10])([H:7])[H:8].[H:9][H:15]"
C        1.66413059      -0.25205744       0.94753317
C        1.14682431      -0.05314048      -0.35909997
C        0.10865848      -0.94352873      -0.98205869
C       -0.72788631       0.25202062      -0.67411356
C       -1.63031517       0.31002944       0.42095933
O       -0.85182408       1.11834214      -1.73822283
H        2.03259197      -1.25755489       1.15042637
H        2.42886708       0.46457826       1.24693797
H        0.38285629      -0.06486333       2.08227950
H        1.67108891       0.61330345      -1.03497981
H        0.24287552      -1.14026126      -2.04151596
H       -0.14186415      -1.82071150      -0.39303955
H       -2.33184384      -0.51837464       0.45290112
H       -2.17199271       1.24690447       0.55555186
H       -0.72766113       0.05546607       1.78434458
H       -1.09450577       1.98984782      -1.41790354
16
Frame=16 idx=004071 GeodesicLength=1.0536121212388931 rxn_smarts="[C:1]([C@@:2]1([H:10])[C:3]([H:11])([H:12])[C@:4]1([C:5]([H:13])([H:14])[H:15])[O:6][H:16])([H:7])([H:8])[H:9]>>[C:1](=[C:2]([C:3]([C:4](=[C:5]([H:13])[H:14])[O:6][H:16])([H:11])[H:12])[H:10])([H:7])[H:8].[H:9][H:15]"
C        1.67312033      -0.24685409       0.94732586
C        1.14099850      -0.04564803      -0.35674483
C        0.10572660      -0.94623526      -0.97180648
C       -0.72396581       0.25633059      -0.66837676
C       -1.63931394       0.31537580       0.41965950
O       -0.85182873       1.11223097      -1.74169189
H        2.07684589      -1.24362311       1.12597988
H        2.42909301       0.48216982       1.24062217
H        0.38253079      -0.10163514       2.10356433
H        1.67017819       0.60768703      -1.04180335
H        0.23872510      -1.14978826      -2.02999570
H       -0.14367052      -1.81717578      -0.37344604
H       -2.36266607      -0.49490137       0.42010572
H       -2.16487683       1.26127320       0.55754529
H       -0.74632535       0.02169224       1.79779166
H       -1.08457114       1.98910139      -1.42872936
