17
Frame=0 idx=006903 GeodesicLength=0.0 rxn_smarts="[C:1]([C@@:2]1([H:11])[O:3][C:4]([H:12])([H:13])[C@@:5]2([H:14])[C:6]([H:15])([H:16])[C@@:7]12[H:17])([H:8])([H:9])[H:10]>>[C:1]([C@@:2]1([H:11])[O:3][C:4]([H:12])([H:13])[C@:7]1([C:6]([C:5][H:14])([H:15])[H:16])[H:17])([H:8])([H:9])[H:10]"
C       -1.88188633      -0.28304126       0.56210963
C       -0.97182942       0.00551312      -0.60495114
O       -0.76081175       1.40996546      -0.73957761
C        0.63569556       1.38949211      -0.66374267
C        1.55652574       0.32830418       0.87708711
C        1.03738976      -1.05439985       0.75477910
C        0.50412754      -0.38188509      -0.46961224
H       -2.84598383       0.19776628       0.39157886
H       -1.45815149       0.11595712       1.48517488
H       -2.04631831      -1.35669076       0.67291648
H       -1.39286698      -0.41260831      -1.52734804
H        1.11830408       1.41416870      -1.64700088
H        0.99982526       2.20861927      -0.05810291
H        2.50900672       0.38334626       0.32585691
H        0.30182530      -1.34617971       1.49918141
H        1.72955995      -1.85896601       0.51495314
H        0.96558824      -0.75936148      -1.37330197
17
Frame=1 idx=006903 GeodesicLength=0.07262542139036565 rxn_smarts="[C:1]([C@@:2]1([H:11])[O:3][C:4]([H:12])([H:13])[C@@:5]2([H:14])[C:6]([H:15])([H:16])[C@@:7]12[H:17])([H:8])([H:9])[H:10]>>[C:1]([C@@:2]1([H:11])[O:3][C:4]([H:12])([H:13])[C@:7]1([C:6]([C:5][H:14])([H:15])[H:16])[H:17])([H:8])([H:9])[H:10]"
C       -1.89366973      -0.30242674       0.54988937
C       -0.96948084       0.00860766      -0.59952621
O       -0.76117163       1.41577738      -0.70419314
C        0.63792884       1.39747078      -0.65307778
C        1.61005140       0.32524102       0.83449900
C        1.03584444      -1.03715006       0.77001761
C        0.50522753      -0.37937905      -0.46471265
H       -2.86000904       0.17113467       0.37120265
H       -1.49134098       0.09044639       1.48492396
H       -2.04975559      -1.37880527       0.64531483
H       -1.38271350      -0.38987743      -1.53444591
H        1.10115560       1.44080272      -1.64518702
H        1.00095172       2.21935515      -0.04901753
H        2.55565473       0.33787777       0.27082309
H        0.31490738      -1.26909352       1.54858283
H        1.68785388      -1.87767014       0.54140135
H        0.95856577      -0.77231133      -1.36649445
17
Frame=2 idx=006903 GeodesicLength=0.14389657938550882 rxn_smarts="[C:1]([C@@:2]1([H:11])[O:3][C:4]([H:12])([H:13])[C@@:5]2([H:14])[C:6]([H:15])([H:16])[C@@:7]12[H:17])([H:8])([H:9])[H:10]>>[C:1]([C@@:2]1([H:11])[O:3][C:4]([H:12])([H:13])[C@:7]1([C:6]([C:5][H:14])([H:15])[H:16])[H:17])([H:8])([H:9])[H:10]"
C       -1.90476959      -0.32252429       0.53719874
C       -0.96722713       0.01184251      -0.59417573
O       -0.76094228       1.42104622      -0.66766646
C        0.64038535       1.40526182      -0.64169037
C        1.66257756       0.32011756       0.78906246
C        1.03445890      -1.01760795       0.78595958
C        0.50621437      -0.37724422      -0.46031120
H       -2.87314945       0.14399697       0.35066673
H       -1.52386143       0.06318516       1.48397159
H       -2.05168462      -1.40145276       0.61698032
H       -1.37279683      -0.36596560      -1.54132810
H        1.08384877       1.46832254      -1.64197191
H        1.00247264       2.22870702      -0.03769157
H        2.59962084       0.28876233       0.21374128
H        0.32978959      -1.18697038       1.59469729
H        1.64422384      -1.89293286       0.57225570
H        0.95083948      -0.78654408      -1.35969834
17
Frame=3 idx=006903 GeodesicLength=0.2142069304145694 rxn_smarts="[C:1]([C@@:2]1([H:11])[O:3][C:4]([H:12])([H:13])[C@@:5]2([H:14])[C:6]([H:15])([H:16])[C@@:7]12[H:17])([H:8])([H:9])[H:10]>>[C:1]([C@@:2]1([H:11])[O:3][C:4]([H:12])([H:13])[C@:7]1([C:6]([C:5][H:14])([H:15])[H:16])[H:17])([H:8])([H:9])[H:10]"
C       -1.91523258      -0.34329080       0.52418445
C       -0.96512786       0.01517364      -0.58892309
O       -0.76003630       1.42582033      -0.63010936
C        0.64320322       1.41289145      -0.62977003
C        1.71336320       0.31301313       0.74110437
C        1.03341431      -0.99578016       0.80238722
C        0.50707627      -0.37563897      -0.45651895
H       -2.88537585       0.11683509       0.33048716
H       -1.55533742       0.03379481       1.48253646
H       -2.05270340      -1.42465754       0.58768900
H       -1.36325583      -0.34101484      -1.54796683
H        1.06662007       1.49666648      -1.63751368
H        1.00475890       2.23684407      -0.02443568
H        2.64045074       0.23636143       0.15562492
H        0.34629329      -1.10046539       1.63671066
H        1.59957511      -1.90409522       0.60748071
H        0.94231411      -0.80245749      -1.35296733
17
Frame=4 idx=006903 GeodesicLength=0.2831331872525742 rxn_smarts="[C:1]([C@@:2]1([H:11])[O:3][C:4]([H:12])([H:13])[C@@:5]2([H:14])[C:6]([H:15])([H:16])[C@@:7]12[H:17])([H:8])([H:9])[H:10]>>[C:1]([C@@:2]1([H:11])[O:3][C:4]([H:12])([H:13])[C@:7]1([C:6]([C:5][H:14])([H:15])[H:16])[H:17])([H:8])([H:9])[H:10]"
C       -1.92458447      -0.36410374       0.51079682
C       -0.96323869       0.01841726      -0.58393049
O       -0.75884377       1.42951975      -0.59263320
C        0.64590706       1.41995962      -0.61719223
C        1.76158306       0.30376162       0.69109285
C        1.03302248      -0.97176581       0.81885283
C        0.50775317      -0.37465467      -0.45340096
H       -2.89613303       0.09067482       0.31089757
H       -1.58446369       0.00264808       1.48013316
H       -2.05277677      -1.44742775       0.55755844
H       -1.35433420      -0.31560940      -1.55403580
H        1.04946612       1.52548331      -1.63112847
H        1.00673463       2.24308576      -0.00885006
H        2.67754902       0.18102442       0.09772841
H        0.36462669      -1.01053876       1.67368135
H        1.55464224      -1.91071030       0.64653672
H        0.93309016      -0.81976421      -1.34610694
17
Frame=5 idx=006903 GeodesicLength=0.35094081554744655 rxn_smarts="[C:1]([C@@:2]1([H:11])[O:3][C:4]([H:12])([H:13])[C@@:5]2([H:14])[C:6]([H:15])([H:16])[C@@:7]12[H:17])([H:8])([H:9])[H:10]>>[C:1]([C@@:2]1([H:11])[O:3][C:4]([H:12])([H:13])[C@:7]1([C:6]([C:5][H:14])([H:15])[H:16])[H:17])([H:8])([H:9])[H:10]"
C       -1.93270064      -0.38500868       0.49739012
C       -0.96140930       0.02154914      -0.57926974
O       -0.75700490       1.43225240      -0.55559351
C        0.64871505       1.42656342      -0.60438101
C        1.80624886       0.29263162       0.63970509
C        1.03305844      -0.94576555       0.83513561
C        0.50814353      -0.37429899      -0.45108439
H       -2.90506197       0.06579880       0.29265262
H       -1.61073038      -0.03071722       1.47730636
H       -2.05244656      -1.46985302       0.52659162
H       -1.34584607      -0.28988824      -1.55971312
H        1.03276585       1.55476981      -1.62341842
H        1.00880590       2.24769165       0.00842634
H        2.71033013       0.12354019       0.04133651
H        0.38419354      -0.91844470       1.70526338
H        1.50991756      -1.91232653       0.68896143
H        0.92302095      -0.83849411      -1.33930887
17
Frame=6 idx=006903 GeodesicLength=0.41819873151805037 rxn_smarts="[C:1]([C@@:2]1([H:11])[O:3][C:4]([H:12])([H:13])[C@@:5]2([H:14])[C:6]([H:15])([H:16])[C@@:7]12[H:17])([H:8])([H:9])[H:10]>>[C:1]([C@@:2]1([H:11])[O:3][C:4]([H:12])([H:13])[C@:7]1([C:6]([C:5][H:14])([H:15])[H:16])[H:17])([H:8])([H:9])[H:10]"
C       -1.94003168      -0.40567791       0.48403290
C       -0.95991778       0.02440282      -0.57494369
O       -0.75487386       1.43391522      -0.51931592
C        0.65164651       1.43259212      -0.59136784
C        1.84725889       0.27998010       0.58753046
C        1.03397989      -0.91799936       0.85076484
C        0.50834175      -0.37470855      -0.44958622
H       -2.91286013       0.04283722       0.27619615
H       -1.63399217      -0.06594680       1.47401166
H       -2.05261044      -1.49157851       0.49459720
H       -1.33821207      -0.26441536      -1.56487201
H        1.01679192       1.58413249      -1.61425346
H        1.01099613       2.25078551       0.02720151
H        2.73933956       0.06463900      -0.01237407
H        0.40497513      -0.82532674       1.73094039
H        1.46677765      -1.90880408       0.73392455
H        0.91239073      -0.85882718      -1.33248644
17
Frame=7 idx=006903 GeodesicLength=0.48492409286714294 rxn_smarts="[C:1]([C@@:2]1([H:11])[O:3][C:4]([H:12])([H:13])[C@@:5]2([H:14])[C:6]([H:15])([H:16])[C@@:7]12[H:17])([H:8])([H:9])[H:10]>>[C:1]([C@@:2]1([H:11])[O:3][C:4]([H:12])([H:13])[C@:7]1([C:6]([C:5][H:14])([H:15])[H:16])[H:17])([H:8])([H:9])[H:10]"
C       -1.94640324      -0.42592149       0.47092051
C       -0.95865263       0.02696503      -0.57099802
O       -0.75242665       1.43458273      -0.48434540
C        0.65462047       1.43807871      -0.57844474
C        1.88404771       0.26605949       0.53526779
C        1.03564855      -0.88889528       0.86548192
C        0.50827221      -0.37585694      -0.44888613
H       -2.91923737       0.02214111       0.26192694
H       -1.65376857      -0.10294387       1.47038343
H       -2.05342929      -1.51236674       0.46174300
H       -1.33127926      -0.23942044      -1.56952086
H        1.00164999       1.61343882      -1.60393861
H        1.01310221       2.25253848       0.04694187
H        2.76441914       0.00510539      -0.06229058
H        0.42657537      -0.73260540       1.75075014
H        1.42563907      -1.90033920       0.78057827
H        0.90122227      -0.88056042      -1.32556953
17
Frame=8 idx=006903 GeodesicLength=0.5513256654480272 rxn_smarts="[C:1]([C@@:2]1([H:11])[O:3][C:4]([H:12])([H:13])[C@@:5]2([H:14])[C:6]([H:15])([H:16])[C@@:7]12[H:17])([H:8])([H:9])[H:10]>>[C:1]([C@@:2]1([H:11])[O:3][C:4]([H:12])([H:13])[C@:7]1([C:6]([C:5][H:14])([H:15])[H:16])[H:17])([H:8])([H:9])[H:10]"
C       -1.95194571      -0.44557690       0.45815789
C       -0.95764147       0.02919650      -0.56742598
O       -0.74975403       1.43429449      -0.45095290
C        0.65762745       1.44301287      -0.56576306
C        1.91656308       0.25117341       0.48345071
C        1.03807898      -0.85879935       0.87902810
C        0.50792372      -0.37771664      -0.44892686
H       -2.92437338       0.00387395       0.25007766
H       -1.66999186      -0.14143673       1.46645610
H       -2.05522512      -1.53199555       0.42810551
H       -1.32507439      -0.21515671      -1.57365260
H        0.98743507       1.64246986      -1.59264426
H        1.01508126       2.25311701       0.06725468
H        2.78592116      -0.05434584      -0.10764976
H        0.44874655      -0.64135748       1.76488612
H        1.38700526      -1.88721434       0.82806238
H        0.88962343      -0.90353854      -1.31846372
17
Frame=9 idx=006903 GeodesicLength=0.6175337692208233 rxn_smarts="[C:1]([C@@:2]1([H:11])[O:3][C:4]([H:12])([H:13])[C@@:5]2([H:14])[C:6]([H:15])([H:16])[C@@:7]12[H:17])([H:8])([H:9])[H:10]>>[C:1]([C@@:2]1([H:11])[O:3][C:4]([H:12])([H:13])[C@:7]1([C:6]([C:5][H:14])([H:15])[H:16])[H:17])([H:8])([H:9])[H:10]"
C       -1.95676581      -0.46452235       0.44581746
C       -0.95688793       0.03110475      -0.56421106
O       -0.74694795       1.43315878      -0.41930788
C        0.66063117       1.44742262      -0.55346498
C        1.94490016       0.23557008       0.43252316
C        1.04124778      -0.82807853       0.89123856
C        0.50729219      -0.38024142      -0.44962727
H       -2.92842274      -0.01192776       0.24074485
H       -1.68273549      -0.18114061       1.46224436
H       -2.05814692      -1.55029600       0.39380738
H       -1.31957273      -0.19175886      -1.57729510
H        0.97414723       1.67105138      -1.58058222
H        1.01685892       2.25272605       0.08775572
H        2.80424794      -0.11310071      -0.14794519
H        0.47128747      -0.55248569       1.77376759
H        1.35116735      -1.86989709       0.87561026
H        0.87769935      -0.92758463      -1.31107563
17
Frame=10 idx=006903 GeodesicLength=0.6836903802194383 rxn_smarts="[C:1]([C@@:2]1([H:11])[O:3][C:4]([H:12])([H:13])[C@@:5]2([H:14])[C:6]([H:15])([H:16])[C@@:7]12[H:17])([H:8])([H:9])[H:10]>>[C:1]([C@@:2]1([H:11])[O:3][C:4]([H:12])([H:13])[C@:7]1([C:6]([C:5][H:14])([H:15])[H:16])[H:17])([H:8])([H:9])[H:10]"
C       -1.96100185      -0.48272551       0.43393829
C       -0.95637406       0.03267675      -0.56128381
O       -0.74397777       1.43122331      -0.38942660
C        0.66368652       1.45131586      -0.54162402
C        1.96927070       0.21948034       0.38270200
C        1.04505490      -0.79700276       0.90197152
C        0.50635010      -0.38336254      -0.45088233
H       -2.93152417      -0.02544010       0.23393075
H       -1.69224087      -0.22179083       1.45768035
H       -2.06234154      -1.56716314       0.35899722
H       -1.31470910      -0.16933459      -1.58039665
H        0.96183253       1.69905944      -1.56786485
H        1.01850428       2.25151293       0.10813216
H        2.81980188      -0.17057610      -0.18299929
H        0.49396756      -0.46658098       1.77782070
H        1.31822138      -1.84880014       0.92256966
H        0.86547949      -0.95249195      -1.30326510
17
Frame=11 idx=006903 GeodesicLength=0.749803766735672 rxn_smarts="[C:1]([C@@:2]1([H:11])[O:3][C:4]([H:12])([H:13])[C@@:5]2([H:14])[C:6]([H:15])([H:16])[C@@:7]12[H:17])([H:8])([H:9])[H:10]>>[C:1]([C@@:2]1([H:11])[O:3][C:4]([H:12])([H:13])[C@:7]1([C:6]([C:5][H:14])([H:15])[H:16])[H:17])([H:8])([H:9])[H:10]"
C       -1.96474205      -0.50012470       0.42254534
C       -0.95609519       0.03396668      -0.55863146
O       -0.74094208       1.42866084      -0.36133066
C        0.66673732       1.45476246      -0.53033189
C        1.98996545       0.20302744       0.33426167
C        1.04945972      -0.76591274       0.91121621
C        0.50511552      -0.38703393      -0.45260905
H       -2.93382106      -0.03678831       0.22952589
H       -1.69877157      -0.26309155       1.45276526
H       -2.06774112      -1.58251998       0.32386538
H       -1.31043589      -0.14788194      -1.58305099
H        0.95039913       1.72639748      -1.55471711
H        1.01992035       2.24970817       0.12812249
H        2.83301324      -0.22634521      -0.21274827
H        0.51670693      -0.38415589       1.77769619
H        1.28816211      -1.82456788       0.96841559
H        0.85306918      -0.97810092      -1.29499461
17
Frame=12 idx=006903 GeodesicLength=0.8159335138519834 rxn_smarts="[C:1]([C@@:2]1([H:11])[O:3][C:4]([H:12])([H:13])[C@@:5]2([H:14])[C:6]([H:15])([H:16])[C@@:7]12[H:17])([H:8])([H:9])[H:10]>>[C:1]([C@@:2]1([H:11])[O:3][C:4]([H:12])([H:13])[C@:7]1([C:6]([C:5][H:14])([H:15])[H:16])[H:17])([H:8])([H:9])[H:10]"
C       -1.96810095      -0.51673706       0.41162898
C       -0.95603140       0.03500005      -0.55619146
O       -0.73782309       1.42555748      -0.33490678
C        0.66981607       1.45779327      -0.51962095
C        2.00731087       0.18632184       0.28727451
C        1.05437493      -0.73501954       0.91896577
C        0.50358425      -0.39120245      -0.45470837
H       -2.93542900      -0.04621255       0.22739801
H       -1.70267696      -0.30485961       1.44742842
H       -2.07434754      -1.59633870       0.28853900
H       -1.30667973      -0.12737604      -1.58525718
H        0.93981169       1.75299512      -1.54125506
H        1.02115541       2.24746034       0.14752608
H        2.84425911      -0.28001855      -0.23736849
H        0.53940839      -0.30541931       1.77393422
H        1.26087270      -1.79768238       1.01278253
H        0.84049524      -1.00426191      -1.28616924
17
Frame=13 idx=006903 GeodesicLength=0.8821022366544016 rxn_smarts="[C:1]([C@@:2]1([H:11])[O:3][C:4]([H:12])([H:13])[C@@:5]2([H:14])[C:6]([H:15])([H:16])[C@@:7]12[H:17])([H:8])([H:9])[H:10]>>[C:1]([C@@:2]1([H:11])[O:3][C:4]([H:12])([H:13])[C@:7]1([C:6]([C:5][H:14])([H:15])[H:16])[H:17])([H:8])([H:9])[H:10]"
C       -1.97119473      -0.53257753       0.40116910
C       -0.95617757       0.03580646      -0.55391972
O       -0.73462990       1.42200523      -0.31002665
C        0.67294009       1.46044182      -0.50950639
C        2.02165339       0.16942606       0.24179045
C        1.05974381      -0.70451555       0.92526168
C        0.50176728      -0.39583318      -0.45710079
H       -2.93647848      -0.05393240       0.22738405
H       -1.70431831      -0.34691998       1.44161610
H       -2.08213682      -1.60860597       0.25313931
H       -1.30339377      -0.10777474      -1.58705240
H        0.93001504       1.77879397      -1.52759452
H        1.02223504       2.24491268       0.16621174
H        2.85391553      -0.33127641      -0.25712445
H        0.56202984      -0.23046666       1.76708255
H        1.23622804      -1.76862551       1.05541351
H        0.82780152      -1.03085826      -1.27674360
17
Frame=14 idx=006903 GeodesicLength=0.94832058569674 rxn_smarts="[C:1]([C@@:2]1([H:11])[O:3][C:4]([H:12])([H:13])[C@@:5]2([H:14])[C:6]([H:15])([H:16])[C@@:7]12[H:17])([H:8])([H:9])[H:10]>>[C:1]([C@@:2]1([H:11])[O:3][C:4]([H:12])([H:13])[C@:7]1([C:6]([C:5][H:14])([H:15])[H:16])[H:17])([H:8])([H:9])[H:10]"
C       -1.97409230      -0.54769033       0.39114009
C       -0.95648964       0.03640696      -0.55175139
O       -0.73129708       1.41804543      -0.28654822
C        0.67615103       1.46271684      -0.49999804
C        2.03325659       0.15237742       0.19778505
C        1.06545278      -0.67453873       0.93015611
C        0.49965430      -0.40088770      -0.45969123
H       -2.93698553      -0.06016472       0.22934765
H       -1.70402545      -0.38921178       1.43524304
H       -2.09108942      -1.61931307       0.21776222
H       -1.30046740      -0.08901139      -1.58841419
H        0.92098681       1.80375574      -1.51381279
H        1.02321265       2.24214156       0.18404773
H        2.86223315      -0.37978670      -0.27238002
H        0.58448532      -0.15928988       1.75757659
H        1.21402730      -1.73778652       1.09615442
H        0.81498688      -1.05776313      -1.26661704
17
Frame=15 idx=006903 GeodesicLength=1.0146314082889998 rxn_smarts="[C:1]([C@@:2]1([H:11])[O:3][C:4]([H:12])([H:13])[C@@:5]2([H:14])[C:6]([H:15])([H:16])[C@@:7]12[H:17])([H:8])([H:9])[H:10]>>[C:1]([C@@:2]1([H:11])[O:3][C:4]([H:12])([H:13])[C@:7]1([C:6]([C:5][H:14])([H:15])[H:16])[H:17])([H:8])([H:9])[H:10]"
C       -1.97695145      -0.56211001       0.38149770
C       -0.95700790       0.03682323      -0.54966154
O       -0.72787642       1.41379129      -0.26431697
C        0.67946478       1.46467980      -0.49108974
C        2.04250868       0.13518963       0.15526472
C        1.07152136      -0.64521562       0.93374934
C        0.49727949      -0.40637662      -0.46241774
H       -2.93714158      -0.06504361       0.23315932
H       -1.70214041      -0.43168301       1.42825880
H       -2.10127439      -1.62849562       0.18240256
H       -1.29793121      -0.07104176      -1.58940556
H        0.91265898       1.82785908      -1.50001242
H        1.02412809       2.23933126       0.20098474
H        2.86962660      -0.42537734      -0.28348621
H        0.60682892      -0.09177349       1.74589130
H        1.19419224      -1.70558589       1.13495849
H        0.80211423      -1.08497132      -1.25577678
17
Frame=16 idx=006903 GeodesicLength=1.0808710700817057 rxn_smarts="[C:1]([C@@:2]1([H:11])[O:3][C:4]([H:12])([H:13])[C@@:5]2([H:14])[C:6]([H:15])([H:16])[C@@:7]12[H:17])([H:8])([H:9])[H:10]>>[C:1]([C@@:2]1([H:11])[O:3][C:4]([H:12])([H:13])[C@:7]1([C:6]([C:5][H:14])([H:15])[H:16])[H:17])([H:8])([H:9])[H:10]"
C       -1.97964873      -0.57583396       0.37223802
C       -0.95760718       0.03708229      -0.54761045
O       -0.72425718       1.40917616      -0.24324932
C        0.68287339       1.46624726      -0.48275703
C        2.04947176       0.11785023       0.11423878
C        1.07774029      -0.61664191       0.93611749
C        0.49462120      -0.41221790      -0.46521864
H       -2.93674255      -0.06885762       0.23857089
H       -1.69884792      -0.47411447       1.42060825
H       -2.11235700      -1.63607466       0.14734721
H       -1.29557020      -0.05379012      -1.59002262
H        0.90499886       1.85100436      -1.48622804
H        1.02491162       2.23635871       0.21700198
H        2.87601629      -0.46777330      -0.29092455
H        0.62895019      -0.02790453       1.73239946
H        1.17628648      -1.67229581       1.17169338
H        0.78916067      -1.11221473      -1.24420481
