17
Frame=0 idx=009659 GeodesicLength=0.0 rxn_smarts="[C:1]([C@@:2]12[C:3]([H:11])([H:12])[C@@:4]([H:13])([C:5]([H:14])([H:15])[C:6]1([H:16])[H:17])[O:7]2)([H:8])([H:9])[H:10]>>[C:1]([C@@:2]12[C:3]([H:11])([H:12])[C@@:4]([H:13])([C:5]([H:14])([H:15])[C:6]1)[O:7]2)([H:8])([H:9])[H:10].[H:16][H:17]"
C        2.04345366       0.44751098       0.00693969
C        0.60985735       0.06470743      -0.16273492
C       -0.03837304      -1.18209669       0.46663248
C       -0.91173043      -1.01399509      -0.77290147
C       -1.66163653       0.29118606      -0.52613474
C       -0.45323644       1.16696290      -0.20000895
O        0.25161180      -0.47571808      -1.48023249
H        2.30596869       1.21934009      -0.71702901
H        2.69909133      -0.41286916      -0.13047050
H        2.19833745       0.85352539       1.00845307
H       -0.49520000      -1.10778078       1.45354176
H        0.62281209      -2.04475191       0.38979396
H       -1.39634908      -1.84468544      -1.28046663
H       -2.41044815       0.27492618       0.26754383
H       -2.14039485       0.66618939      -1.43233858
H       -0.54851470       1.79266182       1.24956592
H       -0.67524921       1.30488686       1.85984665
17
Frame=1 idx=009659 GeodesicLength=0.07330602914058532 rxn_smarts="[C:1]([C@@:2]12[C:3]([H:11])([H:12])[C@@:4]([H:13])([C:5]([H:14])([H:15])[C:6]1([H:16])[H:17])[O:7]2)([H:8])([H:9])[H:10]>>[C:1]([C@@:2]12[C:3]([H:11])([H:12])[C@@:4]([H:13])([C:5]([H:14])([H:15])[C:6]1)[O:7]2)([H:8])([H:9])[H:10].[H:16][H:17]"
C        2.04482369       0.44387181       0.00636089
C        0.61063705       0.06241006      -0.16206076
C       -0.03792163      -1.18701001       0.46493091
C       -0.90978305      -1.01569407      -0.77574734
C       -1.66217843       0.28702239      -0.52113141
C       -0.45699159       1.15778799      -0.17402454
O        0.25238192      -0.47475769      -1.48021533
H        2.30576739       1.22071597      -0.71288041
H        2.69977424      -0.41577827      -0.13869750
H        2.20332526       0.84244773       1.01023063
H       -0.49604260      -1.11471242       1.45144281
H        0.62487298      -2.04829894       0.38735123
H       -1.39396896      -1.84465691      -1.28662072
H       -2.41740727       0.26084494       0.26612747
H       -2.13371564       0.67119634      -1.42743412
H       -0.57279595       1.84107536       1.24671173
H       -0.66077740       1.31353572       1.84565645
17
Frame=2 idx=009659 GeodesicLength=0.1472526176654595 rxn_smarts="[C:1]([C@@:2]12[C:3]([H:11])([H:12])[C@@:4]([H:13])([C:5]([H:14])([H:15])[C:6]1([H:16])[H:17])[O:7]2)([H:8])([H:9])[H:10]>>[C:1]([C@@:2]12[C:3]([H:11])([H:12])[C@@:4]([H:13])([C:5]([H:14])([H:15])[C:6]1)[O:7]2)([H:8])([H:9])[H:10].[H:16][H:17]"
C        2.04625377       0.44014076       0.00578845
C        0.61146200       0.06005081      -0.16133475
C       -0.03736373      -1.19210675       0.46317108
C       -0.90783643      -1.01729199      -0.77853736
C       -1.66252277       0.28299028      -0.51591876
C       -0.46055986       1.14820408      -0.14743114
O        0.25312115      -0.47368481      -1.48017351
H        2.30557440       1.22207931      -0.70858818
H        2.70048196      -0.41870869      -0.14707045
H        2.20844128       0.83112018       1.01199275
H       -0.49665191      -1.12192738       1.44935172
H        0.62702775      -2.05201120       0.38463235
H       -1.39171184      -1.84438350      -1.29280633
H       -2.42419207       0.24679186       0.26466536
H       -2.12668232       0.67669032      -1.42209844
H       -0.59947280       1.88706192       1.24288706
H       -0.64536856       1.32498481       1.83147013
17
Frame=3 idx=009659 GeodesicLength=0.22156135233604482 rxn_smarts="[C:1]([C@@:2]12[C:3]([H:11])([H:12])[C@@:4]([H:13])([C:5]([H:14])([H:15])[C:6]1([H:16])[H:17])[O:7]2)([H:8])([H:9])[H:10]>>[C:1]([C@@:2]12[C:3]([H:11])([H:12])[C@@:4]([H:13])([C:5]([H:14])([H:15])[C:6]1)[O:7]2)([H:8])([H:9])[H:10].[H:16][H:17]"
C        2.04773349       0.43633733       0.00520728
C        0.61230978       0.05767875      -0.16054998
C       -0.03671204      -1.19732883       0.46137913
C       -0.90589553      -1.01877313      -0.78125264
C       -1.66266948       0.27911400      -0.51051966
C       -0.46395234       1.13824077      -0.12033860
O        0.25383820      -0.47251570      -1.48008968
H        2.30538587       1.22343853      -0.70416822
H        2.70119052      -0.42164495      -0.15559997
H        2.21369816       0.81956008       1.01371555
H       -0.49705995      -1.12937800       1.44728229
H        0.62926337      -2.05583083       0.38169403
H       -1.38958056      -1.84386480      -1.29897898
H       -2.43080157       0.23283571       0.26312540
H       -2.11931173       0.68263490      -1.41635321
H       -0.62815849       1.93048550       1.23807887
H       -0.62927770       1.33901068       1.81736837
17
Frame=4 idx=009659 GeodesicLength=0.2959964318213475 rxn_smarts="[C:1]([C@@:2]12[C:3]([H:11])([H:12])[C@@:4]([H:13])([C:5]([H:14])([H:15])[C:6]1([H:16])[H:17])[O:7]2)([H:8])([H:9])[H:10]>>[C:1]([C@@:2]12[C:3]([H:11])([H:12])[C@@:4]([H:13])([C:5]([H:14])([H:15])[C:6]1)[O:7]2)([H:8])([H:9])[H:10].[H:16][H:17]"
C        2.04924834       0.43248514       0.00461081
C        0.61315592       0.05533814      -0.15969984
C       -0.03597874      -1.20263313       0.45957608
C       -0.90396622      -1.02012732      -0.78388079
C       -1.66262943       0.27541077      -0.50495154
C       -0.46718574       1.12791858      -0.09285343
O        0.25454189      -0.47126468      -1.47995082
H        2.30519708       1.22480999      -0.69963039
H        2.70188024      -0.42456625      -0.16428637
H        2.21909071       0.80778889       1.01538677
H       -0.49730172      -1.13703721       1.44524708
H        0.63157348      -2.05971495       0.37858271
H       -1.38757465      -1.84310424      -1.30510754
H       -2.43723939       0.21903617       0.26149275
H       -2.11163390       0.68898842      -1.41021984
H       -0.65842413       1.97127960       1.23228685
H       -0.61275374       1.35539209       1.80339751
17
Frame=5 idx=009659 GeodesicLength=0.3702876817670131 rxn_smarts="[C:1]([C@@:2]12[C:3]([H:11])([H:12])[C@@:4]([H:13])([C:5]([H:14])([H:15])[C:6]1([H:16])[H:17])[O:7]2)([H:8])([H:9])[H:10]>>[C:1]([C@@:2]12[C:3]([H:11])([H:12])[C@@:4]([H:13])([C:5]([H:14])([H:15])[C:6]1)[O:7]2)([H:8])([H:9])[H:10].[H:16][H:17]"
C        2.05077026       0.42860863       0.00401178
C        0.61396947       0.05306475      -0.15876840
C       -0.03517719      -1.20799115       0.45777174
C       -0.90205366      -1.02135042      -0.78641833
C       -1.66242108       0.27187835      -0.49922270
C       -0.47029178       1.11724996      -0.06505506
O        0.25523499      -0.46993205      -1.47974245
H        2.30498426       1.22621434      -0.69495717
H        2.70252130      -0.42744492      -0.17311448
H        2.22459542       0.79582759       1.01701597
H       -0.49740814      -1.14490024       1.44324674
H        0.63395207      -2.06362820       0.37532262
H       -1.38568749      -1.84210787      -1.31118292
H       -2.44351487       0.20541835       0.25976114
H       -2.10369131       0.69570387      -1.40370426
H       -0.68981577       2.00944108       1.22549722
H       -0.59596650       1.37394796       1.78953857
17
Frame=6 idx=009659 GeodesicLength=0.4443239977864192 rxn_smarts="[C:1]([C@@:2]12[C:3]([H:11])([H:12])[C@@:4]([H:13])([C:5]([H:14])([H:15])[C:6]1([H:16])[H:17])[O:7]2)([H:8])([H:9])[H:10]>>[C:1]([C@@:2]12[C:3]([H:11])([H:12])[C@@:4]([H:13])([C:5]([H:14])([H:15])[C:6]1)[O:7]2)([H:8])([H:9])[H:10].[H:16][H:17]"
C        2.05227763       0.42473419       0.00342046
C        0.61472549       0.05088663      -0.15774701
C       -0.03431831      -1.21338543       0.45597300
C       -0.90016564      -1.02244079      -0.78886350
C       -1.66206451       0.26851588      -0.49333709
C       -0.47329269       1.10623830      -0.03702405
O        0.25592154      -0.46852671      -1.47945572
H        2.30473588       1.22767314      -0.69014086
H        2.70309709      -0.43025052      -0.18206173
H        2.23018015       0.78370431       1.01861040
H       -0.49741087      -1.15297317       1.44128147
H        0.63639844      -2.06754938       0.37193396
H       -1.38391817      -1.84088161      -1.31719607
H       -2.44963236       0.19201436       0.25793986
H       -2.09552556       0.70273432      -1.39681375
H       -0.72191788       2.04505813       1.21771218
H       -0.57909023       1.39444834       1.77576846
17
Frame=7 idx=009659 GeodesicLength=0.5179948321335471 rxn_smarts="[C:1]([C@@:2]12[C:3]([H:11])([H:12])[C@@:4]([H:13])([C:5]([H:14])([H:15])[C:6]1([H:16])[H:17])[O:7]2)([H:8])([H:9])[H:10]>>[C:1]([C@@:2]12[C:3]([H:11])([H:12])[C@@:4]([H:13])([C:5]([H:14])([H:15])[C:6]1)[O:7]2)([H:8])([H:9])[H:10].[H:16][H:17]"
C        2.05373973       0.42088526       0.00286441
C        0.61539542       0.04882277      -0.15661542
C       -0.03341192      -1.21881376       0.45417679
C       -0.89830810      -1.02340045      -0.79122014
C       -1.66158344       0.26530716      -0.48728601
C       -0.47622266       1.09487980      -0.00879726
O        0.25659916      -0.46703909      -1.47907907
H        2.30442300       1.22921051      -0.68514458
H        2.70358368      -0.43295059      -0.19109931
H        2.23580674       0.77143729       1.02019513
H       -0.49733221      -1.16128625       1.43934058
H        0.63891374      -2.07146585       0.36841237
H       -1.38226067      -1.83942961      -1.32315708
H       -2.45560117       0.17882077       0.25604722
H       -2.08718381       0.71003608      -1.38953392
H       -0.75433998       2.07827216       1.20889264
H       -0.56221750       1.41671378       1.76200365
17
Frame=8 idx=009659 GeodesicLength=0.591165850436134 rxn_smarts="[C:1]([C@@:2]12[C:3]([H:11])([H:12])[C@@:4]([H:13])([C:5]([H:14])([H:15])[C:6]1([H:16])[H:17])[O:7]2)([H:8])([H:9])[H:10]>>[C:1]([C@@:2]12[C:3]([H:11])([H:12])[C@@:4]([H:13])([C:5]([H:14])([H:15])[C:6]1)[O:7]2)([H:8])([H:9])[H:10].[H:16][H:17]"
C        2.05513113       0.41708419       0.00237157
C        0.61595591       0.04688601      -0.15535547
C       -0.03246696      -1.22428380       0.45237752
C       -0.89648787      -1.02423173      -0.79349357
C       -1.66100282       0.26223590      -0.48105647
C       -0.47911619       1.08316323       0.01960509
O        0.25726487      -0.46545802      -1.47860341
H        2.30402336       1.23085263      -0.67993316
H        2.70396672      -0.43551190      -0.20019823
H        2.24143463       0.75904353       1.02179726
H       -0.49719684      -1.16987812       1.43741301
H        0.64150100      -2.07537661       0.36474858
H       -1.38070954      -1.83775301      -1.32908013
H       -2.46143326       0.16582925       0.25410658
H       -2.07870866       0.71757009      -1.38184483
H       -0.78675605       2.10924137       1.19900552
H       -0.54539944       1.44058699       1.74814015
17
Frame=9 idx=009659 GeodesicLength=0.6640012631110932 rxn_smarts="[C:1]([C@@:2]12[C:3]([H:11])([H:12])[C@@:4]([H:13])([C:5]([H:14])([H:15])[C:6]1([H:16])[H:17])[O:7]2)([H:8])([H:9])[H:10]>>[C:1]([C@@:2]12[C:3]([H:11])([H:12])[C@@:4]([H:13])([C:5]([H:14])([H:15])[C:6]1)[O:7]2)([H:8])([H:9])[H:10].[H:16][H:17]"
C        2.05642747       0.41331487       0.00200222
C        0.61639427       0.04503187      -0.15391436
C       -0.03146759      -1.22987627       0.45053451
C       -0.89470159      -1.02495787      -0.79569997
C       -1.66035040       0.25922827      -0.47457159
C       -0.48200180       1.07101620       0.04831217
O        0.25789883      -0.46372604      -1.47801257
H        2.30348851       1.23262703      -0.67439813
H        2.70423016      -0.43792315      -0.20935213
H        2.24704072       0.74645438       1.02349278
H       -0.49697185      -1.17890044       1.43545510
H        0.64418497      -2.07933757       0.36084094
H       -1.37924650      -1.83585074      -1.33503328
H       -2.46714489       0.15293415       0.25220173
H       -2.07012753       0.72532960      -1.37365183
H       -0.81902593       2.13851958       1.18817601
H       -0.52862689       1.46611617       1.73361840
17
Frame=10 idx=009659 GeodesicLength=0.7366434272909248 rxn_smarts="[C:1]([C@@:2]12[C:3]([H:11])([H:12])[C@@:4]([H:13])([C:5]([H:14])([H:15])[C:6]1([H:16])[H:17])[O:7]2)([H:8])([H:9])[H:10]>>[C:1]([C@@:2]12[C:3]([H:11])([H:12])[C@@:4]([H:13])([C:5]([H:14])([H:15])[C:6]1)[O:7]2)([H:8])([H:9])[H:10].[H:16][H:17]"
C        2.05760005       0.40962281       0.00177692
C        0.61667895       0.04330932      -0.15228257
C       -0.03043233      -1.23556194       0.44865567
C       -0.89296331      -1.02555761      -0.79783552
C       -1.65964389       0.25630683      -0.46783423
C       -0.48491734       1.05844727       0.07726430
O        0.25850077      -0.46183682      -1.47729532
H        2.30280257       1.23456101      -0.66852259
H        2.70435385      -0.44013163      -0.21851451
H        2.25258072       0.73373209       1.02528790
H       -0.49669938      -1.18834349       1.43347026
H        0.64695979      -2.08331520       0.35670901
H       -1.37788051      -1.83370477      -1.34100504
H       -2.47274001       0.14017189       0.25033788
H       -2.06149026       0.73327820      -1.36494649
H       -0.85082579       2.16604129       1.17602635
H       -0.51188387       1.49298076       1.71870799
17
Frame=11 idx=009659 GeodesicLength=0.8091153703697552 rxn_smarts="[C:1]([C@@:2]12[C:3]([H:11])([H:12])[C@@:4]([H:13])([C:5]([H:14])([H:15])[C:6]1([H:16])[H:17])[O:7]2)([H:8])([H:9])[H:10]>>[C:1]([C@@:2]12[C:3]([H:11])([H:12])[C@@:4]([H:13])([C:5]([H:14])([H:15])[C:6]1)[O:7]2)([H:8])([H:9])[H:10].[H:16][H:17]"
C        2.05862112       0.40602436       0.00173988
C        0.61678790       0.04171662      -0.15042446
C       -0.02935841      -1.24137667       0.44672112
C       -0.89127838      -1.02603020      -0.79990662
C       -1.65890855       0.25344347      -0.46079519
C       -0.48789588       1.04541129       0.10652988
O        0.25905647      -0.45974623      -1.47643639
H        2.30192416       1.23669291      -0.66223274
H        2.70432371      -0.44209987      -0.22766610
H        2.25801881       0.72086560       1.02723345
H       -0.49637648      -1.19829518       1.43143779
H        0.64984220      -2.08732898       0.35229827
H       -1.37660657      -1.83129801      -1.34703161
H       -2.47823267       0.12749434       0.24857021
H       -2.05283826       0.74140427      -1.35565817
H       -0.88190262       2.19205712       1.16235670
H       -0.49517656       1.52106516       1.70326399
17
Frame=12 idx=009659 GeodesicLength=0.881528136098372 rxn_smarts="[C:1]([C@@:2]12[C:3]([H:11])([H:12])[C@@:4]([H:13])([C:5]([H:14])([H:15])[C:6]1([H:16])[H:17])[O:7]2)([H:8])([H:9])[H:10]>>[C:1]([C@@:2]12[C:3]([H:11])([H:12])[C@@:4]([H:13])([C:5]([H:14])([H:15])[C:6]1)[O:7]2)([H:8])([H:9])[H:10].[H:16][H:17]"
C        2.05946234       0.40253349       0.00194791
C        0.61669754       0.04025040      -0.14829006
C       -0.02823785      -1.24737033       0.44470265
C       -0.88965313      -1.02636867      -0.80191819
C       -1.65816972       0.25060528      -0.45338127
C       -0.49097436       1.03184434       0.13622063
O        0.25954535      -0.45738827      -1.47541286
H        2.30080668       1.23906764      -0.65542570
H        2.70412366      -0.44378473      -0.23679310
H        2.26332625       0.70782350       1.02939068
H       -0.49599123      -1.20887626       1.42932932
H        0.65285463      -2.09140659       0.34752834
H       -1.37542034      -1.82859915      -1.35315862
H       -2.48363812       0.11483489       0.24697311
H       -2.04421496       0.74970232      -1.34568458
H       -0.91204073       2.21685762       1.14687759
H       -0.47847600       1.55027452       1.68709416
17
Frame=13 idx=009659 GeodesicLength=0.9538433545205093 rxn_smarts="[C:1]([C@@:2]12[C:3]([H:11])([H:12])[C@@:4]([H:13])([C:5]([H:14])([H:15])[C:6]1([H:16])[H:17])[O:7]2)([H:8])([H:9])[H:10]>>[C:1]([C@@:2]12[C:3]([H:11])([H:12])[C@@:4]([H:13])([C:5]([H:14])([H:15])[C:6]1)[O:7]2)([H:8])([H:9])[H:10].[H:16][H:17]"
C        2.06009356       0.39916204       0.00246599
C        0.61638352       0.03890214      -0.14581933
C       -0.02705851      -1.25360497       0.44256607
C       -0.88809333      -1.02656508      -0.80387497
C       -1.65745808       0.24775057      -0.44550186
C       -0.49419360       1.01766990       0.16648997
O        0.25993940      -0.45467792      -1.47419706
H        2.29939003       1.24174230      -0.64797073
H        2.70373691      -0.44513599      -0.24589545
H        2.26847819       0.69455330       1.03183342
H       -0.49552228      -1.22022913       1.42711198
H        0.65602578      -2.09558426       0.34229989
H       -1.37431516      -1.82556826      -1.35944239
H       -2.48897598       0.10210739       0.24563474
H       -2.03566351       0.75817949      -1.33489550
H       -0.94100188       2.24071939       1.12924303
H       -0.46176507       1.58057908       1.66995219
17
Frame=14 idx=009659 GeodesicLength=1.026261960398124 rxn_smarts="[C:1]([C@@:2]12[C:3]([H:11])([H:12])[C@@:4]([H:13])([C:5]([H:14])([H:15])[C:6]1([H:16])[H:17])[O:7]2)([H:8])([H:9])[H:10]>>[C:1]([C@@:2]12[C:3]([H:11])([H:12])[C@@:4]([H:13])([C:5]([H:14])([H:15])[C:6]1)[O:7]2)([H:8])([H:9])[H:10].[H:16][H:17]"
C        2.06048390       0.39592484       0.00337161
C        0.61581605       0.03766962      -0.14293302
C       -0.02580148      -1.26015175       0.44027040
C       -0.88660822      -1.02659665      -0.80577313
C       -1.65680057       0.24484317      -0.43702956
C       -0.49759582       1.00278703       0.19753474
O        0.26020523      -0.45150569      -1.47274700
H        2.29761186       1.24479129      -0.63971311
H        2.70314638      -0.44609264      -0.25497513
H        2.27345202       0.68098988       1.03464941
H       -0.49493784      -1.23253773       1.42474324
H        0.65939517      -2.09989965       0.33648350
H       -1.37329226      -1.82213724      -1.36593893
H       -2.49426292       0.08921663       0.24467464
H       -2.02723775       0.76684809      -1.32311292
H       -0.96852401       2.26398945       1.10892413
H       -0.44504973       1.61186136       1.65157113
17
Frame=15 idx=009659 GeodesicLength=1.0989263912300233 rxn_smarts="[C:1]([C@@:2]12[C:3]([H:11])([H:12])[C@@:4]([H:13])([C:5]([H:14])([H:15])[C:6]1([H:16])[H:17])[O:7]2)([H:8])([H:9])[H:10]>>[C:1]([C@@:2]12[C:3]([H:11])([H:12])[C@@:4]([H:13])([C:5]([H:14])([H:15])[C:6]1)[O:7]2)([H:8])([H:9])[H:10].[H:16][H:17]"
C        2.06059091       0.39284126       0.00476525
C        0.61495603       0.03654957      -0.13952775
C       -0.02444122      -1.26710169       0.43776170
C       -0.88520927      -1.02643355      -0.80760894
C       -1.65623419       0.24183090      -0.42780041
C       -0.50123500       0.98706518       0.22962302
O        0.26029385      -0.44772144      -1.47100682
H        2.29537997       1.24831298      -0.63043497
H        2.70232356      -0.44656759      -0.26404961
H        2.27822713       0.66703211       1.03795187
H       -0.49419246      -1.24603305       1.42217025
H        0.66301345      -2.10439889       0.32991020
H       -1.37235116      -1.81821646      -1.37272657
H       -2.49952054       0.07603205       0.24424387
H       -2.01900640       0.77572985      -1.31010413
H       -0.99426439       2.28702740       1.08520703
H       -0.42833027       1.64405137       1.63162600
17
Frame=16 idx=009659 GeodesicLength=1.1720277484040602 rxn_smarts="[C:1]([C@@:2]12[C:3]([H:11])([H:12])[C@@:4]([H:13])([C:5]([H:14])([H:15])[C:6]1([H:16])[H:17])[O:7]2)([H:8])([H:9])[H:10]>>[C:1]([C@@:2]12[C:3]([H:11])([H:12])[C@@:4]([H:13])([C:5]([H:14])([H:15])[C:6]1)[O:7]2)([H:8])([H:9])[H:10].[H:16][H:17]"
C        2.06036739       0.38994046       0.00675985
C        0.61375619       0.03555000      -0.13547964
C       -0.02294733      -1.27454935       0.43498321
C       -0.88391144      -1.02603029      -0.80936908
C       -1.65579986       0.23866575      -0.41761265
C       -0.50516897       0.97035424       0.26306345
O        0.26014806      -0.44314528      -1.46890760
H        2.29259357       1.25243554      -0.61989335
H        2.70123607      -0.44645797      -0.27314623
H        2.28278275       0.65257096       1.04186979
H       -0.49323335      -1.26097628       1.41933717
H        0.66693957      -2.10912706       0.32238951
H       -1.37149496      -1.81369131      -1.37988497
H       -2.50477442       0.06242071       0.24452696
H       -2.01105247       0.78485609      -1.29559760
H       -1.01779820       2.31019948       1.05718572
H       -0.41164259       1.67698430       1.60977548
