18
Frame=0 idx=008964 GeodesicLength=0.0 rxn_smarts="[C:1]([C:2]([N:3]1[C:4]([H:13])([H:14])[C@:5]1([C:6]([O:7][H:18])([H:16])[H:17])[H:15])([H:11])[H:12])([H:8])([H:9])[H:10]>>[C:1]([C@@:5]([N:3]1[C:2]([H:11])([H:12])[C:4]1([H:13])[H:14])([C:6]([O:7][H:18])([H:16])[H:17])[H:15])([H:8])([H:9])[H:10]"
C       -1.27984814      -0.36228643      -1.01749013
C       -1.31481145      -0.17647528       0.91027909
N        0.08672906      -0.11265086       0.92679199
C        0.47778312       0.69353419       1.98104967
C        0.33312155       0.46230571      -0.34686653
C        1.51896525      -0.03528840      -1.12662576
O        1.72582875      -1.40837414      -0.93010390
H       -2.34783398      -0.58792308      -0.86609427
H       -0.82034408      -1.29081579      -1.34936671
H       -1.31547103       0.36762336      -1.83274288
H       -1.83737472       0.78144145       0.98559198
H       -1.80073526      -1.01009799       1.41897269
H        0.05546462       1.69417602       2.05711215
H        1.22185420       0.35648727       2.68944441
H        0.12200784       1.53422955      -0.42676477
H        1.33846072       0.14211719      -2.19171188
H        2.40825558       0.54647952      -0.85139528
H        1.42794794      -1.59448223      -0.03007979
18
Frame=1 idx=008964 GeodesicLength=0.08240161104905498 rxn_smarts="[C:1]([C:2]([N:3]1[C:4]([H:13])([H:14])[C@:5]1([C:6]([O:7][H:18])([H:16])[H:17])[H:15])([H:11])[H:12])([H:8])([H:9])[H:10]>>[C:1]([C@@:5]([N:3]1[C:2]([H:11])([H:12])[C:4]1([H:13])[H:14])([C:6]([O:7][H:18])([H:16])[H:17])[H:15])([H:8])([H:9])[H:10]"
C       -1.28868241      -0.36558358      -1.01520890
C       -1.32091417      -0.17065199       0.92385321
N        0.08349842      -0.14571022       0.92021148
C        0.47162880       0.68531926       1.95831985
C        0.33696499       0.45892825      -0.33937473
C        1.52885653      -0.02695741      -1.11768753
O        1.75030906      -1.39914467      -0.93227069
H       -2.35925064      -0.57761215      -0.86703486
H       -0.83953405      -1.30015716      -1.34517785
H       -1.31578780       0.35767401      -1.83651846
H       -1.83614747       0.79163626       0.98879249
H       -1.81344983      -0.99424124       1.44177344
H        0.06209592       1.69083796       2.03385472
H        1.21758686       0.35354335       2.66758479
H        0.11878836       1.52894947      -0.42314576
H        1.35027966       0.15599354      -2.18234755
H        2.41283647       0.55947017      -0.83547232
H        1.44092129      -1.60229385      -0.04015133
18
Frame=2 idx=008964 GeodesicLength=0.16473187065047057 rxn_smarts="[C:1]([C:2]([N:3]1[C:4]([H:13])([H:14])[C@:5]1([C:6]([O:7][H:18])([H:16])[H:17])[H:15])([H:11])[H:12])([H:8])([H:9])[H:10]>>[C:1]([C@@:5]([N:3]1[C:2]([H:11])([H:12])[C:4]1([H:13])[H:14])([C:6]([O:7][H:18])([H:16])[H:17])[H:15])([H:8])([H:9])[H:10]"
C       -1.29787491      -0.36875726      -1.01325636
C       -1.32644268      -0.16479097       0.93725371
N        0.07962522      -0.17715310       0.91283335
C        0.46567440       0.67676495       1.93545428
C        0.34057249       0.45594886      -0.33245221
C        1.53876352      -0.01865702      -1.10846686
O        1.77504934      -1.38948317      -0.93264362
H       -2.37088007      -0.56677829      -0.86809630
H       -0.85956462      -1.30952586      -1.34107312
H       -1.31632924       0.34745663      -1.84077163
H       -1.83514106       0.80127721       0.99210170
H       -1.82438568      -0.97875154       1.46452200
H        0.06908072       1.68697885       2.01162802
H        1.21361035       0.34909120       2.64496681
H        0.11540600       1.52399658      -0.42055890
H        1.36234664       0.16889076      -2.17289970
H        2.41714940       0.57276115      -0.81937329
H        1.45334018      -1.60926899      -0.04916788
18
Frame=3 idx=008964 GeodesicLength=0.2470129075884515 rxn_smarts="[C:1]([C:2]([N:3]1[C:4]([H:13])([H:14])[C@:5]1([C:6]([O:7][H:18])([H:16])[H:17])[H:15])([H:11])[H:12])([H:8])([H:9])[H:10]>>[C:1]([C@@:5]([N:3]1[C:2]([H:11])([H:12])[C:4]1([H:13])[H:14])([C:6]([O:7][H:18])([H:16])[H:17])[H:15])([H:8])([H:9])[H:10]"
C       -1.30743059      -0.37178889      -1.01162792
C       -1.33140034      -0.15895593       0.95048933
N        0.07518918      -0.20710505       0.90469930
C        0.45989237       0.66794380       1.91250812
C        0.34396947       0.45331832      -0.32608340
C        1.54869328      -0.01039382      -1.09899349
O        1.80007646      -1.37941219      -0.93128127
H       -2.38272842      -0.55535424      -0.86929942
H       -0.88049516      -1.31890323      -1.33705962
H       -1.31708080       0.33700120      -1.84547163
H       -1.83431500       0.81034888       0.99555702
H       -1.83358611      -0.96369466       1.48720765
H        0.07637592       1.68266771       1.99030544
H        1.20984992       0.34331698       2.62173499
H        0.11190627       1.51932676      -0.41889913
H        1.37465090       0.18083058      -2.16339032
H        2.42119352       0.58635243      -0.80315867
H        1.46523914      -1.61549865      -0.05723696
18
Frame=4 idx=008964 GeodesicLength=0.32926360830681517 rxn_smarts="[C:1]([C:2]([N:3]1[C:4]([H:13])([H:14])[C@:5]1([C:6]([O:7][H:18])([H:16])[H:17])[H:15])([H:11])[H:12])([H:8])([H:9])[H:10]>>[C:1]([C@@:5]([N:3]1[C:2]([H:11])([H:12])[C:4]1([H:13])[H:14])([C:6]([O:7][H:18])([H:16])[H:17])[H:15])([H:8])([H:9])[H:10]"
C       -1.31735424      -0.37466433      -1.01031897
C       -1.33579443      -0.15320042       0.96356684
N        0.07025728      -0.23567766       0.89584435
C        0.45426118       0.65891053       1.88952476
C        0.34717616       0.45099454      -0.32025532
C        1.55865277      -0.00216816      -1.08928996
O        1.82542099      -1.36893948      -0.92820683
H       -2.39479601      -0.54327628      -0.87066597
H       -0.90238164      -1.32827293      -1.33313517
H       -1.31802784       0.32632701      -1.85059531
H       -1.83363598       0.81884087       0.99919039
H       -1.84110047      -0.94912421       1.50982577
H        0.08394866       1.67795514       1.96977500
H        1.20625247       0.33637751       2.59799698
H        0.10832506       1.51490303      -0.41807465
H        1.38718729       0.19182124      -2.15383719
H        2.42496342       0.60026044      -0.78688272
H        1.47664534      -1.62106683      -0.06446202
18
Frame=5 idx=008964 GeodesicLength=0.4115047516434478 rxn_smarts="[C:1]([C:2]([N:3]1[C:4]([H:13])([H:14])[C@:5]1([C:6]([O:7][H:18])([H:16])[H:17])[H:15])([H:11])[H:12])([H:8])([H:9])[H:10]>>[C:1]([C@@:5]([N:3]1[C:2]([H:11])([H:12])[C:4]1([H:13])[H:14])([C:6]([O:7][H:18])([H:16])[H:17])[H:15])([H:8])([H:9])[H:10]"
C       -1.32765148      -0.37736858      -1.00932433
C       -1.33963514      -0.14756775       0.97649355
N        0.06488872      -0.26297182       0.88629880
C        0.44876615       0.64971087       1.86653048
C        0.35020955       0.44894159      -0.31495664
C        1.56864773       0.00602233      -1.07937828
O        1.85111103      -1.35806932      -0.92343942
H       -2.40708099      -0.53048841      -0.87221640
H       -0.92527633      -1.33762277      -1.32928954
H       -1.31915897       0.31544546      -1.85612225
H       -1.83307400       0.82675130       1.00302830
H       -1.84697154      -0.93508427       1.53236358
H        0.09175360       1.67287630       1.94994218
H        1.20278907       0.32840837       2.57383868
H        0.10469114       1.51069512      -0.41800361
H        1.39995399       0.20187048      -2.14425236
H        2.42845275       0.61449545      -0.77058839
H        1.48758471      -1.62604436      -0.07092434
18
Frame=6 idx=008964 GeodesicLength=0.4937507483852983 rxn_smarts="[C:1]([C:2]([N:3]1[C:4]([H:13])([H:14])[C@:5]1([C:6]([O:7][H:18])([H:16])[H:17])[H:15])([H:11])[H:12])([H:8])([H:9])[H:10]>>[C:1]([C@@:5]([N:3]1[C:2]([H:11])([H:12])[C:4]1([H:13])[H:14])([C:6]([O:7][H:18])([H:16])[H:17])[H:15])([H:8])([H:9])[H:10]"
C       -1.33832698      -0.37989099      -1.00864041
C       -1.34293035      -0.14210379       0.98927414
N        0.05913075      -0.28908118       0.87608595
C        0.44339268       0.64038100       1.84355203
C        0.35308504       0.44712469      -0.31017731
C        1.57868657       0.01417782      -1.06926610
O        1.87717029      -1.34679021      -0.91696274
H       -2.41957621      -0.51691777      -0.87397161
H       -0.94924155      -1.34693245      -1.32550977
H       -1.32045820       0.30435946      -1.86203850
H       -1.83260099       0.83407221       1.00709893
H       -1.85124438      -0.92162265       1.55481666
H        0.09975961       1.66746199       1.93072032
H        1.19943120       0.31953176       2.54931837
H        0.10102791       1.50667320      -0.41861511
H        1.41295282       0.21096756      -2.13464679
H        2.43165025       0.62908356      -0.75432670
H        1.49809153      -1.63049420      -0.07671135
18
Frame=7 idx=008964 GeodesicLength=0.5760142978181947 rxn_smarts="[C:1]([C:2]([N:3]1[C:4]([H:13])([H:14])[C@:5]1([C:6]([O:7][H:18])([H:16])[H:17])[H:15])([H:11])[H:12])([H:8])([H:9])[H:10]>>[C:1]([C@@:5]([N:3]1[C:2]([H:11])([H:12])[C:4]1([H:13])[H:14])([C:6]([O:7][H:18])([H:16])[H:17])[H:15])([H:8])([H:9])[H:10]"
C       -1.34938633      -0.38222103      -1.00826416
C       -1.34568980      -0.13684560       1.00191203
N        0.05302392      -0.31408936       0.86522465
C        0.43812917       0.63094963       1.82060500
C        0.35581392       0.44551475      -0.30591016
C        1.58877519       0.02230122      -1.05896401
O        1.90361792      -1.33508887      -0.90876238
H       -2.43227223      -0.50250303      -0.87595159
H       -0.97433828      -1.35618169      -1.32177739
H       -1.32191552       0.29306434      -1.86833155
H       -1.83219162       0.84080241       1.01142403
H       -1.85395597      -0.90878239       1.57717394
H        0.10793526       1.66173444       1.91203310
H        1.19617021       0.30985289       2.52448352
H        0.09735087       1.50281404      -0.41984696
H        1.42619207       0.21910276      -2.12502111
H        2.43454321       0.64404504      -0.73813504
H        1.50819799      -1.63446957      -0.08189192
18
Frame=8 idx=008964 GeodesicLength=0.6583156916378429 rxn_smarts="[C:1]([C:2]([N:3]1[C:4]([H:13])([H:14])[C@:5]1([C:6]([O:7][H:18])([H:16])[H:17])[H:15])([H:11])[H:12])([H:8])([H:9])[H:10]>>[C:1]([C@@:5]([N:3]1[C:2]([H:11])([H:12])[C:4]1([H:13])[H:14])([C:6]([O:7][H:18])([H:16])[H:17])[H:15])([H:8])([H:9])[H:10]"
C       -1.36083694      -0.38434591      -1.00818981
C       -1.34792247      -0.13182821       1.01441118
N        0.04660545      -0.33807627       0.85372981
C        0.43296585       0.62143719       1.79769951
C        0.35840785       0.44408687      -0.30214761
C        1.59891931       0.03039866      -1.04847695
O        1.93046735      -1.32293808      -0.89878298
H       -2.44515578      -0.48717377      -0.87817565
H       -1.00062350      -1.36535417      -1.31806615
H       -1.32351689       0.28154916      -1.87499368
H       -1.83182359       0.84693930       1.01602581
H       -1.85514909      -0.89659864       1.59942480
H        0.11625128       1.65570720       1.89381298
H        1.19299841       0.29945533       2.49936484
H        0.09367503       1.49909745      -0.42164388
H        1.43967679       0.22624804      -2.11538060
H        2.43711456       0.65941430      -0.72206317
H        1.51794641      -1.63801844      -0.08654846
18
Frame=9 idx=008964 GeodesicLength=0.7406892434049575 rxn_smarts="[C:1]([C:2]([N:3]1[C:4]([H:13])([H:14])[C@:5]1([C:6]([O:7][H:18])([H:16])[H:17])[H:15])([H:11])[H:12])([H:8])([H:9])[H:10]>>[C:1]([C@@:5]([N:3]1[C:2]([H:11])([H:12])[C:4]1([H:13])[H:14])([C:6]([O:7][H:18])([H:16])[H:17])[H:15])([H:8])([H:9])[H:10]"
C       -1.37267973      -0.38625947      -1.00841294
C       -1.34963944      -0.12707167       1.02677626
N        0.03990959      -0.36111378       0.84160820
C        0.42789565       0.61184293       1.77483645
C        0.36087507       0.44283005      -0.29888756
C        1.60912579       0.03848516      -1.03780775
O        1.95774815      -1.31027498      -0.88692661
H       -2.45820799      -0.47087857      -0.88066204
H       -1.02814941      -1.37443388      -1.31433665
H       -1.32524550       0.26979801      -1.88201889
H       -1.83148209       0.85249397       1.02091598
H       -1.85487501      -0.88509049       1.62157279
H        0.12469206       1.64936873       1.87600675
H        1.18991937       0.28839102       2.47397229
H        0.09000523       1.49551611      -0.42396249
H        1.45341694       0.23234359      -2.10571878
H        2.43933998       0.67524477      -0.70616993
H        1.52735135      -1.64119152      -0.09078508
18
Frame=10 idx=008964 GeodesicLength=0.8231360557024936 rxn_smarts="[C:1]([C:2]([N:3]1[C:4]([H:13])([H:14])[C@:5]1([C:6]([O:7][H:18])([H:16])[H:17])[H:15])([H:11])[H:12])([H:8])([H:9])[H:10]>>[C:1]([C@@:5]([N:3]1[C:2]([H:11])([H:12])[C:4]1([H:13])[H:14])([C:6]([O:7][H:18])([H:16])[H:17])[H:15])([H:8])([H:9])[H:10]"
C       -1.38492538      -0.38794590      -1.00893116
C       -1.35084098      -0.12262316       1.03900544
N        0.03295807      -0.38326502       0.82886738
C        0.42291446       0.60219311       1.75201807
C        0.36322567       0.44171759      -0.29612385
C        1.61939635       0.04655951      -1.02695762
O        1.98542770      -1.29709138      -0.87315080
H       -2.47140323      -0.45353857      -0.88343132
H       -1.05699301      -1.38338113      -1.31056976
H       -1.32709835       0.25779253      -1.88939832
H       -1.83114027       0.85744403       1.02612065
H       -1.85314035      -0.87430883       1.64358541
H        0.13321753       1.64274409       1.85856298
H        1.18693330       0.27674224       2.44832145
H        0.08635372       1.49204964      -0.42675757
H        1.46742265       0.23736891      -2.09604404
H        2.44120744       0.69154533      -0.69048751
H        1.53648468      -1.64400297      -0.09462943
18
Frame=11 idx=008964 GeodesicLength=0.9056729242232665 rxn_smarts="[C:1]([C:2]([N:3]1[C:4]([H:13])([H:14])[C@:5]1([C:6]([O:7][H:18])([H:16])[H:17])[H:15])([H:11])[H:12])([H:8])([H:9])[H:10]>>[C:1]([C@@:5]([N:3]1[C:2]([H:11])([H:12])[C:4]1([H:13])[H:14])([C:6]([O:7][H:18])([H:16])[H:17])[H:15])([H:8])([H:9])[H:10]"
C       -1.39758054      -0.38939408      -1.00974295
C       -1.35153259      -0.11851219       1.05109672
N        0.02577053      -0.40458639       0.81550568
C        0.41801830       0.59249000       1.72923903
C        0.36546596       0.44073658      -0.29385621
C        1.62973166       0.05462592      -1.01592618
O        2.01348377      -1.28335210      -0.85737461
H       -2.48471349      -0.43508289      -0.88650483
H       -1.08721955      -1.39216047      -1.30673092
H       -1.32906931       0.24550488      -1.89712632
H       -1.83078450       0.86178250       1.03165505
H       -1.84996989      -0.86429321       1.66544664
H        0.14181177       1.63583204       1.84143930
H        1.18404998       0.26454717       2.42241268
H        0.08272531       1.48868971      -0.42999701
H        1.48170009       0.24127911      -2.08636020
H        2.44269964       0.70834873      -0.67506530
H        1.54541285      -1.64645533      -0.09811056
18
Frame=12 idx=008964 GeodesicLength=0.9883206641821624 rxn_smarts="[C:1]([C:2]([N:3]1[C:4]([H:13])([H:14])[C@:5]1([C:6]([O:7][H:18])([H:16])[H:17])[H:15])([H:11])[H:12])([H:8])([H:9])[H:10]>>[C:1]([C@@:5]([N:3]1[C:2]([H:11])([H:12])[C:4]1([H:13])[H:14])([C:6]([O:7][H:18])([H:16])[H:17])[H:15])([H:8])([H:9])[H:10]"
C       -1.41065673      -0.39058531      -1.01084620
C       -1.35171606      -0.11476873       1.06304712
N        0.01836242      -0.42512971       0.80151605
C        0.41320244       0.58273664       1.70648889
C        0.36760007       0.43987678      -0.29208469
C        1.64012678       0.06268974      -1.00472073
O        2.04186063      -1.26903712      -0.83953681
H       -2.49810351      -0.41545361      -0.88990506
H       -1.11890125      -1.40072537      -1.30278660
H       -1.33116037       0.23291279      -1.90519674
H       -1.83039574       0.86549839       1.03753655
H       -1.84537047      -0.85508715       1.68712335
H        0.15045197       1.62863329       1.82460034
H        1.18127768       0.25184134       2.39623835
H        0.07912339       1.48543168      -0.43364846
H        1.49625787       0.24403167      -2.07666714
H        2.44380014       0.72566112      -0.65994363
H        1.55424074      -1.64852643      -0.10121460
18
Frame=13 idx=008964 GeodesicLength=1.0711130449195911 rxn_smarts="[C:1]([C:2]([N:3]1[C:4]([H:13])([H:14])[C@:5]1([C:6]([O:7][H:18])([H:16])[H:17])[H:15])([H:11])[H:12])([H:8])([H:9])[H:10]>>[C:1]([C@@:5]([N:3]1[C:2]([H:11])([H:12])[C:4]1([H:13])[H:14])([C:6]([O:7][H:18])([H:16])[H:17])[H:15])([H:8])([H:9])[H:10]"
C       -1.42416067      -0.39150676      -1.01223826
C       -1.35139305      -0.11142512       1.07485391
N        0.01075109      -0.44495039       0.78688952
C        0.40846252       0.57292570       1.68375758
C        0.36963478       0.43913059      -0.29081026
C        1.65058121       0.07075842      -0.99334108
O        2.07051366      -1.25408574      -0.81950608
H       -2.51153484      -0.39457660      -0.89364934
H       -1.15210962      -1.40902604      -1.29869579
H       -1.33336389       0.21998464      -1.91360581
H       -1.82995871       0.86858144       1.04377964
H       -1.83936744      -0.84672784       1.70859743
H        0.15912192       1.62113527       1.80801363
H        1.17862825       0.23865150       2.36978811
H        0.07555006       1.48227215      -0.43768563
H        1.51110825       0.24555095      -2.06696857
H        2.44448570       0.74352823      -0.64519215
H        1.56305078      -1.65022040      -0.10398687
18
Frame=14 idx=008964 GeodesicLength=1.154082120463444 rxn_smarts="[C:1]([C:2]([N:3]1[C:4]([H:13])([H:14])[C@:5]1([C:6]([O:7][H:18])([H:16])[H:17])[H:15])([H:11])[H:12])([H:8])([H:9])[H:10]>>[C:1]([C@@:5]([N:3]1[C:2]([H:11])([H:12])[C:4]1([H:13])[H:14])([C:6]([O:7][H:18])([H:16])[H:17])[H:15])([H:8])([H:9])[H:10]"
C       -1.43810371      -0.39213994      -1.01391772
C       -1.35056195      -0.10851625       1.08651151
N        0.00294708      -0.46409381       0.77160935
C        0.40379605       0.56304828       1.66103114
C        0.37157355       0.43849232      -0.29003684
C        1.66108532       0.07883739      -0.98179571
O        2.09935424      -1.23845995      -0.79719879
H       -2.52495226      -0.37237769      -0.89776849
H       -1.18692594      -1.41699614      -1.29441703
H       -1.33568874       0.20668375      -1.92234489
H       -1.82945935       0.87101122       1.05040111
H       -1.83196625      -0.83926177       1.72983562
H        0.16780600       1.61332693       1.79165426
H        1.17611118       0.22498972       2.34303562
H        0.07200631       1.47921077      -0.44208555
H        1.52625934       0.24577468      -2.05726523
H        2.44474082       0.76195760      -0.63087009
H        1.57197830      -1.65148712      -0.10637828
18
Frame=15 idx=008964 GeodesicLength=1.2372623724282659 rxn_smarts="[C:1]([C:2]([N:3]1[C:4]([H:13])([H:14])[C@:5]1([C:6]([O:7][H:18])([H:16])[H:17])[H:15])([H:11])[H:12])([H:8])([H:9])[H:10]>>[C:1]([C@@:5]([N:3]1[C:2]([H:11])([H:12])[C:4]1([H:13])[H:14])([C:6]([O:7][H:18])([H:16])[H:17])[H:15])([H:8])([H:9])[H:10]"
C       -1.45249802      -0.39246670      -1.01588566
C       -1.34922063      -0.10608024       1.09801099
N       -0.00504224      -0.48260284       0.75565448
C        0.39920087       0.55309464       1.63829024
C        0.37341869       0.43795755      -0.28977097
C        1.67162647       0.08692593      -0.97009644
O        2.12826754      -1.22213401      -0.77254692
H       -2.53830222      -0.34878468      -0.90228622
H       -1.22342932      -1.42455549      -1.28991450
H       -1.33814599       0.19297767      -1.93140520
H       -1.82888269       0.87276425       1.05741728
H       -1.82317012      -0.83274259       1.75079897
H        0.17648676       1.60519625       1.77549915
H        1.17374175       0.21086383       2.31595735
H        0.06849168       1.47624876      -0.44682797
H        1.54171672       0.24464855      -2.04756680
H        2.44455331       0.78095006      -0.61703589
H        1.58118744      -1.65226094      -0.10829189
18
Frame=16 idx=008964 GeodesicLength=1.320702113285184 rxn_smarts="[C:1]([C:2]([N:3]1[C:4]([H:13])([H:14])[C@:5]1([C:6]([O:7][H:18])([H:16])[H:17])[H:15])([H:11])[H:12])([H:8])([H:9])[H:10]>>[C:1]([C@@:5]([N:3]1[C:2]([H:11])([H:12])[C:4]1([H:13])[H:14])([C:6]([O:7][H:18])([H:16])[H:17])[H:15])([H:8])([H:9])[H:10]"
C       -1.46735887      -0.39246142      -1.01814305
C       -1.34736420      -0.10415455       1.10934114
N       -0.01321107      -0.50051947       0.73899572
C        0.39467287       0.54304641       1.61551492
C        0.37517251       0.43752495      -0.29002212
C        1.68218813       0.09502416      -0.95826146
O        2.15711608      -1.20508187      -0.74549449
H       -2.55152481      -0.32372618      -0.90723089
H       -1.26170376      -1.43161543      -1.28514534
H       -1.34075124       0.17882969      -1.94077954
H       -1.82821508       0.87381496       1.06484210
H       -1.81298021      -0.82722715       1.77144411
H        0.18515148       1.59672168       1.75953239
H        1.17153476       0.19626818       2.28852163
H        0.06500645       1.47339105      -0.45189552
H        1.55748257       0.24211862      -2.03788560
H        2.44391365       0.80049989      -0.60375709
H        1.59087074      -1.65245352      -0.10957693
