16
Frame=0 idx=002885 GeodesicLength=0.0 rxn_smarts="[C:1]([C@@:2]1([H:10])[C:3]([H:11])([H:12])[C@@:4]2([H:13])[C:5]([H:14])([H:15])[C@@:6]12[H:16])([H:7])([H:8])[H:9]>>[C:1](=[C:2]([C:6]([C:5]([C:4](=[C:3]([H:11])[H:12])[H:13])([H:14])[H:15])([H:9])[H:16])[H:10])([H:7])[H:8]"
C       -1.16681704      -0.57329244       1.39989160
C       -0.59393701       0.47485001       0.54224208
C        0.98864341       0.90038714       0.54986262
C        1.18793409       0.57738899      -0.86083825
C        0.71743367      -0.76199688      -1.19321526
C       -0.68057322      -0.26466143      -0.78474718
H       -0.53695949      -1.44980939       1.54241037
H       -1.76757049      -0.34225069       2.28039892
H       -1.43970950      -1.08367259      -0.10034778
H       -1.17213035       1.39660735       0.54917547
H        1.15259175       1.94183971       0.81575429
H        1.53362576       0.25061076       1.23286964
H        1.21103220       1.34667738      -1.62315084
H        1.08126630      -1.56512178      -0.54927978
H        0.77387193      -1.04741929      -2.23986861
H       -1.28870205       0.19986320      -1.56115734
16
Frame=1 idx=002885 GeodesicLength=0.09412121215863044 rxn_smarts="[C:1]([C@@:2]1([H:10])[C:3]([H:11])([H:12])[C@@:4]2([H:13])[C:5]([H:14])([H:15])[C@@:6]12[H:16])([H:7])([H:8])[H:9]>>[C:1](=[C:2]([C:6]([C:5]([C:4](=[C:3]([H:11])[H:12])[H:13])([H:14])[H:15])([H:9])[H:16])[H:10])([H:7])[H:8]"
C       -1.17892775      -0.58047277       1.40122722
C       -0.60033021       0.46581000       0.55045654
C        1.00724372       0.90571202       0.54562064
C        1.18225154       0.58387223      -0.86612915
C        0.71642705      -0.76009316      -1.19467057
C       -0.67776365      -0.25952516      -0.78547157
H       -0.54978174      -1.45280783       1.56853602
H       -1.80328557      -0.34358544       2.26333583
H       -1.43249146      -1.10404048      -0.09600650
H       -1.17192002       1.39170346       0.55970166
H        1.17493673       1.94684031       0.81057032
H        1.55927716       0.25530864       1.22258054
H        1.20802050       1.35180756      -1.62967080
H        1.08277886      -1.55956602      -0.54801455
H        0.77200441      -1.04462217      -2.24160679
H       -1.28843957       0.20365882      -1.56045884
16
Frame=2 idx=002885 GeodesicLength=0.18820762397855623 rxn_smarts="[C:1]([C@@:2]1([H:10])[C:3]([H:11])([H:12])[C@@:4]2([H:13])[C:5]([H:14])([H:15])[C@@:6]12[H:16])([H:7])([H:8])[H:9]>>[C:1](=[C:2]([C:6]([C:5]([C:4](=[C:3]([H:11])[H:12])[H:13])([H:14])[H:15])([H:9])[H:16])[H:10])([H:7])[H:8]"
C       -1.19143087      -0.58785843       1.40253195
C       -0.60686887       0.45650095       0.55879044
C        1.02631318       0.91121404       0.54111732
C        1.17645279       0.59050123      -0.87132635
C        0.71537782      -0.75804771      -1.19602887
C       -0.67498993      -0.25429671      -0.78600347
H       -0.56348207      -1.45548813       1.59534479
H       -1.83940911      -0.34541557       2.24521610
H       -1.42478964      -1.12484555      -0.09139444
H       -1.17146707       1.38669241       0.57062701
H        1.19783956       1.95201274       0.80502112
H        1.58539861       0.26011252       1.21182109
H        1.20497254       1.35696265      -1.63621115
H        1.08434492      -1.55384067      -0.54671028
H        0.77002917      -1.04167376      -2.24325360
H       -1.28829104       0.20747000      -1.55954166
16
Frame=3 idx=002885 GeodesicLength=0.28227122409804034 rxn_smarts="[C:1]([C@@:2]1([H:10])[C:3]([H:11])([H:12])[C@@:4]2([H:13])[C:5]([H:14])([H:15])[C@@:6]12[H:16])([H:7])([H:8])[H:9]>>[C:1](=[C:2]([C:6]([C:5]([C:4](=[C:3]([H:11])[H:12])[H:13])([H:14])[H:15])([H:9])[H:16])[H:10])([H:7])[H:8]"
C       -1.20434674      -0.59546463       1.40379472
C       -0.61356883       0.44690995       0.56724841
C        1.04587366       0.91690199       0.53633536
C        1.17053038       0.59728665      -0.87641921
C        0.71428596      -0.75585253      -1.19727989
C       -0.67225387      -0.24897345      -0.78633349
H       -0.57814551      -1.45783945       1.62283094
H       -1.87590981      -0.34775407       2.22600723
H       -1.41657634      -1.14609969      -0.08649204
H       -1.17075902       1.38156230       0.58198218
H        1.22132905       1.95736472       0.79908138
H        1.61200316       0.26502582       1.20056965
H        1.20188011       1.36214281      -1.64277072
H        1.08597152      -1.54793521      -0.54535940
H        0.76794620      -1.03856853      -2.24479771
H       -1.28825991       0.21129330      -1.55839740
16
Frame=4 idx=002885 GeodesicLength=0.37632169363856066 rxn_smarts="[C:1]([C@@:2]1([H:10])[C:3]([H:11])([H:12])[C@@:4]2([H:13])[C:5]([H:14])([H:15])[C@@:6]12[H:16])([H:7])([H:8])[H:9]>>[C:1](=[C:2]([C:6]([C:5]([C:4](=[C:3]([H:11])[H:12])[H:13])([H:14])[H:15])([H:9])[H:16])[H:10])([H:7])[H:8]"
C       -1.21769814      -0.60330885       1.40500106
C       -0.62044571       0.43702297       0.57583500
C        1.06594881       0.92278515       0.53125469
C        1.16447682       0.60423854      -0.88139679
C        0.71315074      -0.75349922      -1.19841350
C       -0.66955754      -0.24355145      -0.78645138
H       -0.59386168      -1.45984654       1.65099070
H       -1.91275665      -0.35061635       2.20567588
H       -1.40781906      -1.16781545      -0.08127735
H       -1.16978208       1.37629977       0.59380179
H        1.24543285       1.96290547       0.79272534
H        1.63910581       0.27005272       1.18880282
H        1.19873647       1.36734679      -1.64934850
H        1.08766491      -1.54183916      -0.54395481
H        0.76575414      -1.03530039      -2.24622823
H       -1.28834969       0.21512598      -1.55701672
16
Frame=5 idx=002885 GeodesicLength=0.4703621426896124 rxn_smarts="[C:1]([C@@:2]1([H:10])[C:3]([H:11])([H:12])[C@@:4]2([H:13])[C:5]([H:14])([H:15])[C@@:6]12[H:16])([H:7])([H:8])[H:9]>>[C:1](=[C:2]([C:6]([C:5]([C:4](=[C:3]([H:11])[H:12])[H:13])([H:14])[H:15])([H:9])[H:16])[H:10])([H:7])[H:8]"
C       -1.23150846      -0.61140954       1.40613555
C       -0.62751661       0.42682515       0.58455493
C        1.08656015       0.92887361       0.52585475
C        1.15828479       0.61136684      -0.88624552
C        0.71197216      -0.75097945      -1.19941814
C       -0.66690288      -0.23802715      -0.78634759
H       -0.61072395      -1.46149917       1.67981025
H       -1.94990743      -0.35401310       2.18419643
H       -1.39849010      -1.19000183      -0.07572790
H       -1.16852280       1.37088793       0.60612062
H        1.27017521       1.96864482       0.78592477
H        1.66672139       0.27519897       1.17649530
H        1.19553612       1.37257202      -1.65594197
H        1.08943097      -1.53554203      -0.54248724
H        0.76345366      -1.03186355      -2.24753264
H       -1.28856223       0.21896647      -1.55539159
16
Frame=6 idx=002885 GeodesicLength=0.564406720327556 rxn_smarts="[C:1]([C@@:2]1([H:10])[C:3]([H:11])([H:12])[C@@:4]2([H:13])[C:5]([H:14])([H:15])[C@@:6]12[H:16])([H:7])([H:8])[H:9]>>[C:1](=[C:2]([C:6]([C:5]([C:4](=[C:3]([H:11])[H:12])[H:13])([H:14])[H:15])([H:9])[H:16])[H:10])([H:7])[H:8]"
C       -1.24580091      -0.61978633       1.40718396
C       -0.63479724       0.41630107       0.59341635
C        1.10773706       0.93518184       0.52010873
C        1.15194595       0.61868369      -0.89095166
C        0.71074848      -0.74828370      -1.20027903
C       -0.66429233      -0.23239462      -0.78600692
H       -0.62884610      -1.46278447       1.70927629
H       -1.98733468      -0.35797434       2.16151978
H       -1.38855105      -1.21266787      -0.06980910
H       -1.16696306       1.36530860       0.61898489
H        1.29559158       1.97459724       0.77864123
H        1.69487425       0.28047439       1.16361366
H        1.19227149       1.37781423      -1.66255132
H        1.09127650      -1.52903111      -0.54094404
H        0.76104176      -1.02825214      -2.24869507
H       -1.28890170       0.22281351      -1.55350775
16
Frame=7 idx=002885 GeodesicLength=0.6584591893835933 rxn_smarts="[C:1]([C@@:2]1([H:10])[C:3]([H:11])([H:12])[C@@:4]2([H:13])[C:5]([H:14])([H:15])[C@@:6]12[H:16])([H:7])([H:8])[H:9]>>[C:1](=[C:2]([C:6]([C:5]([C:4](=[C:3]([H:11])[H:12])[H:13])([H:14])[H:15])([H:9])[H:16])[H:10])([H:7])[H:8]"
C       -1.26060057      -0.62846002       1.40812956
C       -0.64230538       0.40543426       0.60242595
C        1.12950658       0.94172488       0.51398673
C        1.14545298       0.62620044      -0.89549764
C        0.70947938      -0.74540301      -1.20097917
C       -0.66172769      -0.22664777      -0.78541580
H       -0.64834807      -1.46369597       1.73936013
H       -2.02498376      -0.36252519       2.13762297
H       -1.37797225      -1.23581857      -0.06349432
H       -1.16508789       1.35954189       0.63243717
H        1.32171166       1.98077803       0.77083211
H        1.72357881       0.28589113       1.15012926
H        1.18893935       1.38306637      -1.66917525
H        1.09320639      -1.52229384      -0.53931022
H        0.75851913      -1.02446053      -2.24969732
H       -1.28936866       0.22666791      -1.55135418
16
Frame=8 idx=002885 GeodesicLength=0.7525176319703965 rxn_smarts="[C:1]([C@@:2]1([H:10])[C:3]([H:11])([H:12])[C@@:4]2([H:13])[C:5]([H:14])([H:15])[C@@:6]12[H:16])([H:7])([H:8])[H:9]>>[C:1](=[C:2]([C:6]([C:5]([C:4](=[C:3]([H:11])[H:12])[H:13])([H:14])[H:15])([H:9])[H:16])[H:10])([H:7])[H:8]"
C       -1.27593328      -0.63745636       1.40895325
C       -0.65005360       0.39420391       0.61159446
C        1.15189739       0.94852533       0.50745563
C        1.13879705       0.63392692      -0.89986584
C        0.70816082      -0.74232886      -1.20149963
C       -0.65921219      -0.22077815      -0.78455625
H       -0.66936902      -1.46423056       1.77003654
H       -2.06281571      -0.36770170       2.11245416
H       -1.36670724      -1.25945278      -0.05674066
H       -1.16287097       1.35356393       0.64653420
H        1.34857141       1.98721163       0.76244817
H        1.75286145       0.29146707       1.13600149
H        1.18553530       1.38831977      -1.67581293
H        1.09522344      -1.51531667      -0.53756915
H        0.75588010      -1.02048454      -2.25051934
H       -1.28996496       0.23053104      -1.54891411
16
Frame=9 idx=002885 GeodesicLength=0.846634844988573 rxn_smarts="[C:1]([C@@:2]1([H:10])[C:3]([H:11])([H:12])[C@@:4]2([H:13])[C:5]([H:14])([H:15])[C@@:6]12[H:16])([H:7])([H:8])[H:9]>>[C:1](=[C:2]([C:6]([C:5]([C:4](=[C:3]([H:11])[H:12])[H:13])([H:14])[H:15])([H:9])[H:16])[H:10])([H:7])[H:8]"
C       -1.29184775      -0.64680715       1.40965025
C       -0.65804573       0.38257042       0.62097038
C        1.17497725       0.95560988       0.50045761
C        1.13195984       0.64190311      -0.90405141
C        0.70680831      -0.73904211      -1.20180525
C       -0.65673432      -0.21479313      -0.78337218
H       -0.69210412      -1.46440131       1.80115615
H       -2.10092062      -0.37347751       2.08592582
H       -1.35470080      -1.28358474      -0.04946320
H       -1.16023421       1.34729054       0.66140633
H        1.37623325       1.99392559       0.75339307
H        1.78278722       0.29722921       1.12115516
H        1.18200882       1.39356874      -1.68248639
H        1.09738926      -1.50806499      -0.53569166
H        0.75312617      -1.01631901      -2.25112339
H       -1.29070257       0.23439247      -1.54612128
16
Frame=10 idx=002885 GeodesicLength=0.940751206599515 rxn_smarts="[C:1]([C@@:2]1([H:10])[C:3]([H:11])([H:12])[C@@:4]2([H:13])[C:5]([H:14])([H:15])[C@@:6]12[H:16])([H:7])([H:8])[H:9]>>[C:1](=[C:2]([C:6]([C:5]([C:4](=[C:3]([H:11])[H:12])[H:13])([H:14])[H:15])([H:9])[H:16])[H:10])([H:7])[H:8]"
C       -1.30834834      -0.65653112       1.41018471
C       -0.66630305       0.37053024       0.63053557
C        1.19874224       0.96299035       0.49297477
C        1.12494367       0.65011810      -0.90802166
C        0.70540499      -0.73553918      -1.20188825
C       -0.65430775      -0.20866950      -0.78187308
H       -0.71666083      -1.46420035       1.83276494
H       -2.13913271      -0.37991318       2.05802101
H       -1.34191707      -1.30820785      -0.04164033
H       -1.15719826       1.34073287       0.67705635
H        1.40470419       2.00093164       0.74364815
H        1.81335080       0.30318981       1.10557750
H        1.17838964       1.39880020      -1.68917455
H        1.09966217      -1.50054020      -0.53366851
H        0.75024746      -1.01195765      -2.25150111
H       -1.29157715       0.23826581      -1.54299550
16
Frame=11 idx=002885 GeodesicLength=1.0348743424431315 rxn_smarts="[C:1]([C@@:2]1([H:10])[C:3]([H:11])([H:12])[C@@:4]2([H:13])[C:5]([H:14])([H:15])[C@@:6]12[H:16])([H:7])([H:8])[H:9]>>[C:1](=[C:2]([C:6]([C:5]([C:4](=[C:3]([H:11])[H:12])[H:13])([H:14])[H:15])([H:9])[H:16])[H:10])([H:7])[H:8]"
C       -1.32547140      -0.66665792       1.41052878
C       -0.67484321       0.35805764       0.64030674
C        1.22322904       0.97068463       0.48496131
C        1.11774095       0.65858837      -0.91175521
C        0.70395148      -0.73180773      -1.20172305
C       -0.65193236      -0.20239589      -0.78003533
H       -0.74317540      -1.46363346       1.86480071
H       -2.17742505      -0.38700919       2.02870765
H       -1.32831885      -1.33333048      -0.03322821
H       -1.15372777       1.33384427       0.69355904
H        1.43401153       2.00825148       0.73315338
H        1.84458805       0.30936841       1.08921609
H        1.17466773       1.40400161      -1.69587770
H        1.10205172      -1.49272392      -0.53147570
H        0.74724280      -1.00739540      -2.25162489
H       -1.29258927       0.24215757      -1.53951361
16
Frame=12 idx=002885 GeodesicLength=1.1289978662054914 rxn_smarts="[C:1]([C@@:2]1([H:10])[C:3]([H:11])([H:12])[C@@:4]2([H:13])[C:5]([H:14])([H:15])[C@@:6]12[H:16])([H:7])([H:8])[H:9]>>[C:1](=[C:2]([C:6]([C:5]([C:4](=[C:3]([H:11])[H:12])[H:13])([H:14])[H:15])([H:9])[H:16])[H:10])([H:7])[H:8]"
C       -1.34324363      -0.67721724       1.41066165
C       -0.68367415       0.34512498       0.65030740
C        1.24847757       0.97871531       0.47636868
C        1.11034330       0.66733222      -0.91523029
C        0.70244642      -0.72783425      -1.20128111
C       -0.64960864      -0.19596191      -0.77782435
H       -0.77181766      -1.46271419       1.89718155
H       -2.21577724      -0.39477129       1.99791341
H       -1.31385299      -1.35895849      -0.02415850
H       -1.14978298       1.32657341       0.71100059
H        1.46419800       2.01590847       0.72183204
H        1.87653676       0.31579200       1.07201740
H        1.17082497       1.40916091      -1.70259780
H        1.10457266      -1.48459521      -0.52908766
H        0.74410306      -1.00262715      -2.25146397
H       -1.29374547       0.24607242      -1.53563904
16
Frame=13 idx=002885 GeodesicLength=1.2231007672881675 rxn_smarts="[C:1]([C@@:2]1([H:10])[C:3]([H:11])([H:12])[C@@:4]2([H:13])[C:5]([H:14])([H:15])[C@@:6]12[H:16])([H:7])([H:8])[H:9]>>[C:1](=[C:2]([C:6]([C:5]([C:4](=[C:3]([H:11])[H:12])[H:13])([H:14])[H:15])([H:9])[H:16])[H:10])([H:7])[H:8]"
C       -1.36170004      -0.68823927       1.41055215
C       -0.69280545       0.33170245       0.66055904
C        1.27452099       0.98710908       0.46714492
C        1.10274446       0.67636224      -0.91842074
C        0.70088634      -0.72360847      -1.20052978
C       -0.64733753      -0.18935227      -0.77520967
H       -0.80274792      -1.46146182       1.92981256
H       -2.25414690      -0.40321116       1.96559591
H       -1.29847549      -1.38508509      -0.01437002
H       -1.14532135       1.31886900       0.72946486
H        1.49529275       2.02393358       0.70960924
H        1.90923116       0.32249073       1.05392324
H        1.16685377       1.41425778      -1.70933430
H        1.10722903      -1.47613538      -0.52647243
H        0.74082057      -0.99765256      -2.25098309
H       -1.29504440       0.25002116      -1.53134188
16
Frame=14 idx=002885 GeodesicLength=1.3171835729250303 rxn_smarts="[C:1]([C@@:2]1([H:10])[C:3]([H:11])([H:12])[C@@:4]2([H:13])[C:5]([H:14])([H:15])[C@@:6]12[H:16])([H:7])([H:8])[H:9]>>[C:1](=[C:2]([C:6]([C:5]([C:4](=[C:3]([H:11])[H:12])[H:13])([H:14])[H:15])([H:9])[H:16])[H:10])([H:7])[H:8]"
C       -1.38087724      -0.69975595       1.41017063
C       -0.70224324       0.31775743       0.67109288
C        1.30140296       0.99590030       0.45722557
C        1.09493867       0.68569778      -0.92129780
C        0.69926958      -0.71911659      -1.19942763
C       -0.64511788      -0.18254971      -0.77214647
H       -0.83618127      -1.45991486       1.96257264
H       -2.29249727      -0.41233925       1.93167417
H       -1.28213232      -1.41170597      -0.00377527
H       -1.14028737       1.31066319       0.74906281
H        1.52733794       2.03236473       0.69638554
H        1.94272327       0.32950456       1.03485544
H        1.16273579       1.41927066      -1.71609046
H        1.11003345      -1.46731957      -0.52358865
H        0.73738449      -0.99247114      -2.25013715
H       -1.29648954       0.25401439      -1.52657626
16
Frame=15 idx=002885 GeodesicLength=1.4112323709430958 rxn_smarts="[C:1]([C@@:2]1([H:10])[C:3]([H:11])([H:12])[C@@:4]2([H:13])[C:5]([H:14])([H:15])[C@@:6]12[H:16])([H:7])([H:8])[H:9]>>[C:1](=[C:2]([C:6]([C:5]([C:4](=[C:3]([H:11])[H:12])[H:13])([H:14])[H:15])([H:9])[H:16])[H:10])([H:7])[H:8]"
C       -1.40080719      -0.71180134       1.40948208
C       -0.71199436       0.30325685       0.68193934
C        1.32916317       1.00512297       0.44654293
C        1.08692218       0.69535530      -0.92383006
C        0.69759230      -0.71434652      -1.19793080
C       -0.64294894      -0.17553367      -0.76859153
H       -0.87232782      -1.45810939       1.99532216
H       -2.33077674      -0.42216396       1.89608384
H       -1.26477292      -1.43880965       0.00771581
H       -1.13462503       1.30188538       0.76990284
H        1.56036753       2.04124008       0.68206263
H        1.97705621       0.33687339       1.01473681
H        1.15845601       1.42417274      -1.72286676
H        1.11299251      -1.45812423      -0.52039178
H        0.73378371      -0.98708465      -2.24887870
H       -1.29808061       0.25806668      -1.52129880
16
Frame=16 idx=002885 GeodesicLength=1.5052367628303784 rxn_smarts="[C:1]([C@@:2]1([H:10])[C:3]([H:11])([H:12])[C@@:4]2([H:13])[C:5]([H:14])([H:15])[C@@:6]12[H:16])([H:7])([H:8])[H:9]>>[C:1](=[C:2]([C:6]([C:5]([C:4](=[C:3]([H:11])[H:12])[H:13])([H:14])[H:15])([H:9])[H:16])[H:10])([H:7])[H:8]"
C       -1.42152793      -0.72440760       1.40844633
C       -0.72206012       0.28816510       0.69313571
C        1.35784538       1.01481498       0.43502068
C        1.07869194       0.70535268      -0.92598331
C        0.69585031      -0.70928420      -1.19598996
C       -0.64082927      -0.16828093      -0.76449147
H       -0.91142739      -1.45608665       2.02790565
H       -2.36893215      -0.43270130       1.85872679
H       -1.24633857      -1.46637975       0.02022029
H       -1.12826657       1.29245181       0.79211280
H        1.59442149       2.05060153       0.66652705
H        2.01228304       0.34464245       0.99347455
H        1.15399229       1.42893388      -1.72966412
H        1.11611541      -1.44852261      -0.51683167
H        0.73000196      -0.98149497      -2.24715433
H       -1.29981983       0.26219559      -1.51545500
