18
Frame=0 idx=000702 GeodesicLength=0.0 rxn_smarts="[C:1]([O:2][C:3]([C:4]([H:10])([H:11])[H:12])([C:5]([H:13])([H:14])[H:15])[C:6]([H:16])([H:17])[H:18])([H:7])([H:8])[H:9]>>[C-:1]([O+:2]=[C:3]([C:5]([H:13])([H:14])[H:15])[C:6]([H:16])([H:17])[H:18])([H:8])[H:9].[C:4]([H:7])([H:10])([H:11])[H:12]"
C        1.95592544      -0.33370108      -0.35285779
O        1.17264755      -0.04437339       0.74665228
C       -0.11327193      -0.17833359       0.63200846
C       -0.14531844       1.11851210      -1.36786625
C       -0.69632823      -1.41535729       0.02795866
C       -0.91718880       0.57513359       1.63238038
H        0.96115006       0.40995245      -1.13391501
H        1.90824586      -1.37281013      -0.67777989
H        2.96848533       0.00890454      -0.16433573
H        0.15695796       1.30140915      -2.40450860
H       -1.17754463       0.76835356      -1.40905766
H       -0.11122334       2.07249578      -0.83925975
H       -0.24036440      -1.67331210      -0.92509519
H       -0.55398719      -2.25730619       0.71707629
H       -1.76741154      -1.28486230      -0.12392139
H       -1.27491087      -0.07757348       2.43532217
H       -0.32862102       1.38230531       2.06423755
H       -1.79724179       1.00056305       1.14296144
18
Frame=1 idx=000702 GeodesicLength=0.07776494374982384 rxn_smarts="[C:1]([O:2][C:3]([C:4]([H:10])([H:11])[H:12])([C:5]([H:13])([H:14])[H:15])[C:6]([H:16])([H:17])[H:18])([H:7])([H:8])[H:9]>>[C-:1]([O+:2]=[C:3]([C:5]([H:13])([H:14])[H:15])[C:6]([H:16])([H:17])[H:18])([H:8])[H:9].[C:4]([H:7])([H:10])([H:11])[H:12]"
C        1.96294210      -0.33884948      -0.34393033
O        1.16937198      -0.04436948       0.74549518
C       -0.11947559      -0.17042590       0.61984395
C       -0.15210577       1.12208082      -1.36384131
C       -0.69479845      -1.41770532       0.02969239
C       -0.92069896       0.57808776       1.62727684
H        0.99668216       0.43195445      -1.14516584
H        1.90166835      -1.36549444      -0.70361906
H        2.98201711      -0.03565445      -0.12476676
H        0.13491601       1.29690004      -2.40620609
H       -1.18903184       0.78500981      -1.40715964
H       -0.11400109       2.07875942      -0.84048476
H       -0.24526906      -1.67500799      -0.92714264
H       -0.53503856      -2.25587732       0.71946449
H       -1.76860244      -1.30024265      -0.11350720
H       -1.25906732      -0.07430055       2.43863025
H       -0.33748155       1.39487554       2.04845715
H       -1.81202708       0.99025972       1.14696339
18
Frame=2 idx=000702 GeodesicLength=0.15549128743167323 rxn_smarts="[C:1]([O:2][C:3]([C:4]([H:10])([H:11])[H:12])([C:5]([H:13])([H:14])[H:15])[C:6]([H:16])([H:17])[H:18])([H:7])([H:8])[H:9]>>[C-:1]([O+:2]=[C:3]([C:5]([H:13])([H:14])[H:15])[C:6]([H:16])([H:17])[H:18])([H:8])[H:9].[C:4]([H:7])([H:10])([H:11])[H:12]"
C        1.96943682      -0.34361971      -0.33544034
O        1.16606741      -0.04427078       0.74421510
C       -0.12562521      -0.16279241       0.60783953
C       -0.15889778       1.12537336      -1.35989251
C       -0.69308028      -1.42018851       0.03166713
C       -0.92416061       0.58101995       1.62210051
H        1.03297819       0.45606443      -1.15496748
H        1.89511181      -1.35612295      -0.73059920
H        2.99326110      -0.08267099      -0.08534625
H        0.11403289       1.29130937      -2.40749509
H       -1.20041012       0.80158569      -1.40539468
H       -0.11724764       2.08490355      -0.84211554
H       -0.25018102      -1.67690284      -0.92897030
H       -0.51575065      -2.25438772       0.72183991
H       -1.76940819      -1.31583955      -0.10259830
H       -1.24321190      -0.07059028       2.44167340
H       -0.34650347       1.40731582       2.03255271
H       -1.82641133       0.97981356       1.15093141
18
Frame=3 idx=000702 GeodesicLength=0.23314797883799046 rxn_smarts="[C:1]([O:2][C:3]([C:4]([H:10])([H:11])[H:12])([C:5]([H:13])([H:14])[H:15])[C:6]([H:16])([H:17])[H:18])([H:7])([H:8])[H:9]>>[C-:1]([O+:2]=[C:3]([C:5]([H:13])([H:14])[H:15])[C:6]([H:16])([H:17])[H:18])([H:8])[H:9].[C:4]([H:7])([H:10])([H:11])[H:12]"
C        1.97541154      -0.34797715      -0.32743278
O        1.16274153      -0.04404092       0.74280384
C       -0.13172889      -0.15543627       0.59601041
C       -0.16566364       1.12842778      -1.35599251
C       -0.69115164      -1.42281604       0.03390242
C       -0.92759523       0.58392709       1.61685645
H        1.06995608       0.48215742      -1.16326789
H        1.88862338      -1.34458378      -0.75853448
H        3.00193358      -0.13219797      -0.04644301
H        0.09443179       1.28466561      -2.40835203
H       -1.21161328       0.81805860      -1.40380100
H       -0.12089302       2.09094291      -0.84409183
H       -0.25504942      -1.67904129      -0.93053099
H       -0.49610482      -2.25282021       0.72422745
H       -1.76979369      -1.33166140      -0.09119719
H       -1.22738599      -0.06644570       2.44445522
H       -0.35571157       1.41961304       2.01653594
H       -1.84040670       0.96922831       1.15485196
18
Frame=4 idx=000702 GeodesicLength=0.31072111288995863 rxn_smarts="[C:1]([O:2][C:3]([C:4]([H:10])([H:11])[H:12])([C:5]([H:13])([H:14])[H:15])[C:6]([H:16])([H:17])[H:18])([H:7])([H:8])[H:9]>>[C-:1]([O+:2]=[C:3]([C:5]([H:13])([H:14])[H:15])[C:6]([H:16])([H:17])[H:18])([H:8])[H:9].[C:4]([H:7])([H:10])([H:11])[H:12]"
C        1.98089460      -0.35188370      -0.31993102
O        1.15940014      -0.04363442       0.74126191
C       -0.13779804      -0.14835452       0.58436980
C       -0.17238113       1.13128904      -1.35211667
C       -0.68898602      -1.42558935       0.03641605
C       -0.93103556       0.58680387       1.61154938
H        1.10752448       0.51005545      -1.17003177
H        1.88227942      -1.33079877      -0.78717253
H        3.00775890      -0.18428308      -0.00850711
H        0.07621320       1.27701843      -2.40874912
H       -1.22258486       0.83442022      -1.40241305
H       -0.12484592       2.09689988      -0.84634824
H       -0.25980763      -1.68145401      -0.93178396
H       -0.47608761      -2.25114944       0.72666079
H       -1.76972197      -1.34771591      -0.07931478
H       -1.21163394      -0.06187640       2.44698184
H       -0.36514918       1.43175626       2.00041846
H       -1.85403887       0.95849646       1.15871001
18
Frame=5 idx=000702 GeodesicLength=0.3882402348282084 rxn_smarts="[C:1]([O:2][C:3]([C:4]([H:10])([H:11])[H:12])([C:5]([H:13])([H:14])[H:15])[C:6]([H:16])([H:17])[H:18])([H:7])([H:8])[H:9]>>[C-:1]([O+:2]=[C:3]([C:5]([H:13])([H:14])[H:15])[C:6]([H:16])([H:17])[H:18])([H:8])[H:9].[C:4]([H:7])([H:10])([H:11])[H:12]"
C        1.98591604      -0.35532635      -0.31290869
O        1.15605607      -0.04308925       0.73959051
C       -0.14382190      -0.14156446       0.57291243
C       -0.17901152       1.13400507      -1.34822659
C       -0.68659436      -1.42853878       0.03919165
C       -0.93446370       0.58965062       1.60617502
H        1.14562077       0.53944447      -1.17531930
H        1.87600153      -1.31496528      -0.81622776
H        3.01065849      -0.23841352       0.02817496
H        0.05936947       1.26844859      -2.40865289
H       -1.23330107       0.85068290      -1.40125155
H       -0.12896944       2.10277392      -0.84881502
H       -0.26444566      -1.68418855      -0.93270629
H       -0.45577733      -2.24943359       0.72911182
H       -1.76919656      -1.36399282      -0.06699741
H       -1.19598264      -0.05688985       2.44923393
H       -0.37476324       1.44373524       1.98422414
H       -1.86729497       0.94766164       1.16249103
18
Frame=6 idx=000702 GeodesicLength=0.46572006599985694 rxn_smarts="[C:1]([O:2][C:3]([C:4]([H:10])([H:11])[H:12])([C:5]([H:13])([H:14])[H:15])[C:6]([H:16])([H:17])[H:18])([H:7])([H:8])[H:9]>>[C-:1]([O+:2]=[C:3]([C:5]([H:13])([H:14])[H:15])[C:6]([H:16])([H:17])[H:18])([H:8])[H:9].[C:4]([H:7])([H:10])([H:11])[H:12]"
C        1.99052206      -0.35828400      -0.30638278
O        1.15271251      -0.04231826       0.73779118
C       -0.14982460      -0.13504602       0.56164458
C       -0.18557255       1.13662081      -1.34430912
C       -0.68393871      -1.43164089       0.04224158
C       -0.93792612       0.59245837       1.60074593
H        1.18417349       0.57010232      -1.17912607
H        1.86998475      -1.29698370      -0.84541792
H        3.01030081      -0.29476438       0.06317224
H        0.04393734       1.25900044      -2.40806892
H       -1.24373823       0.86686873      -1.40032817
H       -0.13315660       2.10859457      -0.85144002
H       -0.26887485      -1.68724050      -0.93327858
H       -0.43511780      -2.24760186       0.73162343
H       -1.76817012      -1.38049477      -0.05425445
H       -1.18046356      -0.05150701       2.45123301
H       -0.38463220       1.45554065       1.96796020
H       -1.88021562       0.93669548       1.16619387
18
Frame=7 idx=000702 GeodesicLength=0.5432067878144504 rxn_smarts="[C:1]([O:2][C:3]([C:4]([H:10])([H:11])[H:12])([C:5]([H:13])([H:14])[H:15])[C:6]([H:16])([H:17])[H:18])([H:7])([H:8])[H:9]>>[C-:1]([O+:2]=[C:3]([C:5]([H:13])([H:14])[H:15])[C:6]([H:16])([H:17])[H:18])([H:8])[H:9].[C:4]([H:7])([H:10])([H:11])[H:12]"
C        1.99475691      -0.36080269      -0.30030738
O        1.14937184      -0.04131094       0.73586623
C       -0.15580904      -0.12879379       0.55056093
C       -0.19208232       1.13916918      -1.34034092
C       -0.68101244      -1.43488121       0.04555354
C       -0.94142907       0.59521531       1.59526624
H        1.22314199       0.60172284      -1.18154974
H        1.86429569      -1.27704836      -0.87446571
H        3.00657123      -0.35296640       0.09619923
H        0.02986040       1.24873995      -2.40698894
H       -1.25390533       0.88301322      -1.39962998
H       -0.13727427       2.11436359      -0.85416914
H       -0.27305117      -1.69060882      -0.93349218
H       -0.41414696      -2.24563141       0.73418951
H       -1.76662467      -1.39718377      -0.04113238
H       -1.16511483      -0.04575797       2.45296734
H       -0.39475154       1.46713996       1.95166086
H       -1.89279643       0.92562131       1.16981248
18
Frame=8 idx=000702 GeodesicLength=0.620719962415037 rxn_smarts="[C:1]([O:2][C:3]([C:4]([H:10])([H:11])[H:12])([C:5]([H:13])([H:14])[H:15])[C:6]([H:16])([H:17])[H:18])([H:7])([H:8])[H:9]>>[C-:1]([O+:2]=[C:3]([C:5]([H:13])([H:14])[H:15])[C:6]([H:16])([H:17])[H:18])([H:8])[H:9].[C:4]([H:7])([H:10])([H:11])[H:12]"
C        1.99868811      -0.36289030      -0.29463871
O        1.14603816      -0.04003755       0.73382565
C       -0.16178485      -0.12279551       0.53965536
C       -0.19855792       1.14168608      -1.33630945
C       -0.67779970      -1.43824635       0.04912287
C       -0.94499418       0.59791402       1.58973759
H        1.26252132       0.63404199      -1.18263765
H        1.85901694      -1.25528496      -0.90307888
H        2.99931706      -0.41283512       0.12690272
H        0.01708278       1.23774271      -2.40539914
H       -1.26380793       0.89914958      -1.39915814
H       -0.14121025       2.12009522      -0.85695367
H       -0.27692046      -1.69428450      -0.93334051
H       -0.39287279      -2.24349979       0.73682369
H       -1.76453984      -1.41404896      -0.02766058
H       -1.14995533      -0.03966476       2.45443816
H       -0.40515507       1.47853081       1.93532717
H       -1.90506605       0.91442738       1.17334351
18
Frame=9 idx=000702 GeodesicLength=0.6983076042579726 rxn_smarts="[C:1]([O:2][C:3]([C:4]([H:10])([H:11])[H:12])([C:5]([H:13])([H:14])[H:15])[C:6]([H:16])([H:17])[H:18])([H:7])([H:8])[H:9]>>[C-:1]([O+:2]=[C:3]([C:5]([H:13])([H:14])[H:15])[C:6]([H:16])([H:17])[H:18])([H:8])[H:9].[C:4]([H:7])([H:10])([H:11])[H:12]"
C        2.00235072      -0.36460870      -0.28927242
O        1.14271731      -0.03856383       0.73168404
C       -0.16773658      -0.11706694       0.52890395
C       -0.20500564       1.14419904      -1.33217301
C       -0.67433611      -1.44175419       0.05288951
C       -0.94858717       0.60055088       1.58416498
H        1.30236477       0.66671357      -1.18254319
H        1.85404156      -1.23204328      -0.93103101
H        2.98869501      -0.47358899       0.15521732
H        0.00544455       1.22605486      -2.40329847
H       -1.27349836       0.91533970      -1.39888131
H       -0.14481168       2.12575752      -0.85976949
H       -0.28051504      -1.69828459      -0.93285857
H       -0.37141192      -2.24127088       0.73944173
H       -1.76195321      -1.43105446      -0.01391710
H       -1.13498966      -0.03324164       2.45564326
H       -0.41576210       1.48969688       1.91900189
H       -1.91700644       0.90316508       1.17679790
18
Frame=10 idx=000702 GeodesicLength=0.7759724270353417 rxn_smarts="[C:1]([O:2][C:3]([C:4]([H:10])([H:11])[H:12])([C:5]([H:13])([H:14])[H:15])[C:6]([H:16])([H:17])[H:18])([H:7])([H:8])[H:9]>>[C-:1]([O+:2]=[C:3]([C:5]([H:13])([H:14])[H:15])[C:6]([H:16])([H:17])[H:18])([H:8])[H:9].[C:4]([H:7])([H:10])([H:11])[H:12]"
C        2.00582067      -0.36597548      -0.28418125
O        1.13940586      -0.03680235       0.72945322
C       -0.17369122      -0.11157327       0.51830885
C       -0.21147849       1.14672003      -1.32794963
C       -0.67057645      -1.44535688       0.05688336
C       -0.95226150       0.60311351       1.57854936
H        1.34271637       0.69957850      -1.18125752
H        1.84959366      -1.20731348      -0.95809949
H        2.97439662      -0.53540529       0.18073670
H       -0.00510524       1.21372438      -2.40068193
H       -1.28298072       0.93160971      -1.39879419
H       -0.14801748       2.13137544      -0.86258157
H       -0.28373854      -1.70256182      -0.93202610
H       -0.34969344      -2.23884525       0.74211889
H       -1.75880936      -1.44818894       0.00010442
H       -1.12023751      -0.02651806       2.45658739
H       -0.42667770       1.50063732       1.90266063
H       -1.92866553       0.89178191       1.18016887
18
Frame=11 idx=000702 GeodesicLength=0.8537634839228935 rxn_smarts="[C:1]([O:2][C:3]([C:4]([H:10])([H:11])[H:12])([C:5]([H:13])([H:14])[H:15])[C:6]([H:16])([H:17])[H:18])([H:7])([H:8])[H:9]>>[C-:1]([O+:2]=[C:3]([C:5]([H:13])([H:14])[H:15])[C:6]([H:16])([H:17])[H:18])([H:8])[H:9].[C:4]([H:7])([H:10])([H:11])[H:12]"
C        2.00913390      -0.36705335      -0.27928297
O        1.13610951      -0.03477634       0.72714500
C       -0.17964549      -0.10631492       0.50785360
C       -0.21800509       1.14925513      -1.32362238
C       -0.66653501      -1.44905030       0.06106996
C       -0.95600355       0.60559614       1.57289707
H        1.38369389       0.73241737      -1.17886291
H        1.84566565      -1.18133776      -0.98414116
H        2.95642764      -0.59779813       0.20337783
H       -0.01471482       1.20077552      -2.39755779
H       -1.29230021       0.94800223      -1.39886837
H       -0.15073209       2.13692376      -0.86538224
H       -0.28659684      -1.70711068      -0.93086662
H       -0.32776576      -2.23623500       0.74481285
H       -1.75512256      -1.46542071       0.01436008
H       -1.10569831      -0.01951073       2.45727530
H       -0.43786963       1.51134058       1.88632487
H       -1.94004124       0.88029718       1.18346787
18
Frame=12 idx=000702 GeodesicLength=0.9317048725333879 rxn_smarts="[C:1]([O:2][C:3]([C:4]([H:10])([H:11])[H:12])([C:5]([H:13])([H:14])[H:15])[C:6]([H:16])([H:17])[H:18])([H:7])([H:8])[H:9]>>[C-:1]([O+:2]=[C:3]([C:5]([H:13])([H:14])[H:15])[C:6]([H:16])([H:17])[H:18])([H:8])[H:9].[C:4]([H:7])([H:10])([H:11])[H:12]"
C        2.01234480      -0.36791862      -0.27451366
O        1.13281764      -0.03248533       0.72477097
C       -0.18561491      -0.10128177       0.49752959
C       -0.22462568       1.15179743      -1.31920534
C       -0.66221470      -1.45281278       0.06545660
C       -0.95983568       0.60798994       1.56720149
H        1.42542326       0.76509202      -1.17533742
H        1.84232098      -1.15425267      -1.00902843
H        2.93477924      -0.66051774       0.22289549
H       -0.02349423       1.18723436      -2.39390971
H       -1.30148249       0.96454943      -1.39909127
H       -0.15288614       2.14239092      -0.86815401
H       -0.28907350      -1.71190486      -0.92938043
H       -0.30565138      -2.23341159       0.74755311
H       -1.75089025      -1.48272877       0.02884508
H       -1.09138400      -0.01223532       2.45770287
H       -0.44937506       1.52180211       1.86997368
H       -1.95115791       0.86869323       1.18669140
18
Frame=13 idx=000702 GeodesicLength=1.00983580644465 rxn_smarts="[C:1]([O:2][C:3]([C:4]([H:10])([H:11])[H:12])([C:5]([H:13])([H:14])[H:15])[C:6]([H:16])([H:17])[H:18])([H:7])([H:8])[H:9]>>[C-:1]([O+:2]=[C:3]([C:5]([H:13])([H:14])[H:15])[C:6]([H:16])([H:17])[H:18])([H:8])[H:9].[C:4]([H:7])([H:10])([H:11])[H:12]"
C        2.01542237      -0.36867887      -0.26978674
O        1.12953407      -0.03001834       0.72235918
C       -0.19157872      -0.09649972       0.48731984
C       -0.23136442       1.15433023      -1.31465740
C       -0.65767084      -1.45666621       0.06997814
C       -0.96371362       0.61029298       1.56147695
H        1.46809049       0.79741231      -1.17080325
H        1.83937859      -1.12633171      -1.03274604
H        2.90983399      -0.72279007       0.23946304
H       -0.03165351       1.17309560      -2.38976609
H       -1.31059331       0.98129657      -1.39940956
H       -0.15439355       2.14770947      -0.87093072
H       -0.29124031      -1.71696940      -0.92761305
H       -0.28348065      -2.23044726       0.75024497
H       -1.74618037      -1.50006885       0.04347952
H       -1.07731858      -0.00470775       2.45787786
H       -0.46108897       1.53199767       1.85366632
H       -1.96198265       0.85704333       1.18984704
18
Frame=14 idx=000702 GeodesicLength=1.0881877995146076 rxn_smarts="[C:1]([O:2][C:3]([C:4]([H:10])([H:11])[H:12])([C:5]([H:13])([H:14])[H:15])[C:6]([H:16])([H:17])[H:18])([H:7])([H:8])[H:9]>>[C-:1]([O+:2]=[C:3]([C:5]([H:13])([H:14])[H:15])[C:6]([H:16])([H:17])[H:18])([H:8])[H:9].[C:4]([H:7])([H:10])([H:11])[H:12]"
C        2.01844330      -0.36936171      -0.26507400
O        1.12625114      -0.02732220       0.71990447
C       -0.19756959      -0.09194203       0.47722029
C       -0.23826738       1.15683883      -1.31002612
C       -0.65287955      -1.46057699       0.07467750
C       -0.96768337       0.61250181       1.55571295
H        1.51186052       0.82934273      -1.16510564
H        1.83702086      -1.09756637      -1.05521356
H        2.88133034      -0.78473345       0.25273912
H       -0.03927019       1.15836564      -2.38511820
H       -1.31963839       0.99825062      -1.39983462
H       -0.15523771       2.15288248      -0.87370092
H       -0.29305201      -1.72226446      -0.92554362
H       -0.26118817      -2.22727398       0.75296809
H       -1.74095946      -1.51744549       0.05831381
H       -1.06348440       0.00307196       2.45780425
H       -0.47310742       1.54194836       1.83733790
H       -1.97256852       0.84528425       1.19293831
18
Frame=15 idx=000702 GeodesicLength=1.1667899491547358 rxn_smarts="[C:1]([O:2][C:3]([C:4]([H:10])([H:11])[H:12])([C:5]([H:13])([H:14])[H:15])[C:6]([H:16])([H:17])[H:18])([H:7])([H:8])[H:9]>>[C-:1]([O+:2]=[C:3]([C:5]([H:13])([H:14])[H:15])[C:6]([H:16])([H:17])[H:18])([H:8])[H:9].[C:4]([H:7])([H:10])([H:11])[H:12]"
C        2.02139458      -0.37004990      -0.26033725
O        1.12296118      -0.02443543       0.71740654
C       -0.20359065      -0.08761849       0.46721650
C       -0.24536733       1.15929944      -1.30531120
C       -0.64787183      -1.46454681       0.07953352
C       -0.97172940       0.61461139       1.54991129
H        1.55693279       0.86077996      -1.15822674
H        1.83519902      -1.06809009      -1.07644201
H        2.84942650      -0.84591854       0.26277802
H       -0.04650999       1.14303402      -2.37998438
H       -1.32865582       1.01544031      -1.40033374
H       -0.15536960       2.15786224      -0.87649215
H       -0.29455266      -1.72779169      -0.92319183
H       -0.23882615      -2.22390923       0.75569050
H       -1.73526054      -1.53483615       0.07333222
H       -1.04987718       0.01109288       2.45748545
H       -0.48539464       1.55164292       1.82099073
H       -1.98290827       0.83343318       1.19597454
18
Frame=16 idx=000702 GeodesicLength=1.2456672067549925 rxn_smarts="[C:1]([O:2][C:3]([C:4]([H:10])([H:11])[H:12])([C:5]([H:13])([H:14])[H:15])[C:6]([H:16])([H:17])[H:18])([H:7])([H:8])[H:9]>>[C-:1]([O+:2]=[C:3]([C:5]([H:13])([H:14])[H:15])[C:6]([H:16])([H:17])[H:18])([H:8])[H:9].[C:4]([H:7])([H:10])([H:11])[H:12]"
C        2.02426638      -0.37082856      -0.25554641
O        1.11965150      -0.02139946       0.71486637
C       -0.20965395      -0.08353876       0.45729642
C       -0.25270222       1.16168171      -1.30052407
C       -0.64268556      -1.46857523       0.08453455
C       -0.97584990       0.61661894       1.54407090
H        1.60351605       0.89165424      -1.15009353
H        1.83387226      -1.03799614      -1.09645371
H        2.81435286      -0.90598079       0.26958588
H       -0.05353115       1.12708255      -2.37437904
H       -1.33768155       1.03288979      -1.40088175
H       -0.15474928       2.16259958      -0.87933534
H       -0.29579074      -1.73355199      -0.92057343
H       -0.21644840      -2.22036444       0.75839792
H       -1.72912481      -1.55221897       0.08853042
H       -1.03649847       0.01935146       2.45692600
H       -0.49793424       1.56107428       1.80461563
H       -1.99300878       0.82150181       1.19896319
