17
Frame=0 idx=007585 GeodesicLength=0.0 rxn_smarts="[C:1]([C@@:2]1([C:3]([C:4]([O:5][H:15])([H:13])[H:14])([H:11])[H:12])[C:6]([H:16])([H:17])[O:7]1)([H:8])([H:9])[H:10]>>[C:1]([C@@:2]1([C:3]([O:5][H:15])([H:11])[H:12])[C:6]([H:16])([H:17])[O:7]1)([H:8])([H:9])[H:10].[C:4]([H:13])[H:14]"
C       -1.13148021      -1.29703741       0.37870057
C       -0.63076242      -0.01432636      -0.21897901
C        0.74848307       0.01059009      -0.80516191
C        1.80209721      -0.25501601       0.93937502
O        1.84690227       1.04935788       0.07416757
C       -1.59287444       0.97417680      -0.72712445
O       -0.91782621       1.18913473       0.50368576
H       -1.38255314      -2.00765090      -0.41188884
H       -0.36029877      -1.72270653       1.01869146
H       -2.02763803      -1.10871551       0.96980758
H        0.79565967       0.70681122      -1.65599171
H        1.12087930      -0.95752300      -1.11155963
H        2.79477459      -0.68025380       0.77483098
H        1.73637400       0.06903792       1.98370244
H        1.16981756       1.62789042       0.45496166
H       -2.65546769       0.76924826      -0.63364335
H       -1.31608669       1.64698213      -1.53357410
17
Frame=1 idx=007585 GeodesicLength=0.032364854915986625 rxn_smarts="[C:1]([C@@:2]1([C:3]([C:4]([O:5][H:15])([H:13])[H:14])([H:11])[H:12])[C:6]([H:16])([H:17])[O:7]1)([H:8])([H:9])[H:10]>>[C:1]([C@@:2]1([C:3]([O:5][H:15])([H:11])[H:12])[C:6]([H:16])([H:17])[O:7]1)([H:8])([H:9])[H:10].[C:4]([H:13])[H:14]"
C       -1.13273589      -1.29264907       0.38402191
C       -0.63175514      -0.01207564      -0.21827654
C        0.75047944       0.01021074      -0.80013303
C        1.81567739      -0.25994791       0.92505556
O        1.84444827       1.05602842       0.08434075
C       -1.59351487       0.97362727      -0.73135545
O       -0.92135090       1.19323342       0.50032357
H       -1.37281211      -2.01026972      -0.40363175
H       -0.36655560      -1.71220965       1.03413723
H       -2.03507004      -1.10465365       0.96575586
H        0.79900822       0.70197176      -1.65403195
H        1.11245870      -0.95962160      -1.11563057
H        2.81685813      -0.66506970       0.76223083
H        1.72102694       0.04170411       1.97381716
H        1.16536088       1.62692846       0.47229482
H       -2.65627917       0.76889069      -0.63950103
H       -1.31524424       1.64390208      -1.53941737
17
Frame=2 idx=007585 GeodesicLength=0.06458284371037523 rxn_smarts="[C:1]([C@@:2]1([C:3]([C:4]([O:5][H:15])([H:13])[H:14])([H:11])[H:12])[C:6]([H:16])([H:17])[O:7]1)([H:8])([H:9])[H:10]>>[C:1]([C@@:2]1([C:3]([O:5][H:15])([H:11])[H:12])[C:6]([H:16])([H:17])[O:7]1)([H:8])([H:9])[H:10].[C:4]([H:13])[H:14]"
C       -1.13394014      -1.28819974       0.38937927
C       -0.63275620      -0.00981543      -0.21766377
C        0.75248394       0.00983336      -0.79512912
C        1.82901626      -0.26448256       0.91083592
O        1.84186260       1.06255144       0.09484037
C       -1.59416682       0.97302984      -0.73569939
O       -0.92488722       1.19736429       0.49680741
H       -1.36304807      -2.01282566      -0.39510421
H       -0.37275973      -1.70148933       1.04947241
H       -2.04232377      -1.10059913       0.96174173
H        0.80245894       0.69725533      -1.65195873
H        1.10408075      -0.96158564      -1.11952433
H        2.83811634      -0.64982981       0.74981658
H        1.70655359       0.01392699       1.96310973
H        1.16081418       1.62569450       0.48992509
H       -2.65708957       0.76844972      -0.64544608
H       -1.31441509       1.64072183      -1.54540286
17
Frame=3 idx=007585 GeodesicLength=0.09670860924969893 rxn_smarts="[C:1]([C@@:2]1([C:3]([C:4]([O:5][H:15])([H:13])[H:14])([H:11])[H:12])[C:6]([H:16])([H:17])[O:7]1)([H:8])([H:9])[H:10]>>[C:1]([C@@:2]1([C:3]([O:5][H:15])([H:11])[H:12])[C:6]([H:16])([H:17])[O:7]1)([H:8])([H:9])[H:10].[C:4]([H:13])[H:14]"
C       -1.13510899      -1.28366717       0.39479077
C       -0.63377560      -0.00753578      -0.21713713
C        0.75448960       0.00946997      -0.79014192
C        1.84215786      -0.26866875       0.89668759
O        1.83913247       1.06892036       0.10570679
C       -1.59484274       0.97237491      -0.74018544
O       -0.92846021       1.20154778       0.49311100
H       -1.35324313      -2.01531696      -0.38627721
H       -0.37894282      -1.69049800       1.06475162
H       -2.04943817      -1.09653057       0.95775172
H        0.80601752       0.69268567      -1.64975614
H        1.09573058      -0.96340120      -1.12326030
H        2.85864638      -0.63451645       0.73752534
H        1.69300406      -0.01432233       1.95158834
H        1.15615663       1.62413466       0.50793845
H       -2.65791368       0.76790973      -0.65152042
H       -1.31360976       1.63741413      -1.55157306
17
Frame=4 idx=007585 GeodesicLength=0.1287953977949554 rxn_smarts="[C:1]([C@@:2]1([C:3]([C:4]([O:5][H:15])([H:13])[H:14])([H:11])[H:12])[C:6]([H:16])([H:17])[O:7]1)([H:8])([H:9])[H:10]>>[C:1]([C@@:2]1([C:3]([O:5][H:15])([H:11])[H:12])[C:6]([H:16])([H:17])[O:7]1)([H:8])([H:9])[H:10].[C:4]([H:13])[H:14]"
C       -1.13625103      -1.27902351       0.40028477
C       -0.63482252      -0.00522238      -0.21669362
C        0.75648817       0.00913462      -0.78515992
C        1.85514617      -0.27256134       0.88257302
O        1.83622570       1.07513045       0.11699462
C       -1.59555305       0.97165332      -0.74485518
O       -0.93210421       1.20581662       0.48919482
H       -1.34336767      -2.01774207      -0.37710250
H       -0.38512923      -1.67917503       1.08003878
H       -2.05644249      -1.09241905       0.95378089
H        0.80969275       0.68829353      -1.64740279
H        1.08739034      -0.96505411      -1.12685792
H        2.87853814      -0.61910628       0.72526890
H        1.68043542      -0.04311317       1.93925553
H        1.15134832       1.62218579       0.52644570
H       -2.65876008       0.76725391      -0.65777985
H       -1.31283474       1.63394871      -1.55798525
17
Frame=5 idx=007585 GeodesicLength=0.16079020533742672 rxn_smarts="[C:1]([C@@:2]1([C:3]([C:4]([O:5][H:15])([H:13])[H:14])([H:11])[H:12])[C:6]([H:16])([H:17])[O:7]1)([H:8])([H:9])[H:10]>>[C:1]([C@@:2]1([C:3]([O:5][H:15])([H:11])[H:12])[C:6]([H:16])([H:17])[O:7]1)([H:8])([H:9])[H:10].[C:4]([H:13])[H:14]"
C       -1.13737786      -1.27430750       0.40581380
C       -0.63589329      -0.00290213      -0.21634013
C        0.75848052       0.00879237      -0.78019737
C        1.86793230      -0.27611392       0.86853176
O        1.83316276       1.08116135       0.12864240
C       -1.59627688       0.97088695      -0.74964794
O       -0.93576564       1.21011858       0.48511496
H       -1.33347542      -2.02009346      -0.36765520
H       -0.39131951      -1.66760307       1.09524566
H       -2.06332858      -1.08830744       0.94981714
H        0.81346504       0.68401762      -1.64493670
H        1.07909148      -0.96658788      -1.13029144
H        2.89775168      -0.60361582       0.71313019
H        1.66881655      -0.07222722       1.92614996
H        1.14641161       1.61987254       0.54531684
H       -2.65961214       0.76652994      -0.66414476
H       -1.31206262       1.63037910      -1.56454916
17
Frame=6 idx=007585 GeodesicLength=0.1926394142438977 rxn_smarts="[C:1]([C@@:2]1([C:3]([C:4]([O:5][H:15])([H:13])[H:14])([H:11])[H:12])[C:6]([H:16])([H:17])[O:7]1)([H:8])([H:9])[H:10]>>[C:1]([C@@:2]1([C:3]([O:5][H:15])([H:11])[H:12])[C:6]([H:16])([H:17])[O:7]1)([H:8])([H:9])[H:10].[C:4]([H:13])[H:14]"
C       -1.13849554      -1.26957036       0.41131855
C       -0.63697706      -0.00061058      -0.21608124
C        0.76046807       0.00839779      -0.77527518
C        1.88046094      -0.27926734       0.85461169
O        1.82997838       1.08698709       0.14055383
C       -1.59698388       0.97010342      -0.75448029
O       -0.93936968       1.21438262       0.48095050
H       -1.32364554      -2.02235970      -0.35803391
H       -0.39749837      -1.65590514       1.11025035
H       -2.07006482      -1.08424367       0.94586201
H        0.81730104       0.67977666      -1.64240788
H        1.07087164      -0.96805780      -1.13352871
H        2.91624201      -0.58804816       0.70124567
H        1.65802409      -0.10140193       1.91230050
H        1.14139082       1.61723793       0.56436407
H       -2.66044310       0.76579747      -0.67051167
H       -1.31125899       1.62678170      -1.57113830
17
Frame=7 idx=007585 GeodesicLength=0.22439831955003092 rxn_smarts="[C:1]([C@@:2]1([C:3]([C:4]([O:5][H:15])([H:13])[H:14])([H:11])[H:12])[C:6]([H:16])([H:17])[O:7]1)([H:8])([H:9])[H:10]>>[C:1]([C@@:2]1([C:3]([O:5][H:15])([H:11])[H:12])[C:6]([H:16])([H:17])[O:7]1)([H:8])([H:9])[H:10].[C:4]([H:13])[H:14]"
C       -1.13961453      -1.26477784       0.41683898
C       -0.63808554       0.00167402      -0.21591456
C        0.76244511       0.00797683      -0.77038169
C        1.89278825      -0.28208904       0.84076851
O        1.82664112       1.09261159       0.15280171
C       -1.59769397       0.96928983      -0.75940945
O       -0.94296388       1.21866046       0.47664881
H       -1.31382822      -2.02455157      -0.34817382
H       -0.40369966      -1.64399310       1.12515151
H       -2.07669701      -1.08019426       0.94190636
H        0.82121931       0.67562130      -1.63979087
H        1.06270762      -0.96944034      -1.13660355
H        2.93410758      -0.57239209       0.68949652
H        1.64814789      -0.13075131       1.89771839
H        1.13624226       1.61421553       0.58373532
H       -2.66127283       0.76502810      -0.67695239
H       -1.31044350       1.62311189      -1.57783979
17
Frame=8 idx=007585 GeodesicLength=0.25612390695768444 rxn_smarts="[C:1]([C@@:2]1([C:3]([C:4]([O:5][H:15])([H:13])[H:14])([H:11])[H:12])[C:6]([H:16])([H:17])[O:7]1)([H:8])([H:9])[H:10]>>[C:1]([C@@:2]1([C:3]([O:5][H:15])([H:11])[H:12])[C:6]([H:16])([H:17])[O:7]1)([H:8])([H:9])[H:10].[C:4]([H:13])[H:14]"
C       -1.14073757      -1.25988191       0.42241085
C       -0.63922915       0.00397307      -0.21584118
C        0.76440553       0.00755589      -0.76550398
C        1.90496300      -0.28463570       0.82695320
O        1.82311812       1.09802094       0.16546297
C       -1.59842601       0.96842546      -0.76448704
O       -0.94658897       1.22299076       0.47215154
H       -1.30397099      -2.02665860      -0.33800358
H       -0.40994776      -1.63176252       1.14003068
H       -2.08325639      -1.07611505       0.93793640
H        0.82523557       0.67160036      -1.63705051
H        1.05457652      -0.97070155      -1.13954599
H        2.95142632      -0.55662735       0.67777612
H        1.63926227      -0.16039742       1.88239902
H        1.13092505       1.61071715       0.60357108
H       -2.66211845       0.76418776      -0.68352839
H       -1.30963708       1.61930871      -1.58473121
17
Frame=9 idx=007585 GeodesicLength=0.287865950003459 rxn_smarts="[C:1]([C@@:2]1([C:3]([C:4]([O:5][H:15])([H:13])[H:14])([H:11])[H:12])[C:6]([H:16])([H:17])[O:7]1)([H:8])([H:9])[H:10]>>[C:1]([C@@:2]1([C:3]([O:5][H:15])([H:11])[H:12])[C:6]([H:16])([H:17])[O:7]1)([H:8])([H:9])[H:10].[C:4]([H:13])[H:14]"
C       -1.14186423      -1.25486465       0.42806296
C       -0.64041017       0.00629622      -0.21586359
C        0.76634306       0.00714770      -0.76064214
C        1.91701971      -0.28694666       0.81312654
O        1.81938828       1.10320379       0.17858467
C       -1.59918195       0.96750722      -0.76974265
O       -0.95025240       1.22740131       0.46742812
H       -1.29404915      -2.02868876      -0.32746981
H       -0.41625451      -1.61916199       1.15494477
H       -2.08975124      -1.07198835       0.93395816
H        0.82935844       0.66774626      -1.63417798
H        1.04645705      -0.97183014      -1.14238044
H        2.96826652      -0.54071457       0.66603708
H        1.63133800      -0.19040394       1.86630669
H        1.12541627       1.60667210       0.62395650
H       -2.66297896       0.76326621      -0.69027214
H       -1.30884472       1.61535825      -1.59185674
17
Frame=10 idx=007585 GeodesicLength=0.31957274751854814 rxn_smarts="[C:1]([C@@:2]1([C:3]([C:4]([O:5][H:15])([H:13])[H:14])([H:11])[H:12])[C:6]([H:16])([H:17])[O:7]1)([H:8])([H:9])[H:10]>>[C:1]([C@@:2]1([C:3]([O:5][H:15])([H:11])[H:12])[C:6]([H:16])([H:17])[O:7]1)([H:8])([H:9])[H:10].[C:4]([H:13])[H:14]"
C       -1.14299322      -1.24974090       0.43376268
C       -0.64162631       0.00862698      -0.21599037
C        0.76825949       0.00673075      -0.75580674
C        1.92892027      -0.28898948       0.79931812
O        1.81545934       1.10813063       0.19212917
C       -1.59995531       0.96654696      -0.77513770
O       -0.95392158       1.23185693       0.46250809
H       -1.28408780      -2.03062555      -0.31661796
H       -0.42260920      -1.60622838       1.16983297
H       -2.09616915      -1.06783139       0.92995896
H        0.83356957       0.66401935      -1.63119234
H        1.03838073      -0.97284903      -1.14509381
H        2.98458597      -0.52468093       0.65434143
H        1.62437720      -0.22063050       1.84947661
H        1.11971979       1.60208177       0.64479589
H       -2.66385047       0.76229479      -0.69712843
H       -1.30805933       1.61128800      -1.59915658
17
Frame=11 idx=007585 GeodesicLength=0.35130690801329895 rxn_smarts="[C:1]([C@@:2]1([C:3]([C:4]([O:5][H:15])([H:13])[H:14])([H:11])[H:12])[C:6]([H:16])([H:17])[O:7]1)([H:8])([H:9])[H:10]>>[C:1]([C@@:2]1([C:3]([O:5][H:15])([H:11])[H:12])[C:6]([H:16])([H:17])[O:7]1)([H:8])([H:9])[H:10].[C:4]([H:13])[H:14]"
C       -1.14412643      -1.24448177       0.43954659
C       -0.64288197       0.01098070      -0.21622342
C        0.77015255       0.00632527      -0.75099888
C        1.94070719      -0.29080699       0.78548260
O        1.81131265       1.11279046       0.20616166
C       -1.60075352       0.96553506      -0.78070883
O       -0.95761077       1.23639482       0.45735208
H       -1.27405128      -2.03247115      -0.30538315
H       -0.42902739      -1.59288568       1.18476280
H       -2.10252610      -1.06361955       0.92595144
H        0.83788560       0.66046475      -1.62808358
H        1.03032671      -0.97373822      -1.14772213
H        3.00045835      -0.50848405       0.64261715
H        1.61835315      -0.25117889       1.83187518
H        1.11381283       1.59686556       0.66620436
H       -2.66474053       0.76125269      -0.70413619
H       -1.30729106       1.60705699      -1.60669768
17
Frame=12 idx=007585 GeodesicLength=0.38302190207715503 rxn_smarts="[C:1]([C@@:2]1([C:3]([C:4]([O:5][H:15])([H:13])[H:14])([H:11])[H:12])[C:6]([H:16])([H:17])[O:7]1)([H:8])([H:9])[H:10]>>[C:1]([C@@:2]1([C:3]([O:5][H:15])([H:11])[H:12])[C:6]([H:16])([H:17])[O:7]1)([H:8])([H:9])[H:10].[C:4]([H:13])[H:14]"
C       -1.14525853      -1.23911513       0.44538093
C       -0.64416885       0.01333710      -0.21656917
C        0.77202451       0.00590665      -0.74623561
C        1.95233446      -0.29235822       0.77165431
O        1.80696643       1.11716124       0.22062437
C       -1.60156036       0.96449050      -0.78640431
O       -0.96127051       1.24097503       0.45200441
H       -1.26397275      -2.03421675      -0.29381870
H       -0.43549016      -1.57919544       1.19966407
H       -2.10879709      -1.05938243       0.92193567
H        0.84228594       0.65703421      -1.62488669
H        1.02232402      -0.97453113      -1.15024832
H        3.01583773      -0.49213944       0.63095986
H        1.61319209      -0.28190038       1.81351585
H        1.10771372       1.59104530       0.68805245
H       -2.66563457       0.76017947      -0.71122316
H       -1.30652609       1.60270944      -1.61440597
17
Frame=13 idx=007585 GeodesicLength=0.414671577471778 rxn_smarts="[C:1]([C@@:2]1([C:3]([C:4]([O:5][H:15])([H:13])[H:14])([H:11])[H:12])[C:6]([H:16])([H:17])[O:7]1)([H:8])([H:9])[H:10]>>[C:1]([C@@:2]1([C:3]([O:5][H:15])([H:11])[H:12])[C:6]([H:16])([H:17])[O:7]1)([H:8])([H:9])[H:10].[C:4]([H:13])[H:14]"
C       -1.14638358      -1.23367909       0.45122775
C       -0.64547432       0.01567213      -0.21703045
C        0.77388129       0.00544738      -0.74153793
C        1.96375333      -0.29360109       0.75787638
O        1.80245224       1.12122756       0.23543964
C       -1.60235564       0.96343483      -0.79216104
O       -0.96484346       1.24555200       0.44652418
H       -1.25389687      -2.03585688      -0.28199492
H       -0.44197377      -1.56524575       1.21445496
H       -2.11495318      -1.05515720       0.91792018
H        0.84674844       0.65367124      -1.62164713
H        1.01440538      -0.97526851      -1.15265653
H        3.03068134      -0.47566955       0.61947788
H        1.60876558      -0.31261237       1.79442101
H        1.10145589       1.58466822       0.71018337
H       -2.66651534       0.75911827      -0.71830310
H       -1.30574732       1.59829881      -1.62219425
17
Frame=14 idx=007585 GeodesicLength=0.4463184511044277 rxn_smarts="[C:1]([C@@:2]1([C:3]([C:4]([O:5][H:15])([H:13])[H:14])([H:11])[H:12])[C:6]([H:16])([H:17])[O:7]1)([H:8])([H:9])[H:10]>>[C:1]([C@@:2]1([C:3]([O:5][H:15])([H:11])[H:12])[C:6]([H:16])([H:17])[O:7]1)([H:8])([H:9])[H:10].[C:4]([H:13])[H:14]"
C       -1.14749280      -1.22812258       0.45713233
C       -0.64680614       0.01800880      -0.21761532
C        0.77571851       0.00497857      -0.73690118
C        1.97500726      -0.29458891       0.74409928
O        1.79773317       1.12496478       0.25070096
C       -1.60315938       0.96234928      -0.79803645
O       -0.96835993       1.25017386       0.44084316
H       -1.24376111      -2.03738261      -0.26981963
H       -0.44848662      -1.55091471       1.22922337
H       -2.12100645      -1.05089833       0.91390888
H        0.85129051       0.65043964      -1.61833443
H        1.00654881      -0.97591010      -1.15498771
H        3.04505290      -0.45904448       0.60808667
H        1.60511195      -0.34347559       1.77454041
H        1.09499285       1.57762250       0.73274695
H       -2.66740028       0.75803684      -0.72543425
H       -1.30498325       1.59376304      -1.63015305
17
Frame=15 idx=007585 GeodesicLength=0.47791958834991216 rxn_smarts="[C:1]([C@@:2]1([C:3]([C:4]([O:5][H:15])([H:13])[H:14])([H:11])[H:12])[C:6]([H:16])([H:17])[O:7]1)([H:8])([H:9])[H:10]>>[C:1]([C@@:2]1([C:3]([O:5][H:15])([H:11])[H:12])[C:6]([H:16])([H:17])[O:7]1)([H:8])([H:9])[H:10].[C:4]([H:13])[H:14]"
C       -1.14857769      -1.22248609       0.46306138
C       -0.64815069       0.02032417      -0.21832594
C        0.77754209       0.00447612      -0.73234887
C        1.98604562      -0.29528110       0.73036795
O        1.79284155       1.12836180       0.26633058
C       -1.60395059       0.96125666      -0.80396992
O       -0.97176456       1.25479954       0.43502201
H       -1.23360596      -2.03879655      -0.25735840
H       -0.45500164      -1.53628995       1.24389473
H       -2.12692694      -1.04664537       0.90991386
H        0.85589042       0.64728841      -1.61499661
H        0.99878275      -0.97649738      -1.15722879
H        3.05890555      -0.44229228       0.59689727
H        1.60209840      -0.37431507       1.75389110
H        1.08835818       1.56996198       0.75558511
H       -2.66827064       0.75697460      -0.73253721
H       -1.30421585       1.58916049      -1.63819825
17
Frame=16 idx=007585 GeodesicLength=0.5095476565783433 rxn_smarts="[C:1]([C@@:2]1([C:3]([C:4]([O:5][H:15])([H:13])[H:14])([H:11])[H:12])[C:6]([H:16])([H:17])[O:7]1)([H:8])([H:9])[H:10]>>[C:1]([C@@:2]1([C:3]([O:5][H:15])([H:11])[H:12])[C:6]([H:16])([H:17])[O:7]1)([H:8])([H:9])[H:10].[C:4]([H:13])[H:14]"
C       -1.14962646      -1.21670696       0.46906408
C       -0.64951791       0.02264313      -0.21917282
C        0.77934898       0.00397431      -0.72787277
C        1.99690981      -0.29573142       0.71662957
O        1.78773173       1.13138171       0.28243970
C       -1.60475195       0.96013379      -0.81002369
O       -0.97509475       1.25947645       0.42898248
H       -1.22335760      -2.04007866      -0.24450378
H       -0.46152516      -1.52122315       1.25855972
H       -2.13272661      -1.04234507       0.90593720
H        0.86057196       0.64428804      -1.61159247
H        0.99108754      -0.97697969      -1.15942131
H        3.07229624      -0.42538286       0.58581247
H        1.59978283      -0.40530816       1.73240291
H        1.08149118       1.56154898       0.77886129
H       -2.66914646       0.75589287      -0.73967765
H       -1.30347338       1.58441671      -1.64642492
