10
Frame=0 idx=001259 GeodesicLength=0.0 rxn_smarts="[n:1]1([H:6])[c:2]([H:7])[c:3]([H:8])[c:4]([H:9])[c:5]1[H:10]>>[N+:1]1([H:6])([H:7])[C-:2]=[C:3]([H:8])[C:4]([H:9])=[C:5]1[H:10]"
N        0.47687278       0.98699665      -0.26280835
C        1.41370428      -0.20124152      -0.13133716
C        0.48918496      -1.17686695       0.17613908
C       -0.85844192      -0.72438471       0.09667697
C       -0.85571143       0.60441787      -0.17448530
H        0.78851770       1.78965351      -0.78860970
H        1.17459873       0.91226791       0.67116666
H        0.77653511      -2.18697740       0.43118453
H       -1.74592598      -1.32026948       0.25485023
H       -1.65933422       1.31640413      -0.27277697
10
Frame=1 idx=001259 GeodesicLength=0.04281543012659666 rxn_smarts="[n:1]1([H:6])[c:2]([H:7])[c:3]([H:8])[c:4]([H:9])[c:5]1[H:10]>>[N+:1]1([H:6])([H:7])[C-:2]=[C:3]([H:8])[C:4]([H:9])=[C:5]1[H:10]"
N        0.47627143       0.98806209      -0.25761566
C        1.40761912      -0.19959389      -0.13340659
C        0.48771705      -1.17847747       0.17235235
C       -0.86074724      -0.72501257       0.09592261
C       -0.85730639       0.60540550      -0.16538782
H        0.78345928       1.78543270      -0.79398174
H        1.19563796       0.91716547       0.67459590
H        0.77706232      -2.18503144       0.43863174
H       -1.74840233      -1.32329154       0.24345471
H       -1.66131121       1.31534117      -0.27456549
10
Frame=2 idx=001259 GeodesicLength=0.08560768534668235 rxn_smarts="[n:1]1([H:6])[c:2]([H:7])[c:3]([H:8])[c:4]([H:9])[c:5]1[H:10]>>[N+:1]1([H:6])([H:7])[C-:2]=[C:3]([H:8])[C:4]([H:9])=[C:5]1[H:10]"
N        0.47563214       0.98918108      -0.25218416
C        1.40161425      -0.19772475      -0.13469229
C        0.48625090      -1.18015558       0.16809205
C       -0.86307200      -0.72595096       0.09359942
C       -0.85893808       0.60614662      -0.15718898
H        0.77851464       1.78145265      -0.79847861
H        1.21648573       0.92193787       0.67827326
H        0.77750256      -2.18322298       0.44495757
H       -1.75074532      -1.32558354       0.23512745
H       -1.66324482       1.31391960      -0.27750571
10
Frame=3 idx=001259 GeodesicLength=0.1284011316468155 rxn_smarts="[n:1]1([H:6])[c:2]([H:7])[c:3]([H:8])[c:4]([H:9])[c:5]1[H:10]>>[N+:1]1([H:6])([H:7])[C-:2]=[C:3]([H:8])[C:4]([H:9])=[C:5]1[H:10]"
N        0.47494180       0.99033748      -0.24657359
C        1.39565654      -0.19569101      -0.13538000
C        0.48477961      -1.18186637       0.16351546
C       -0.86542401      -0.72710107       0.09011573
C       -0.86062738       0.60670551      -0.14958110
H        0.77360052       1.77762761      -0.80234160
H        1.23738959       0.92663225       0.68196856
H        0.77784185      -2.18144870       0.45063809
H       -1.75302444      -1.32744684       0.22877375
H       -1.66513411       1.31225113      -0.28113530
10
Frame=4 idx=001259 GeodesicLength=0.1712002900315425 rxn_smarts="[n:1]1([H:6])[c:2]([H:7])[c:3]([H:8])[c:4]([H:9])[c:5]1[H:10]>>[N+:1]1([H:6])([H:7])[C-:2]=[C:3]([H:8])[C:4]([H:9])=[C:5]1[H:10]"
N        0.47417745       0.99147210      -0.24095989
C        1.38963833      -0.19364240      -0.13586543
C        0.48326428      -1.18352302       0.15920064
C       -0.86782696      -0.72821348       0.08678075
C       -0.86238830       0.60724243      -0.14168279
H        0.76843163       1.77365744      -0.80624465
H        1.25898299       0.93141975       0.68497254
H        0.77807502      -2.17947191       0.45676297
H       -1.75537601      -1.32951657       0.22127732
H       -1.66697841       1.31057565      -0.28424147
10
Frame=5 idx=001259 GeodesicLength=0.21402148015189654 rxn_smarts="[n:1]1([H:6])[c:2]([H:7])[c:3]([H:8])[c:4]([H:9])[c:5]1[H:10]>>[N+:1]1([H:6])([H:7])[C-:2]=[C:3]([H:8])[C:4]([H:9])=[C:5]1[H:10]"
N        0.47332453       0.99254262      -0.23546573
C        1.38351108      -0.19165266      -0.13626932
C        0.48169083      -1.18507442       0.15554753
C       -0.87028266      -0.72918482       0.08421723
C       -0.86421530       0.60781211      -0.13312505
H        0.76284584       1.76933670      -0.81059255
H        1.28156512       0.93643228       0.68686354
H        0.77819012      -2.17717993       0.46389954
H       -1.75785321      -1.33207764       0.21091554
H       -1.66877634       1.30904576      -0.28599073
10
Frame=6 idx=001259 GeodesicLength=0.25686461403550737 rxn_smarts="[n:1]1([H:6])[c:2]([H:7])[c:3]([H:8])[c:4]([H:9])[c:5]1[H:10]>>[N+:1]1([H:6])([H:7])[C-:2]=[C:3]([H:8])[C:4]([H:9])=[C:5]1[H:10]"
N        0.47239828       0.99357960      -0.23000806
C        1.37734277      -0.18964200      -0.13634418
C        0.48008414      -1.18656676       0.15228840
C       -0.87278766      -0.73015921       0.08170570
C       -0.86610940       0.60830866      -0.12442940
H        0.75701609       1.76481030      -0.81504826
H        1.30481104       0.94161050       0.68795146
H        0.77818029      -2.17470061       0.47152318
H       -1.76037918      -1.33480837       0.19924504
H       -1.67055637       1.30756789      -0.28688389
10
Frame=7 idx=001259 GeodesicLength=0.29967199674941625 rxn_smarts="[n:1]1([H:6])[c:2]([H:7])[c:3]([H:8])[c:4]([H:9])[c:5]1[H:10]>>[N+:1]1([H:6])([H:7])[C-:2]=[C:3]([H:8])[C:4]([H:9])=[C:5]1[H:10]"
N        0.47140565       0.99461495      -0.22448975
C        1.37117886      -0.18753170      -0.13584713
C        0.47845940      -1.18802918       0.14916629
C       -0.87532239      -0.73123889       0.07861255
C       -0.86806725       0.60864741      -0.11607702
H        0.75110849       1.76022583      -0.81927160
H        1.32839477       0.94686531       0.68856653
H        0.77804656      -2.17216724       0.47902369
H       -1.76287702      -1.33742135       0.18785803
H       -1.67232707       1.30603486      -0.28754159
10
Frame=8 idx=001259 GeodesicLength=0.34252016936431684 rxn_smarts="[n:1]1([H:6])[c:2]([H:7])[c:3]([H:8])[c:4]([H:9])[c:5]1[H:10]>>[N+:1]1([H:6])([H:7])[C-:2]=[C:3]([H:8])[C:4]([H:9])=[C:5]1[H:10]"
N        0.47032239       0.99560749      -0.21902163
C        1.36494985      -0.18543013      -0.13504755
C        0.47680014      -1.18942360       0.14657786
C       -0.87789589      -0.73229984       0.07573389
C       -0.87008902       0.60892111      -0.10745261
H        0.74488464       1.75535859      -0.82371390
H        1.35278199       0.95232435       0.68814722
H        0.77775485      -2.16939813       0.48728696
H       -1.76539971      -1.34028083       0.17450032
H       -1.67410925       1.30462098      -0.28701056
10
Frame=9 idx=001259 GeodesicLength=0.385375411938434 rxn_smarts="[n:1]1([H:6])[c:2]([H:7])[c:3]([H:8])[c:4]([H:9])[c:5]1[H:10]>>[N+:1]1([H:6])([H:7])[C-:2]=[C:3]([H:8])[C:4]([H:9])=[C:5]1[H:10]"
N        0.46916020       0.99658893      -0.21351222
C        1.35872156      -0.18325211      -0.13369233
C        0.47512826      -1.19077529       0.14426727
C       -0.88050250      -0.73343360       0.07250006
C       -0.87218568       0.60904748      -0.09903506
H        0.73853155       1.75035653      -0.82804127
H        1.37765288       0.95792434       0.68703077
H        0.77731108      -2.16655614       0.49566097
H       -1.76789494      -1.34312016       0.16076236
H       -1.67592243       1.30322003      -0.28594055
10
Frame=10 idx=001259 GeodesicLength=0.42822977559832687 rxn_smarts="[n:1]1([H:6])[c:2]([H:7])[c:3]([H:8])[c:4]([H:9])[c:5]1[H:10]>>[N+:1]1([H:6])([H:7])[C-:2]=[C:3]([H:8])[C:4]([H:9])=[C:5]1[H:10]"
N        0.46791790       0.99756990      -0.20794424
C        1.35249251      -0.18098587      -0.13173397
C        0.47344247      -1.19208653       0.14221826
C       -0.88313228      -0.73464198       0.06889285
C       -0.87435765       0.60901689      -0.09088723
H        0.73208131       1.74523772      -0.83221216
H        1.40298218       0.96366264       0.68521744
H        0.77670435      -2.16367244       0.50406743
H       -1.77034652      -1.34592695       0.14678222
H       -1.67778427       1.30182661      -0.28440060
10
Frame=11 idx=001259 GeodesicLength=0.4710820716123687 rxn_smarts="[n:1]1([H:6])[c:2]([H:7])[c:3]([H:8])[c:4]([H:9])[c:5]1[H:10]>>[N+:1]1([H:6])([H:7])[C-:2]=[C:3]([H:8])[C:4]([H:9])=[C:5]1[H:10]"
N        0.46659419       0.99859251      -0.20221147
C        1.34630769      -0.17855935      -0.12901493
C        0.47176720      -1.19337806       0.14014833
C       -0.88576195      -0.73598293       0.06444745
C       -0.87662144       0.60878006      -0.08337064
H        0.72569210       1.74016019      -0.83592041
H        1.42854305       0.96946986       0.68302320
H        0.77592185      -2.16088183       0.51198015
H       -1.77274440      -1.34854330       0.13395821
H       -1.67969830       1.30034286      -0.28303988
10
Frame=12 idx=001259 GeodesicLength=0.5139293341473042 rxn_smarts="[n:1]1([H:6])[c:2]([H:7])[c:3]([H:8])[c:4]([H:9])[c:5]1[H:10]>>[N+:1]1([H:6])([H:7])[C-:2]=[C:3]([H:8])[C:4]([H:9])=[C:5]1[H:10]"
N        0.46518508       0.99968372      -0.19625364
C        1.34018744      -0.17593191      -0.12545054
C        0.47011993      -1.19465820       0.13788468
C       -0.88837266      -0.73747833       0.05890608
C       -0.87899018       0.60831538      -0.07668788
H        0.71946567       1.73522027      -0.83900143
H        1.45421707       0.97530793       0.68062938
H        0.77495029      -2.15826012       0.51911741
H       -1.77509745      -1.35092263       0.12307421
H       -1.68166520       1.29872390      -0.28221828
10
Frame=13 idx=001259 GeodesicLength=0.5567848047322536 rxn_smarts="[n:1]1([H:6])[c:2]([H:7])[c:3]([H:8])[c:4]([H:9])[c:5]1[H:10]>>[N+:1]1([H:6])([H:7])[C-:2]=[C:3]([H:8])[C:4]([H:9])=[C:5]1[H:10]"
N        0.46368523       1.00085013      -0.19005731
C        1.33412196      -0.17310763      -0.12104853
C        0.46849577      -1.19591803       0.13545257
C       -0.89096643      -0.73910359       0.05236865
C       -0.88147809       0.60764273      -0.07075725
H        0.71340334       1.73040722      -0.84148597
H        1.48007989       0.98119444       0.67796941
H        0.77378429      -2.15580975       0.52552871
H       -1.77742438      -1.35313509       0.11394588
H       -1.68370159       1.29697956      -0.28191618
10
Frame=14 idx=001259 GeodesicLength=0.5995856006017939 rxn_smarts="[n:1]1([H:6])[c:2]([H:7])[c:3]([H:8])[c:4]([H:9])[c:5]1[H:10]>>[N+:1]1([H:6])([H:7])[C-:2]=[C:3]([H:8])[C:4]([H:9])=[C:5]1[H:10]"
N        0.46207122       1.00208256      -0.18361898
C        1.32806597      -0.17010455      -0.11582139
C        0.46688528      -1.19714078       0.13291320
C       -0.89352275      -0.74081347       0.04500675
C       -0.88407859       0.60678801      -0.06545892
H        0.70745284       1.72568215      -0.84342559
H        1.50619100       0.98710797       0.67490908
H        0.77242491      -2.15350408       0.53132944
H       -1.77969582      -1.35523064       0.10620555
H       -1.68579405       1.29513282      -0.28203913
10
Frame=15 idx=001259 GeodesicLength=0.6424188363009049 rxn_smarts="[n:1]1([H:6])[c:2]([H:7])[c:3]([H:8])[c:4]([H:9])[c:5]1[H:10]>>[N+:1]1([H:6])([H:7])[C-:2]=[C:3]([H:8])[C:4]([H:9])=[C:5]1[H:10]"
N        0.46034114       1.00335051      -0.17702389
C        1.32197444      -0.16701033      -0.10991503
C        0.46526037      -1.19829936       0.13071022
C       -0.89609366      -0.74251252       0.03763584
C       -0.88680174       0.60583962      -0.06017837
H        0.70139690       1.72081293      -0.84522980
H        1.53299279       0.99318486       0.67084105
H        0.77087444      -2.15121137       0.53723277
H       -1.78194553      -1.35745680       0.09769603
H       -1.68799915       1.29330247      -0.28176882
10
Frame=16 idx=001259 GeodesicLength=0.6852436062611309 rxn_smarts="[n:1]1([H:6])[c:2]([H:7])[c:3]([H:8])[c:4]([H:9])[c:5]1[H:10]>>[N+:1]1([H:6])([H:7])[C-:2]=[C:3]([H:8])[C:4]([H:9])=[C:5]1[H:10]"
N        0.45847737       1.00463145      -0.17026547
C        1.31579732      -0.16385032      -0.10337913
C        0.46360423      -1.19937271       0.12896489
C       -0.89866545      -0.74416212       0.03046854
C       -0.88962960       0.60481803      -0.05465789
H        0.69512317       1.71569821      -0.84698783
H        1.56062488       0.99940188       0.66544826
H        0.76911311      -2.14880655       0.54359218
H       -1.78413787      -1.35986217       0.08760843
H       -1.69030716       1.29150430      -0.28079198
