10
Frame=0 idx=003935 GeodesicLength=0.0 rxn_smarts="[O:1]=[C:2]([N:3]([C:4]([C:5]#[N:6])([H:9])[H:10])[H:8])[H:7]>>[O-:1][N+:6]#[C:5][C:4]([N:3]([C:2][H:7])[H:8])([H:9])[H:10]"
O       -0.42517861       1.23246819      -1.43546748
C       -1.39984240       0.21104266      -0.20255549
N       -0.49237448      -0.61491235       0.32897706
C        0.72501864      -0.12265919       0.84520486
C        1.52265799       0.44254228      -0.43308846
N        0.74851952       0.98939064      -1.16519702
H       -2.07662095      -0.36364463      -0.84459086
H       -0.48179782      -1.60045693       0.08212061
H        0.56672749       0.72572317       1.50411990
H        1.31289062      -0.89949384       1.32047687
10
Frame=1 idx=003935 GeodesicLength=0.1325600049081627 rxn_smarts="[O:1]=[C:2]([N:3]([C:4]([C:5]#[N:6])([H:9])[H:10])[H:8])[H:7]>>[O-:1][N+:6]#[C:5][C:4]([N:3]([C:2][H:7])[H:8])([H:9])[H:10]"
O       -0.42715021       1.24602724      -1.44119707
C       -1.40499305       0.20791159      -0.19740651
N       -0.49554085      -0.61981233       0.32886292
C        0.72415824      -0.12206717       0.84282174
C        1.52683227       0.43742440      -0.42423667
N        0.78031944       0.98954132      -1.17688643
H       -2.09615403      -0.37280318      -0.81972407
H       -0.47485001      -1.59980211       0.06193460
H        0.55569243       0.72737143       1.49858543
H        1.31168577      -0.89379120       1.32724605
10
Frame=2 idx=003935 GeodesicLength=0.2653870992670312 rxn_smarts="[O:1]=[C:2]([N:3]([C:4]([C:5]#[N:6])([H:9])[H:10])[H:8])[H:7]>>[O-:1][N+:6]#[C:5][C:4]([N:3]([C:2][H:7])[H:8])([H:9])[H:10]"
O       -0.42924268       1.26004192      -1.44703364
C       -1.41032475       0.20439802      -0.19249486
N       -0.49866385      -0.62492245       0.32834621
C        0.72315288      -0.12147481       0.84025201
C        1.53103422       0.43219383      -0.41551870
N        0.81352596       0.98997722      -1.18817395
H       -2.11607942      -0.38245852      -0.79372828
H       -0.46806132      -1.59891541       0.04165217
H        0.54444800       0.72906334       1.49262223
H        1.31021096      -0.88790313       1.33407681
10
Frame=3 idx=003935 GeodesicLength=0.3981660990170478 rxn_smarts="[O:1]=[C:2]([N:3]([C:4]([C:5]#[N:6])([H:9])[H:10])[H:8])[H:7]>>[O-:1][N+:6]#[C:5][C:4]([N:3]([C:2][H:7])[H:8])([H:9])[H:10]"
O       -0.43144538       1.27451345      -1.45294504
C       -1.41585979       0.20047781      -0.18786939
N       -0.50175365      -0.63023592       0.32740396
C        0.72199471      -0.12087735       0.83746920
C        1.53525798       0.42683690      -0.40695301
N        0.84821854       0.99072843      -1.19901384
H       -2.13639434      -0.39262595      -0.76651214
H       -0.46144527      -1.59781883       0.02127919
H        0.53298552       0.73081766       1.48618530
H        1.30844168      -0.88181621       1.34095577
10
Frame=4 idx=003935 GeodesicLength=0.5307778077432292 rxn_smarts="[O:1]=[C:2]([N:3]([C:4]([C:5]#[N:6])([H:9])[H:10])[H:8])[H:7]>>[O-:1][N+:6]#[C:5][C:4]([N:3]([C:2][H:7])[H:8])([H:9])[H:10]"
O       -0.43375512       1.28927103      -1.45910400
C       -1.42159297       0.19615864      -0.18358103
N       -0.50480729      -0.63573465       0.32600119
C        0.72066298      -0.12027937       0.83444732
C        1.53951000       0.42141336      -0.39849887
N        0.88453942       0.99189442      -1.20927942
H       -2.15717787      -0.40328973      -0.73781458
H       -0.45497452      -1.59648470       0.00073462
H        0.52127637       0.73258858       1.47926198
H        1.30631900      -0.87553756       1.34783279
10
Frame=5 idx=003935 GeodesicLength=0.6629660741636261 rxn_smarts="[O:1]=[C:2]([N:3]([C:4]([C:5]#[N:6])([H:9])[H:10])[H:8])[H:7]>>[O-:1][N+:6]#[C:5][C:4]([N:3]([C:2][H:7])[H:8])([H:9])[H:10]"
O       -0.43618301       1.30447465      -1.46535759
C       -1.42756768       0.19138233      -0.17966199
N       -0.50784301      -0.64143816       0.32411961
C        0.71915300      -0.11966956       0.83116449
C        1.54376656       0.41586842      -0.39021419
N        0.92255037       0.99340655      -1.21898848
H       -2.17834648      -0.41446364      -0.70763796
H       -0.44868268      -1.59496869      -0.01993782
H        0.50930800       0.73443555       1.47178486
H        1.30384492      -0.86902744       1.35472908
10
Frame=6 idx=003935 GeodesicLength=0.7948428920064491 rxn_smarts="[O:1]=[C:2]([N:3]([C:4]([C:5]#[N:6])([H:9])[H:10])[H:8])[H:7]>>[O-:1][N+:6]#[C:5][C:4]([N:3]([C:2][H:7])[H:8])([H:9])[H:10]"
O       -0.43876178       1.32020842      -1.47165447
C       -1.43380931       0.18610040      -0.17619147
N       -0.51086396      -0.64734598       0.32170705
C        0.71743337      -0.11903605       0.82758207
C        1.54802982       0.41019490      -0.38210311
N        0.96243371       0.99520726      -1.22809208
H       -2.19988999      -0.42617508      -0.67575919
H       -0.44254932      -1.59328967      -0.04078394
H        0.49703050       0.73638330       1.46366384
H        1.30094696      -0.86224748       1.36163130
10
Frame=7 idx=003935 GeodesicLength=0.9264696719853689 rxn_smarts="[O:1]=[C:2]([N:3]([C:4]([C:5]#[N:6])([H:9])[H:10])[H:8])[H:7]>>[O-:1][N+:6]#[C:5][C:4]([N:3]([C:2][H:7])[H:8])([H:9])[H:10]"
O       -0.44157074       1.33661086      -1.47788406
C       -1.44034935       0.18026081      -0.17320595
N       -0.51387934      -0.65346970       0.31875069
C        0.71548616      -0.11837116       0.82366220
C        1.55227825       0.40435197      -0.37421657
N        1.00433126       0.99722517      -1.23654974
H       -2.22172292      -0.43843853      -0.64213426
H       -0.43658986      -1.59147882      -0.06176474
H        0.48442524       0.73846240       1.45479974
H        1.29759130      -0.85515300       1.36854269
10
Frame=8 idx=003935 GeodesicLength=1.0581765163850838 rxn_smarts="[O:1]=[C:2]([N:3]([C:4]([C:5]#[N:6])([H:9])[H:10])[H:8])[H:7]>>[O-:1][N+:6]#[C:5][C:4]([N:3]([C:2][H:7])[H:8])([H:9])[H:10]"
O       -0.44475450       1.35374896      -1.48407135
C       -1.44717926       0.17380501      -0.17079289
N       -0.51687178      -0.65982093       0.31521441
C        0.71327951      -0.11767701       0.81936000
C        1.55652464       0.39832599      -0.36655064
N        1.04848050       0.99943104      -1.24424026
H       -2.24380851      -0.45123384      -0.60651952
H       -0.43078096      -1.58954497      -0.08290329
H        0.47143917       0.74066525       1.44507136
H        1.29367120      -0.84769950       1.37543218
10
Frame=9 idx=003935 GeodesicLength=1.1907255752831074 rxn_smarts="[O:1]=[C:2]([N:3]([C:4]([C:5]#[N:6])([H:9])[H:10])[H:8])[H:7]>>[O-:1][N+:6]#[C:5][C:4]([N:3]([C:2][H:7])[H:8])([H:9])[H:10]"
O       -0.44857140       1.37386052      -1.48737972
C       -1.45459441       0.16637727      -0.16902869
N       -0.51997390      -0.66643306       0.31110943
C        0.71078594      -0.11673250       0.81453852
C        1.56069991       0.39135180      -0.35970972
N        1.09512661       1.00035062      -1.25214005
H       -2.26537845      -0.46532024      -0.57017866
H       -0.42536278      -1.58790655      -0.10368638
H        0.45806916       0.74381491       1.43371612
H        1.28919932      -0.83936277       1.38275914
10
Frame=10 idx=003935 GeodesicLength=1.3233684471228386 rxn_smarts="[O:1]=[C:2]([N:3]([C:4]([C:5]#[N:6])([H:9])[H:10])[H:8])[H:7]>>[O-:1][N+:6]#[C:5][C:4]([N:3]([C:2][H:7])[H:8])([H:9])[H:10]"
O       -0.45290104       1.39514010      -1.49016572
C       -1.46239262       0.15815809      -0.16804997
N       -0.52308229      -0.67330672       0.30632172
C        0.70797187      -0.11570271       0.80921656
C        1.56481881       0.38412136      -0.35321551
N        1.14445528       1.00111398      -1.25916691
H       -2.28704163      -0.47998707      -0.53156450
H       -0.42010090      -1.58630461      -0.12462536
H        0.44421199       0.74723913       1.42118276
H        1.28406053      -0.83047155       1.39006692
10
Frame=11 idx=003935 GeodesicLength=1.4559593675716975 rxn_smarts="[O:1]=[C:2]([N:3]([C:4]([C:5]#[N:6])([H:9])[H:10])[H:8])[H:7]>>[O-:1][N+:6]#[C:5][C:4]([N:3]([C:2][H:7])[H:8])([H:9])[H:10]"
O       -0.45786689       1.41784088      -1.49206499
C       -1.47062242       0.14904632      -0.16792520
N       -0.52621319      -0.68046170       0.30083162
C        0.70480863      -0.11455481       0.80333506
C        1.56883273       0.37658092      -0.34717229
N        1.19664596       1.00148827      -1.26531614
H       -2.30862256      -0.49522489      -0.49070352
H       -0.41500286      -1.58482321      -0.14565004
H        0.42982100       0.75102751       1.40729626
H        1.27821959      -0.82091929       1.39736925
10
Frame=12 idx=003935 GeodesicLength=1.5883867955431075 rxn_smarts="[O:1]=[C:2]([N:3]([C:4]([C:5]#[N:6])([H:9])[H:10])[H:8])[H:7]>>[O-:1][N+:6]#[C:5][C:4]([N:3]([C:2][H:7])[H:8])([H:9])[H:10]"
O       -0.46356638       1.44223517      -1.49276991
C       -1.47934419       0.13888970      -0.16880117
N       -0.52938028      -0.68794135       0.29457042
C        0.70124954      -0.11325378       0.79682455
C        1.57270312       0.36870015      -0.34164752
N        1.25192439       1.00122878      -1.27054273
H       -2.32994998      -0.51097547      -0.44740115
H       -0.41004008      -1.58357940      -0.16676345
H        0.41479542       0.75526980       1.39185351
H        1.27160843      -0.81057359       1.40467746
10
Frame=13 idx=003935 GeodesicLength=1.7205264876053419 rxn_smarts="[O:1]=[C:2]([N:3]([C:4]([C:5]#[N:6])([H:9])[H:10])[H:8])[H:7]>>[O-:1][N+:6]#[C:5][C:4]([N:3]([C:2][H:7])[H:8])([H:9])[H:10]"
O       -0.47015163       1.46868428      -1.49178364
C       -1.48862603       0.12751882      -0.17080097
N       -0.53260727      -0.69579965       0.28751148
C        0.69726054      -0.11175236       0.78961334
C        1.57636725       0.36040223      -0.33678505
N        1.31050312       1.00001080      -1.27483500
H       -2.35079225      -0.52718292      -0.40168306
H       -0.40521187      -1.58272409      -0.18788837
H        0.39905379       0.76010084       1.37462020
H        1.26420436      -0.79925795       1.41203106
10
Frame=14 idx=003935 GeodesicLength=1.8524964674412774 rxn_smarts="[O:1]=[C:2]([N:3]([C:4]([C:5]#[N:6])([H:9])[H:10])[H:8])[H:7]>>[O-:1][N+:6]#[C:5][C:4]([N:3]([C:2][H:7])[H:8])([H:9])[H:10]"
O       -0.47787444       1.49752202      -1.48866170
C       -1.49853278       0.11477109      -0.17402147
N       -0.53590581      -0.70406814       0.27962431
C        0.69279182      -0.11000255       0.78160136
C        1.57976699       0.35162777      -0.33271159
N        1.37270415       0.99748962      -1.27807276
H       -2.37087913      -0.54380091      -0.35351664
H       -0.40050887      -1.58238847      -0.20895886
H        0.38252223       0.76562530       1.35530465
H        1.25591583      -0.78677572       1.41941269
10
Frame=15 idx=003935 GeodesicLength=1.9844396806638211 rxn_smarts="[O:1]=[C:2]([N:3]([C:4]([C:5]#[N:6])([H:9])[H:10])[H:8])[H:7]>>[O-:1][N+:6]#[C:5][C:4]([N:3]([C:2][H:7])[H:8])([H:9])[H:10]"
O       -0.48710214       1.52917011      -1.48281798
C       -1.50912466       0.10050642      -0.17844503
N       -0.53928967      -0.71276708       0.27096705
C        0.68782265      -0.10794006       0.77269491
C        1.58280329       0.34230280      -0.32962491
N        1.43883780       0.99317105      -1.28014205
H       -2.38991100      -0.56082501      -0.30323100
H       -0.39594499      -1.58269734      -0.22980641
H        0.36519318       0.77197658       1.33360721
H        1.24671555      -0.77289746       1.42679821
10
Frame=16 idx=003935 GeodesicLength=2.1165134019739424 rxn_smarts="[O:1]=[C:2]([N:3]([C:4]([C:5]#[N:6])([H:9])[H:10])[H:8])[H:7]>>[O-:1][N+:6]#[C:5][C:4]([N:3]([C:2][H:7])[H:8])([H:9])[H:10]"
O       -0.49813312       1.56409555      -1.47371596
C       -1.52050739       0.08449503      -0.18415815
N       -0.54278460      -0.72197126       0.26152838
C        0.68231843      -0.10548119       0.76276548
C        1.58536105       0.33239661      -0.32772442
N        1.50934045       0.98655241      -1.28078818
H       -2.40765680      -0.57821224      -0.25086559
H       -0.39152784      -1.58386332      -0.25035276
H        0.34699724       0.77931856       1.30916557
H        1.23659259      -0.75733014       1.43414563
