15
Frame=0 idx=007306 GeodesicLength=0.0 rxn_smarts="[C:1]([C:2]([C:3](=[O:4])[C:5]#[C:6][C:7]([H:13])([H:14])[H:15])([H:11])[H:12])([H:8])([H:9])[H:10]>>[C:1]([C@@:2]([C:3](=[O:4])[H:11])([C:5]#[C:6][C:7]([H:13])([H:14])[H:15])[H:12])([H:8])([H:9])[H:10]"
C       -2.47031093      -0.72142104       0.27452449
C       -1.46077063      -0.03514649      -0.49140853
C       -0.77057724       1.08544343       0.15395987
O       -1.14116358       1.48532369       1.31428415
C        0.64550445       0.56250600      -0.03147245
C        1.77014877       0.14525403      -0.08651445
C        3.15008639      -0.32036734      -0.12603584
H       -2.87215682      -1.63267183      -0.15669552
H       -3.26169223       0.02227857       0.46208225
H       -2.06160999      -0.83420249       1.29239002
H       -0.85936856       1.85365387      -0.68552225
H       -1.21645102      -0.28162651      -1.52097009
H        3.75387447       0.30782153      -0.78237079
H        3.58833422      -0.28890408       0.87259132
H        3.20615264      -1.34794128      -0.48884212
15
Frame=1 idx=007306 GeodesicLength=0.10043345721991169 rxn_smarts="[C:1]([C:2]([C:3](=[O:4])[C:5]#[C:6][C:7]([H:13])([H:14])[H:15])([H:11])[H:12])([H:8])([H:9])[H:10]>>[C:1]([C@@:2]([C:3](=[O:4])[H:11])([C:5]#[C:6][C:7]([H:13])([H:14])[H:15])[H:12])([H:8])([H:9])[H:10]"
C       -2.46936080      -0.71183368       0.27526707
C       -1.44725425      -0.02325657      -0.48006535
C       -0.77024158       1.09801355       0.17962301
O       -1.15003997       1.50306584       1.32806093
C        0.64340544       0.53293649      -0.02094581
C        1.77189936       0.12616869      -0.07572020
C        3.15649061      -0.32354086      -0.13343035
H       -2.83036280      -1.64504044      -0.14554850
H       -3.28423182       0.01548580       0.41605591
H       -2.10171176      -0.80429441       1.30968750
H       -0.88017269       1.83057109      -0.70753491
H       -1.20992294      -0.27237154      -1.51071354
H        3.75078617       0.32653417      -0.77748229
H        3.59927643      -0.31078914       0.86384863
H        3.22144060      -1.34164898      -0.52110209
15
Frame=2 idx=007306 GeodesicLength=0.20082017685392223 rxn_smarts="[C:1]([C:2]([C:3](=[O:4])[C:5]#[C:6][C:7]([H:13])([H:14])[H:15])([H:11])[H:12])([H:8])([H:9])[H:10]>>[C:1]([C@@:2]([C:3](=[O:4])[H:11])([C:5]#[C:6][C:7]([H:13])([H:14])[H:15])[H:12])([H:8])([H:9])[H:10]"
C       -2.46824737      -0.70179577       0.27706810
C       -1.43391974      -0.01192212      -0.46882018
C       -0.76963341       1.11107427       0.20283303
O       -1.15820276       1.52173619       1.33951015
C        0.64088931       0.50261473      -0.01027347
C        1.77314244       0.10646090      -0.06590794
C        3.16228661      -0.32643036      -0.14085084
H       -2.78810645      -1.65644337      -0.12926496
H       -3.30478548       0.00733910       0.36891501
H       -2.14259368      -0.77205693       1.32621115
H       -0.90045646       1.80694466      -0.72946480
H       -1.20307474      -0.26619785      -1.49978300
H        3.74871578       0.34987736      -0.76530069
H        3.60706379      -0.33995216       0.85578090
H        3.23692214      -1.33124865      -0.56065246
15
Frame=3 idx=007306 GeodesicLength=0.3012212968945411 rxn_smarts="[C:1]([C:2]([C:3](=[O:4])[C:5]#[C:6][C:7]([H:13])([H:14])[H:15])([H:11])[H:12])([H:8])([H:9])[H:10]>>[C:1]([C@@:2]([C:3](=[O:4])[H:11])([C:5]#[C:6][C:7]([H:13])([H:14])[H:15])[H:12])([H:8])([H:9])[H:10]"
C       -2.46696026      -0.69177179       0.27784946
C       -1.42066910       0.00023733      -0.45807307
C       -0.76866129       1.12434445       0.22610181
O       -1.16561683       1.53843833       1.35210491
C        0.63808627       0.47194972       0.00141820
C        1.77390964       0.08626007      -0.05648252
C        3.16736714      -0.32931494      -0.14834139
H       -2.74561059      -1.66615221      -0.11239342
H       -3.32323231      -0.00301553       0.32057715
H       -2.18418480      -0.74061686       1.33963197
H       -0.92016674       1.78496795      -0.74744088
H       -1.19583979      -0.25904863      -1.48928064
H        3.74421175       0.36891082      -0.75796965
H        3.61650392      -0.36267133       0.84611657
H        3.25086300      -1.32251738      -0.59381851
15
Frame=4 idx=007306 GeodesicLength=0.4015382095523912 rxn_smarts="[C:1]([C:2]([C:3](=[O:4])[C:5]#[C:6][C:7]([H:13])([H:14])[H:15])([H:11])[H:12])([H:8])([H:9])[H:10]>>[C:1]([C@@:2]([C:3](=[O:4])[H:11])([C:5]#[C:6][C:7]([H:13])([H:14])[H:15])[H:12])([H:8])([H:9])[H:10]"
C       -2.46489601      -0.68152912       0.28041191
C       -1.40781864       0.01176583      -0.44774556
C       -0.76752334       1.13826251       0.24603234
O       -1.17163267       1.55662924       1.36154161
C        0.63483500       0.44149291       0.01098455
C        1.77402783       0.06599385      -0.04962329
C        3.17164376      -0.33211685      -0.15531750
H       -2.70241138      -1.67494370      -0.08913382
H       -3.33906671      -0.01556122       0.27290732
H       -2.22482809      -0.70683354       1.35253735
H       -0.94070435       1.76269040      -0.76674046
H       -1.18944515      -0.25486236      -1.47860130
H        3.74231798       0.39351518      -0.73891334
H        3.62050223      -0.39653723       0.83814077
H        3.26499957      -1.30796591      -0.63648058
15
Frame=5 idx=007306 GeodesicLength=0.5018168357259211 rxn_smarts="[C:1]([C:2]([C:3](=[O:4])[C:5]#[C:6][C:7]([H:13])([H:14])[H:15])([H:11])[H:12])([H:8])([H:9])[H:10]>>[C:1]([C@@:2]([C:3](=[O:4])[H:11])([C:5]#[C:6][C:7]([H:13])([H:14])[H:15])[H:12])([H:8])([H:9])[H:10]"
C       -2.46257548      -0.67135386       0.28184835
C       -1.39500003       0.02420924      -0.43792925
C       -0.76602421       1.15219139       0.26641791
O       -1.17683394       1.57263291       1.37251279
C        0.63135616       0.41099048       0.02119073
C        1.77367994       0.04537199      -0.04321419
C        3.17520440      -0.33500788      -0.16232202
H       -2.65897067      -1.68181181      -0.06566841
H       -3.35265894      -0.03063143       0.22431512
H       -2.26596436      -0.67416830       1.36216270
H       -0.96104767       1.74243520      -0.78218210
H       -1.18285446      -0.24904847      -1.46849575
H        3.73788634       0.41294918      -0.72542486
H        3.62615843      -0.42317950       0.82842989
H        3.27764450      -1.29557915      -0.67164091
15
Frame=6 idx=007306 GeodesicLength=0.6021246818694301 rxn_smarts="[C:1]([C:2]([C:3](=[O:4])[C:5]#[C:6][C:7]([H:13])([H:14])[H:15])([H:11])[H:12])([H:8])([H:9])[H:10]>>[C:1]([C@@:2]([C:3](=[O:4])[H:11])([C:5]#[C:6][C:7]([H:13])([H:14])[H:15])[H:12])([H:8])([H:9])[H:10]"
C       -2.46003240      -0.66103521       0.28356788
C       -1.38237705       0.03667089      -0.42853650
C       -0.76416155       1.16622302       0.28563082
O       -1.18088059       1.58827619       1.38290295
C        0.62759756       0.38031525       0.03068712
C        1.77283460       0.02427912      -0.03833419
C        3.17820198      -0.33786142      -0.16912902
H       -2.61543900      -1.68709653      -0.03889826
H       -3.36393925      -0.04805347       0.17555338
H       -2.30733606      -0.64078088       1.36989347
H       -0.98164564       1.72297768      -0.79656368
H       -1.17662846      -0.24386425      -1.45862730
H        3.73345976       0.43279039      -0.70900076
H        3.63029507      -0.45148754       0.81870706
H        3.29005102      -1.28135325      -0.70785295
15
Frame=7 idx=007306 GeodesicLength=0.702493097366032 rxn_smarts="[C:1]([C:2]([C:3](=[O:4])[C:5]#[C:6][C:7]([H:13])([H:14])[H:15])([H:11])[H:12])([H:8])([H:9])[H:10]>>[C:1]([C@@:2]([C:3](=[O:4])[H:11])([C:5]#[C:6][C:7]([H:13])([H:14])[H:15])[H:12])([H:8])([H:9])[H:10]"
C       -2.45741498      -0.65037729       0.28600239
C       -1.36973484       0.04858676      -0.41931836
C       -0.76195773       1.18037469       0.30318022
O       -1.18418547       1.60466132       1.39161494
C        0.62357478       0.34921191       0.04018258
C        1.77155294       0.00261415      -0.03415774
C        3.18069638      -0.34049767      -0.17590180
H       -2.57188781      -1.69075658      -0.00731990
H       -3.37288120      -0.06794713       0.12615419
H       -2.34961860      -0.60534672       1.37609446
H       -1.00222833       1.70333625      -0.81117026
H       -1.17022534      -0.24073413      -1.44839800
H        3.72943733       0.45509317      -0.68606447
H        3.63254572      -0.48574818       0.80815784
H        3.30232714      -1.26247054      -0.74905609
15
Frame=8 idx=007306 GeodesicLength=0.8030407369291054 rxn_smarts="[C:1]([C:2]([C:3](=[O:4])[C:5]#[C:6][C:7]([H:13])([H:14])[H:15])([H:11])[H:12])([H:8])([H:9])[H:10]>>[C:1]([C@@:2]([C:3](=[O:4])[H:11])([C:5]#[C:6][C:7]([H:13])([H:14])[H:15])[H:12])([H:8])([H:9])[H:10]"
C       -2.45460414      -0.63948934       0.28923619
C       -1.35729711       0.06016162      -0.41058518
C       -0.75939872       1.19474928       0.31890568
O       -1.18631952       1.62164105       1.39884116
C        0.61924084       0.31785404       0.04859639
C        1.76973776      -0.01968808      -0.03164523
C        3.18272411      -0.34299877      -0.18236464
H       -2.52847332      -1.69260639       0.02885542
H       -3.37934160      -0.09059738       0.07726467
H       -2.39196381      -0.56842915       1.38071104
H       -1.02334982       1.68382724      -0.82614915
H       -1.16436897      -0.23911315      -1.43836413
H        3.72612385       0.47904647      -0.65602275
H        3.63251125      -0.52566232       0.79684861
H        3.31477917      -1.23869513      -0.79412810
15
Frame=9 idx=007306 GeodesicLength=0.9034391458797552 rxn_smarts="[C:1]([C:2]([C:3](=[O:4])[C:5]#[C:6][C:7]([H:13])([H:14])[H:15])([H:11])[H:12])([H:8])([H:9])[H:10]>>[C:1]([C@@:2]([C:3](=[O:4])[H:11])([C:5]#[C:6][C:7]([H:13])([H:14])[H:15])[H:12])([H:8])([H:9])[H:10]"
C       -2.45169002      -0.62865658       0.28983547
C       -1.34421728       0.07319159      -0.40191506
C       -0.75647172       1.20854617       0.33751085
O       -1.18865424       1.63495928       1.40979918
C        0.61483777       0.28641781       0.05965762
C        1.76767353      -0.04212217      -0.02721879
C        3.18380581      -0.34578417      -0.18939446
H       -2.48483048      -1.69176557       0.06301228
H       -3.38301669      -0.11607995       0.02597017
H       -2.43606626      -0.53360397       1.38025751
H       -1.04360705       1.66715122      -0.83559343
H       -1.15693285      -0.23387557      -1.42857185
H        3.71780792       0.49499467      -0.64046897
H        3.63732691      -0.55096737       0.78361294
H        3.32403463      -1.22240538      -0.82649345
15
Frame=10 idx=007306 GeodesicLength=1.0042071188934683 rxn_smarts="[C:1]([C:2]([C:3](=[O:4])[C:5]#[C:6][C:7]([H:13])([H:14])[H:15])([H:11])[H:12])([H:8])([H:9])[H:10]>>[C:1]([C@@:2]([C:3](=[O:4])[H:11])([C:5]#[C:6][C:7]([H:13])([H:14])[H:15])[H:12])([H:8])([H:9])[H:10]"
C       -2.44906277      -0.61714837       0.29272130
C       -1.33140439       0.08454785      -0.39363748
C       -0.75292336       1.22258114       0.35235090
O       -1.18943852       1.65125835       1.41658958
C        0.61001960       0.25355234       0.06925379
C        1.76500139      -0.06629506      -0.02486677
C        3.18474362      -0.34791798      -0.19599863
H       -2.44252500      -1.68892464       0.10562665
H       -3.38409959      -0.14425772      -0.02406095
H       -2.48069224      -0.49459493       1.37938815
H       -1.06412400       1.64844034      -0.84879843
H       -1.15028114      -0.23346659      -1.41843642
H        3.71189475       0.51786567      -0.60676922
H        3.63753618      -0.59219410       0.76852685
H        3.33535548      -1.19344631      -0.87188933
15
Frame=11 idx=007306 GeodesicLength=1.1048335613933293 rxn_smarts="[C:1]([C:2]([C:3](=[O:4])[C:5]#[C:6][C:7]([H:13])([H:14])[H:15])([H:11])[H:12])([H:8])([H:9])[H:10]>>[C:1]([C@@:2]([C:3](=[O:4])[H:11])([C:5]#[C:6][C:7]([H:13])([H:14])[H:15])[H:12])([H:8])([H:9])[H:10]"
C       -2.44580646      -0.60574718       0.29377111
C       -1.31819470       0.09728844      -0.38561572
C       -0.74922439       1.23637497       0.36891806
O       -1.19022432       1.66474266       1.42578172
C        0.60500008       0.22130925       0.07979764
C        1.76192983      -0.09006964      -0.02177327
C        3.18460331      -0.35048705      -0.20275575
H       -2.39953083      -1.68301309       0.14755894
H       -3.38188228      -0.17597888      -0.07461773
H       -2.52548531      -0.45743324       1.37377546
H       -1.08493213       1.63206213      -0.85811755
H       -1.14291002      -0.22995894      -1.40861482
H        3.70305052       0.53489909      -0.58246187
H        3.64021429      -0.62403739       0.75283477
H        3.34339242      -1.16995114      -0.90848098
15
Frame=12 idx=007306 GeodesicLength=1.2057322250613538 rxn_smarts="[C:1]([C:2]([C:3](=[O:4])[C:5]#[C:6][C:7]([H:13])([H:14])[H:15])([H:11])[H:12])([H:8])([H:9])[H:10]>>[C:1]([C@@:2]([C:3](=[O:4])[H:11])([C:5]#[C:6][C:7]([H:13])([H:14])[H:15])[H:12])([H:8])([H:9])[H:10]"
C       -2.44212009      -0.59439523       0.29524535
C       -1.30513517       0.11015925      -0.37834345
C       -0.74522152       1.25053273       0.38428808
O       -1.18979756       1.67822012       1.43458588
C        0.59966252       0.18935110       0.08827475
C        1.75833789      -0.11394210      -0.02092331
C        3.18390776      -0.35316996      -0.20903036
H       -2.35680329      -1.67470557       0.19326376
H       -3.37649313      -0.21133630      -0.12350025
H       -2.56960191      -0.41987193       1.36596345
H       -1.10706567       1.61650365      -0.86759774
H       -1.13646784      -0.22653770      -1.39968934
H        3.69472195       0.55137605      -0.55302674
H        3.64060975      -0.65904995       0.73641699
H        3.35146631      -1.14313414      -0.94592708
15
Frame=13 idx=007306 GeodesicLength=1.3066948648691685 rxn_smarts="[C:1]([C:2]([C:3](=[O:4])[C:5]#[C:6][C:7]([H:13])([H:14])[H:15])([H:11])[H:12])([H:8])([H:9])[H:10]>>[C:1]([C@@:2]([C:3](=[O:4])[H:11])([C:5]#[C:6][C:7]([H:13])([H:14])[H:15])[H:12])([H:8])([H:9])[H:10]"
C       -2.43812682      -0.58255753       0.29882515
C       -1.29252392       0.12188822      -0.37191400
C       -0.74079156       1.26514082       0.39551532
O       -1.18762815       1.69409387       1.43895592
C        0.59386900       0.15703511       0.09394128
C        1.75410784      -0.13842316      -0.02320400
C        3.18293432      -0.35545675      -0.21440806
H       -2.31507900      -1.66305709       0.24625609
H       -3.36817534      -0.25054608      -0.16856377
H       -2.61223203      -0.37945225       1.35706587
H       -1.13094234       1.59884346      -0.88062799
H       -1.13170238      -0.22671791      -1.39075371
H        3.68882238       0.57071704      -0.50482816
H        3.63614415      -0.70889429       0.71625012
H        3.36132385      -1.10261346      -0.99251006
15
Frame=14 idx=007306 GeodesicLength=1.4078737847709835 rxn_smarts="[C:1]([C:2]([C:3](=[O:4])[C:5]#[C:6][C:7]([H:13])([H:14])[H:15])([H:11])[H:12])([H:8])([H:9])[H:10]>>[C:1]([C@@:2]([C:3](=[O:4])[H:11])([C:5]#[C:6][C:7]([H:13])([H:14])[H:15])[H:12])([H:8])([H:9])[H:10]"
C       -2.43370510      -0.57096270       0.29981153
C       -1.27933789       0.13540326      -0.36581824
C       -0.73605288       1.27930151       0.40987687
O       -1.18560549       1.70624207       1.44766182
C        0.58779583       0.12478901       0.10068498
C        1.74945036      -0.16302214      -0.02421372
C        3.18088042      -0.35826845      -0.22010015
H       -2.27359041      -1.64814755       0.29679920
H       -3.35605308      -0.29267923      -0.21402508
H       -2.65520873      -0.34209182       1.34303186
H       -1.15467351       1.58446315      -0.88897349
H       -1.12597182      -0.22249147      -1.38283616
H        3.67888737       0.58377632      -0.47144881
H        3.63526725      -0.74461040       0.69704481
H        3.36791768      -1.07170155      -1.02749541
15
Frame=15 idx=007306 GeodesicLength=1.5092383671558298 rxn_smarts="[C:1]([C:2]([C:3](=[O:4])[C:5]#[C:6][C:7]([H:13])([H:14])[H:15])([H:11])[H:12])([H:8])([H:9])[H:10]>>[C:1]([C@@:2]([C:3](=[O:4])[H:11])([C:5]#[C:6][C:7]([H:13])([H:14])[H:15])[H:12])([H:8])([H:9])[H:10]"
C       -2.42881613      -0.55928129       0.30157985
C       -1.26633855       0.14874970      -0.36063026
C       -0.73106979       1.29393273       0.42203949
O       -1.18256316       1.71921136       1.45444486
C        0.58128622       0.09270275       0.10516571
C        1.74423622      -0.18768362      -0.02745493
C        3.17836663      -0.36108715      -0.22507551
H       -2.23305644      -1.62973346       0.35115925
H       -3.34064715      -0.33841919      -0.25567775
H       -2.69648134      -0.30434100       1.32702074
H       -1.18008127       1.56958081      -0.89876565
H       -1.12134119      -0.21934062      -1.37552416
H        3.66980004       0.59616851      -0.42866469
H        3.63176202      -0.78679051       0.67525134
H        3.37494388      -1.03366901      -1.06486830
15
Frame=16 idx=007306 GeodesicLength=1.6108388448365385 rxn_smarts="[C:1]([C:2]([C:3](=[O:4])[C:5]#[C:6][C:7]([H:13])([H:14])[H:15])([H:11])[H:12])([H:8])([H:9])[H:10]>>[C:1]([C@@:2]([C:3](=[O:4])[H:11])([C:5]#[C:6][C:7]([H:13])([H:14])[H:15])[H:12])([H:8])([H:9])[H:10]"
C       -2.42316294      -0.54780682       0.30321591
C       -1.25336083       0.16271134      -0.35632275
C       -0.72609420       1.30909310       0.43335478
O       -1.17915859       1.73189433       1.46091956
C        0.57435421       0.06139930       0.10790073
C        1.73851116      -0.21169509      -0.03216132
C        3.17517637      -0.36426086      -0.22952162
H       -2.19271034      -1.60769646       0.40733683
H       -3.32156319      -0.38791673      -0.29397147
H       -2.73612240      -0.26765474       1.30828870
H       -1.20725125       1.55528819      -0.90843223
H       -1.11736622      -0.21542361      -1.36906618
H        3.66070733       0.60559623      -0.38280681
H        3.62684454      -0.83030274       0.65172934
H        3.38119636      -0.99322545      -1.10046349
