13
Frame=0 idx=002261 GeodesicLength=0.0 rxn_smarts="[C:1]1([H:7])([H:8])[C:2]([H:9])=[C:3]([H:10])[C@@:4]2([H:11])[N:5]([H:12])[C@@:6]12[H:13]>>[C:1]1([H:7])([H:8])[C:2]([H:9])=[C:3]=[C:4]([H:11])[N:5]=[C:6]1[H:13].[H:10][H:12]"
C        0.59750442      -1.15214081       0.26015914
C        1.22190302      -0.08126221      -0.59895596
C        0.72236633       1.10531001      -0.29685352
C       -0.33668823       1.12580923       0.64613591
N       -1.45397833       0.49225883       0.10771722
C       -0.76727226      -0.55502661       0.65079122
H        1.15197017      -1.37483185       1.17519888
H        0.46829161      -2.10287229      -0.27285443
H        1.74232013      -0.32281248      -1.51653584
H       -0.37326613       1.33450281      -1.55015195
H       -0.46187448       1.81909829       1.46743112
H       -1.13116306       0.93802640      -1.33140438
H       -1.38011319      -1.22605931       1.25932256
13
Frame=1 idx=002261 GeodesicLength=0.06674091789352787 rxn_smarts="[C:1]1([H:7])([H:8])[C:2]([H:9])=[C:3]([H:10])[C@@:4]2([H:11])[N:5]([H:12])[C@@:6]12[H:13]>>[C:1]1([H:7])([H:8])[C:2]([H:9])=[C:3]=[C:4]([H:11])[N:5]=[C:6]1[H:13].[H:10][H:12]"
C        0.59336932      -1.15257773       0.25504193
C        1.22734509      -0.07782943      -0.59137961
C        0.72041713       1.10829759      -0.29835354
C       -0.33261230       1.12931033       0.65103615
N       -1.45571064       0.49237026       0.11606655
C       -0.76715857      -0.55438513       0.65612727
H        1.14890216      -1.38814157       1.16641675
H        0.45812500      -2.09593189      -0.28890593
H        1.76231625      -0.31620748      -1.50153396
H       -0.37365497       1.32745799      -1.56693267
H       -0.45892047       1.82787484       1.46749664
H       -1.14409807       0.92356874      -1.33253381
H       -1.37831992      -1.22380653       1.26745424
13
Frame=2 idx=002261 GeodesicLength=0.13351512755250386 rxn_smarts="[C:1]1([H:7])([H:8])[C:2]([H:9])=[C:3]([H:10])[C@@:4]2([H:11])[N:5]([H:12])[C@@:6]12[H:13]>>[C:1]1([H:7])([H:8])[C:2]([H:9])=[C:3]=[C:4]([H:11])[N:5]=[C:6]1[H:13].[H:10][H:12]"
C        0.58917718      -1.15293540       0.24979663
C        1.23280801      -0.07433606      -0.58362577
C        0.71841528       1.11127083      -0.29990059
C       -0.32845449       1.13285197       0.65598942
N       -1.45740787       0.49251351       0.12453396
C       -0.76699041      -0.55372004       0.66154255
H        1.14569168      -1.40163694       1.15729277
H        0.44780436      -2.08857361      -0.30525214
H        1.78235291      -0.30951472      -1.48604318
H       -0.37373721       1.32010260      -1.58404543
H       -0.45594452       1.83676730       1.46747702
H       -1.15731192       0.90878906      -1.33342829
H       -1.37640299      -1.22157849       1.27566306
13
Frame=3 idx=002261 GeodesicLength=0.2002429450522884 rxn_smarts="[C:1]1([H:7])([H:8])[C:2]([H:9])=[C:3]([H:10])[C@@:4]2([H:11])[N:5]([H:12])[C@@:6]12[H:13]>>[C:1]1([H:7])([H:8])[C:2]([H:9])=[C:3]=[C:4]([H:11])[N:5]=[C:6]1[H:13].[H:10][H:12]"
C        0.58494296      -1.15320193       0.24443737
C        1.23827345      -0.07079598      -0.57569510
C        0.71635715       1.11421542      -0.30147873
C       -0.32421864       1.13643073       0.66099318
N       -1.45905098       0.49268982       0.13311026
C       -0.76675746      -0.55303153       0.66701382
H        1.14233157      -1.41526476       1.14783561
H        0.43738453      -2.08079727      -0.32183826
H        1.80230461      -0.30277725      -1.47010805
H       -0.37346398       1.31247411      -1.60146880
H       -0.45295845       1.84575680       1.46737609
H       -1.17078488       0.89368788      -1.33406060
H       -1.37435989      -1.21938604       1.28388323
13
Frame=4 idx=002261 GeodesicLength=0.26699544471363645 rxn_smarts="[C:1]1([H:7])([H:8])[C:2]([H:9])=[C:3]([H:10])[C@@:4]2([H:11])[N:5]([H:12])[C@@:6]12[H:13]>>[C:1]1([H:7])([H:8])[C:2]([H:9])=[C:3]=[C:4]([H:11])[N:5]=[C:6]1[H:13].[H:10][H:12]"
C        0.58067340      -1.15337840       0.23897854
C        1.24374868      -0.06720730      -0.56759033
C        0.71426058       1.11713194      -0.30308418
C       -0.31990208       1.14004201       0.66605016
N       -1.46065184       0.49289132       0.14178826
C       -0.76646823      -0.55233327       0.67254357
H        1.13883536      -1.42901615       1.13806347
H        0.42687594      -2.07260216      -0.33863487
H        1.82212986      -0.29599289      -1.45376874
H       -0.37278716       1.30460504      -1.61922934
H       -0.44996218       1.85483336       1.46719919
H       -1.18454335       0.87827929      -1.33443720
H       -1.37220898      -1.21725278       1.29212146
13
Frame=5 idx=002261 GeodesicLength=0.3337504066530448 rxn_smarts="[C:1]1([H:7])([H:8])[C:2]([H:9])=[C:3]([H:10])[C@@:4]2([H:11])[N:5]([H:12])[C@@:6]12[H:13]>>[C:1]1([H:7])([H:8])[C:2]([H:9])=[C:3]=[C:4]([H:11])[N:5]=[C:6]1[H:13].[H:10][H:12]"
C        0.57636991      -1.15346012       0.23342081
C        1.24922227      -0.06357481      -0.55931052
C        0.71212272       1.12001314      -0.30470992
C       -0.31550760       1.14368482       0.67115894
N       -1.46220597       0.49311361       0.15056843
C       -0.76611839      -0.55162710       0.67812724
H        1.13519872      -1.44287501       1.12796608
H        0.41628952      -2.06397883      -0.35562835
H        1.84179446      -0.28917350      -1.43703544
H       -0.37166095       1.29651407      -1.63732983
H       -0.44696367       1.86399400       1.46694175
H       -1.19859854       0.86255015      -1.33453918
H       -1.36994247      -1.21518041       1.30037000
13
Frame=6 idx=002261 GeodesicLength=0.40050657095963427 rxn_smarts="[C:1]1([H:7])([H:8])[C:2]([H:9])=[C:3]([H:10])[C@@:4]2([H:11])[N:5]([H:12])[C@@:6]12[H:13]>>[C:1]1([H:7])([H:8])[C:2]([H:9])=[C:3]=[C:4]([H:11])[N:5]=[C:6]1[H:13].[H:10][H:12]"
C        0.57203432      -1.15344451       0.22776706
C        1.25468505      -0.05990268      -0.55085724
C        0.70994394       1.12285310      -0.30635072
C       -0.31103772       1.14735731       0.67631815
N       -1.46371406       0.49335173       0.15945125
C       -0.76570678      -0.55091742       0.68376247
H        1.13142154      -1.45682784       1.11753816
H        0.40563475      -2.05492048      -0.37280219
H        1.86127060      -0.28232704      -1.41992258
H       -0.37003512       1.28822608      -1.65578186
H       -0.44396890       1.87323380       1.46660035
H       -1.21297062       0.84649221      -1.33435045
H       -1.36755701      -1.21317427       1.30862761
13
Frame=7 idx=002261 GeodesicLength=0.4672634024367046 rxn_smarts="[C:1]1([H:7])([H:8])[C:2]([H:9])=[C:3]([H:10])[C@@:4]2([H:11])[N:5]([H:12])[C@@:6]12[H:13]>>[C:1]1([H:7])([H:8])[C:2]([H:9])=[C:3]=[C:4]([H:11])[N:5]=[C:6]1[H:13].[H:10][H:12]"
C        0.56766879      -1.15332922       0.22202132
C        1.26012678      -0.05619569      -0.54223418
C        0.70772540       1.12564590      -0.30800020
C       -0.30649585       1.15105742       0.68152636
N       -1.46517742       0.49359966       0.16843665
C       -0.76523277      -0.55020940       0.68944691
H        1.12750515      -1.47085826       1.10677649
H        0.39492182      -2.04542307      -0.39013615
H        1.88052690      -0.27546278      -1.40245024
H       -0.36785322       1.27977486      -1.67459752
H       -0.44098477       1.88254684       1.46617250
H       -1.22768094       0.83009410      -1.33385546
H       -1.36504988      -1.21124036       1.31689352
13
Frame=8 idx=002261 GeodesicLength=0.5340217072012271 rxn_smarts="[C:1]1([H:7])([H:8])[C:2]([H:9])=[C:3]([H:10])[C@@:4]2([H:11])[N:5]([H:12])[C@@:6]12[H:13]>>[C:1]1([H:7])([H:8])[C:2]([H:9])=[C:3]=[C:4]([H:11])[N:5]=[C:6]1[H:13].[H:10][H:12]"
C        0.56327454      -1.15311244       0.21618707
C        1.26553587      -0.05245902      -0.53344652
C        0.70546732       1.12838560      -0.30965242
C       -0.30188619       1.15478308       0.68678181
N       -1.46659838       0.49385085       0.17752594
C       -0.76469599      -0.54950839       0.69517892
H        1.12345109      -1.48495004       1.09567708
H        0.38415941      -2.03548361      -0.40761041
H        1.89953665      -0.26858916      -1.38463765
H       -0.36505267       1.27119752      -1.69379262
H       -0.43801845       1.89192733       1.46565518
H       -1.24275597       0.81334239      -1.33303615
H       -1.36241724      -1.20938411       1.32516976
13
Frame=9 idx=002261 GeodesicLength=0.6007830585739464 rxn_smarts="[C:1]1([H:7])([H:8])[C:2]([H:9])=[C:3]([H:10])[C@@:4]2([H:11])[N:5]([H:12])[C@@:6]12[H:13]>>[C:1]1([H:7])([H:8])[C:2]([H:9])=[C:3]=[C:4]([H:11])[N:5]=[C:6]1[H:13].[H:10][H:12]"
C        0.55885280      -1.15279276       0.21026867
C        1.27089949      -0.04869835      -0.52450178
C        0.70317015       1.13106658      -0.31130085
C       -0.29721387       1.15853217       0.69208249
N       -1.46798013       0.49409779       0.18672045
C       -0.76409654      -0.54882042       0.70095726
H        1.11926209      -1.49908479       1.08423790
H        0.37335613      -2.02510205      -0.42520207
H        1.91827106      -0.26171544      -1.36650851
H       -0.36156327       1.26254088      -1.71338520
H       -0.43507762       1.90136867       1.46504621
H       -1.25822485       0.79621927      -1.33187404
H       -1.35965544      -1.20761155       1.33345945
13
Frame=10 idx=002261 GeodesicLength=0.6675688386039136 rxn_smarts="[C:1]1([H:7])([H:8])[C:2]([H:9])=[C:3]([H:10])[C@@:4]2([H:11])[N:5]([H:12])[C@@:6]12[H:13]>>[C:1]1([H:7])([H:8])[C:2]([H:9])=[C:3]=[C:4]([H:11])[N:5]=[C:6]1[H:13].[H:10][H:12]"
C        0.55440229      -1.15237084       0.20427036
C        1.27620533      -0.04491675      -0.51541067
C        0.70083547       1.13368753      -0.31294164
C       -0.29248327       1.16230471       0.69742834
N       -1.46932863       0.49433027       0.19602428
C       -0.76343663      -0.54815456       0.70678474
H        1.11493992      -1.51324655       1.07246002
H        0.36251492      -2.01428281      -0.44289164
H        1.93671168      -0.25484537      -1.34808758
H       -0.35730590       1.25385766      -1.73340610
H       -0.43216738       1.91086860       1.46434742
H       -1.27412488       0.77870201      -1.33035224
H       -1.35676291      -1.20593388       1.34177470
13
Frame=11 idx=002261 GeodesicLength=0.7343138054896167 rxn_smarts="[C:1]1([H:7])([H:8])[C:2]([H:9])=[C:3]([H:10])[C@@:4]2([H:11])[N:5]([H:12])[C@@:6]12[H:13]>>[C:1]1([H:7])([H:8])[C:2]([H:9])=[C:3]=[C:4]([H:11])[N:5]=[C:6]1[H:13].[H:10][H:12]"
C        0.54992908      -1.15184113       0.19819705
C        1.28143252      -0.04113119      -0.50618249
C        0.69845866       1.13622866      -0.31455677
C       -0.28770790       1.16609058       0.70281059
N       -1.47064196       0.49454369       0.20543301
C       -0.76271101      -0.54750880       0.71265199
H        1.11049734      -1.52740235       1.06033245
H        0.35165428      -2.00302407      -0.46063742
H        1.95479680      -0.24800906      -1.32940986
H       -0.35218981       1.24522638      -1.75383910
H       -0.42931176       1.92040881       1.46353968
H       -1.29048090       0.76075722      -1.32844207
H       -1.35372534      -1.20433873       1.35010294
13
Frame=12 idx=002261 GeodesicLength=0.8010828871637332 rxn_smarts="[C:1]1([H:7])([H:8])[C:2]([H:9])=[C:3]([H:10])[C@@:4]2([H:11])[N:5]([H:12])[C@@:6]12[H:13]>>[C:1]1([H:7])([H:8])[C:2]([H:9])=[C:3]=[C:4]([H:11])[N:5]=[C:6]1[H:13].[H:10][H:12]"
C        0.54540765      -1.15120990       0.19201998
C        1.28656987      -0.03733097      -0.49682062
C        0.69601935       1.13870057      -0.31617407
C       -0.28289226       1.16990504       0.70822406
N       -1.47193856       0.49472695       0.21498110
C       -0.76191905      -0.54688832       0.71858539
H        1.10590952      -1.54159659       1.04780513
H        0.34072131      -1.99129900      -0.47850270
H        1.97265197      -0.24117065      -1.31038661
H       -0.34613962       1.23663689      -1.77477306
H       -0.42649770       1.93001327       1.46261921
H       -1.30738125       0.74233580      -1.32610255
H       -1.35051122      -1.20282310       1.35852472
13
Frame=13 idx=002261 GeodesicLength=0.867854780676127 rxn_smarts="[C:1]1([H:7])([H:8])[C:2]([H:9])=[C:3]([H:10])[C@@:4]2([H:11])[N:5]([H:12])[C@@:6]12[H:13]>>[C:1]1([H:7])([H:8])[C:2]([H:9])=[C:3]=[C:4]([H:11])[N:5]=[C:6]1[H:13].[H:10][H:12]"
C        0.54085455      -1.15047327       0.18577109
C        1.29159570      -0.03353526      -0.48735122
C        0.69353009       1.14108862      -0.31776646
C       -0.27804622       1.17373279       0.71366710
N       -1.47321897       0.49486771       0.22465300
C       -0.76106457      -0.54630520       0.72456963
H        1.10120414      -1.55575583       1.03492162
H        0.32976209      -1.97914317      -0.49638982
H        1.99013798      -0.23436922      -1.29113715
H       -0.33901918       1.22823301      -1.79621364
H       -0.42374659       1.93964953       1.46158858
H       -1.32485309       0.72341689      -1.32331291
H       -1.34713593      -1.20140661       1.36700018
13
Frame=14 idx=002261 GeodesicLength=0.9346346355660466 rxn_smarts="[C:1]1([H:7])([H:8])[C:2]([H:9])=[C:3]([H:10])[C@@:4]2([H:11])[N:5]([H:12])[C@@:6]12[H:13]>>[C:1]1([H:7])([H:8])[C:2]([H:9])=[C:3]=[C:4]([H:11])[N:5]=[C:6]1[H:13].[H:10][H:12]"
C        0.53626567      -1.14963360       0.17945346
C        1.29648991      -0.02975027      -0.47779643
C        0.69098544       1.14339108      -0.31933102
C       -0.27318197       1.17757530       0.71913592
N       -1.47449184       0.49495221       0.23445763
C       -0.76014888      -0.54576810       0.73061171
H        1.09638596      -1.56985824       1.02168156
H        0.31877383      -1.96657244      -0.51427239
H        2.00723249      -0.22761463      -1.27169544
H       -0.33069421       1.22011664      -1.81820049
H       -0.42107076       1.94931545       1.46044769
H       -1.34295562       0.70394322      -1.32004320
H       -1.34359002      -1.20009661       1.37555099
13
Frame=15 idx=002261 GeodesicLength=1.0014190465816177 rxn_smarts="[C:1]1([H:7])([H:8])[C:2]([H:9])=[C:3]([H:10])[C@@:4]2([H:11])[N:5]([H:12])[C@@:6]12[H:13]>>[C:1]1([H:7])([H:8])[C:2]([H:9])=[C:3]=[C:4]([H:11])[N:5]=[C:6]1[H:13].[H:10][H:12]"
C        0.53163399      -1.14869163       0.17306520
C        1.30123041      -0.02598372      -0.46817514
C        0.68837231       1.14560126      -0.32086936
C       -0.26831303       1.18143091       0.72462219
N       -1.47576805       0.49496759       0.24440927
C       -0.75917057      -0.54528220       0.73671971
H        1.09145921      -1.58388860       1.00807306
H        0.30774678      -1.95359171      -0.53213224
H        2.02392769      -0.22091359      -1.25207372
H       -0.32101473       1.21238516      -1.84078341
H       -0.41848178       1.95900565       1.45918584
H       -1.36176781       0.68385325      -1.31624452
H       -1.33985440      -1.19889238       1.38420314
13
Frame=16 idx=002261 GeodesicLength=1.0682091566911487 rxn_smarts="[C:1]1([H:7])([H:8])[C:2]([H:9])=[C:3]([H:10])[C@@:4]2([H:11])[N:5]([H:12])[C@@:6]12[H:13]>>[C:1]1([H:7])([H:8])[C:2]([H:9])=[C:3]=[C:4]([H:11])[N:5]=[C:6]1[H:13].[H:10][H:12]"
C        0.52695069      -1.14764902       0.16660451
C        1.30579375      -0.02224253      -0.45851019
C        0.68567552       1.14771408      -0.32238551
C       -0.26345489       1.18529942       0.73011700
N       -1.47706037       0.49489825       0.25452476
C       -0.75812849      -0.54485403       0.74290522
H        1.08642838      -1.59783086       0.99408550
H        0.29666692      -1.94021021      -0.54995009
H        2.04021307      -0.21427260      -1.23228937
H       -0.30980415       1.20515514      -1.86402102
H       -0.41599255       1.96871682       1.45779329
H       -1.38137920       0.66307094      -1.31186280
H       -1.33590868      -1.19779539       1.39298870
