13
Frame=0 idx=008361 GeodesicLength=0.0 rxn_smarts="[C:1](#[C:2][C:3]1=[C:4]([H:9])[C:5]([H:10])([H:11])[O:6][C:7]1([H:12])[H:13])[H:8]>>[C:1](#[C:2][C@@:4]1([H:9])[C:3][C:7]([H:12])([H:13])[O:6][C:5]1([H:10])[H:11])[H:8]"
C        2.12643996       0.00129504       1.20491270
C        1.34839704       0.20048590       0.30290504
C        0.53906926      -0.45064788      -1.04949135
C        0.21203721       0.84497783      -0.51705269
C       -1.14840701       0.82268420       0.16316013
O       -1.40917295      -0.54428658       0.35913869
C       -0.59561740      -1.29309099      -0.55491134
H        2.84990604      -0.20094241       1.96077032
H        0.60277340       1.76167552      -0.94961240
H       -1.17626020       1.33654395       1.12485708
H       -1.88127952       1.28891135      -0.51127276
H       -1.16891365      -1.54419502      -1.46120692
H       -0.29897216      -2.22341088      -0.07219656
13
Frame=1 idx=008361 GeodesicLength=0.05981831287410878 rxn_smarts="[C:1](#[C:2][C:3]1=[C:4]([H:9])[C:5]([H:10])([H:11])[O:6][C:7]1([H:12])[H:13])[H:8]>>[C:1](#[C:2][C@@:4]1([H:9])[C:3][C:7]([H:12])([H:13])[O:6][C:5]1([H:10])[H:11])[H:8]"
C        2.14569625      -0.00459518       1.20855757
C        1.35957090       0.19603419       0.31453236
C        0.53685361      -0.44731893      -1.03617848
C        0.20790634       0.84805296      -0.50943567
C       -1.15912051       0.82484491       0.15623029
O       -1.42595997      -0.54217947       0.34673920
C       -0.59921822      -1.29205812      -0.55234264
H        2.88365204      -0.20672928       1.95024020
H        0.59810681       1.76388521      -0.94405605
H       -1.19525020       1.33690668       1.11876730
H       -1.88656975       1.29231292      -0.52307242
H       -1.15831977      -1.54819930      -1.46642284
H       -0.30734753      -2.22095659      -0.06355881
13
Frame=2 idx=008361 GeodesicLength=0.11952315930920478 rxn_smarts="[C:1](#[C:2][C:3]1=[C:4]([H:9])[C:5]([H:10])([H:11])[O:6][C:7]1([H:12])[H:13])[H:8]>>[C:1](#[C:2][C@@:4]1([H:9])[C:3][C:7]([H:12])([H:13])[O:6][C:5]1([H:10])[H:11])[H:8]"
C        2.16620393      -0.00981099       1.21081082
C        1.37129917       0.19195351       0.32547759
C        0.53451738      -0.44368253      -1.02293279
C        0.20350313       0.85141991      -0.50198256
C       -1.16982786       0.82703174       0.14934198
O       -1.44232853      -0.54007996       0.33439636
C       -0.60252822      -1.29093453      -0.54948322
H        2.91497623      -0.21447667       1.94080321
H        0.59291063       1.76638121      -0.93889731
H       -1.21411082       1.33731141       1.11264318
H       -1.89205696       1.29554950      -0.53466683
H       -1.14736774      -1.55244680      -1.47098348
H       -0.31519033      -2.21821581      -0.05452695
13
Frame=3 idx=008361 GeodesicLength=0.1792369664285218 rxn_smarts="[C:1](#[C:2][C:3]1=[C:4]([H:9])[C:5]([H:10])([H:11])[O:6][C:7]1([H:12])[H:13])[H:8]>>[C:1](#[C:2][C@@:4]1([H:9])[C:3][C:7]([H:12])([H:13])[O:6][C:5]1([H:10])[H:11])[H:8]"
C        2.18666279      -0.01583093       1.21357796
C        1.38289413       0.18727397       0.33723965
C        0.53216901      -0.44010598      -1.00900933
C        0.19900957       0.85471981      -0.49393178
C       -1.18086169       0.82924631       0.14216713
O       -1.45926377      -0.53792686       0.32126630
C       -0.60611064      -1.28977585      -0.54664740
H        2.94834994      -0.22090283       1.92988145
H        0.58804257       1.76875535      -0.93287505
H       -1.23375511       1.33756813       1.10622555
H       -1.89735873       1.29903689      -0.54685062
H       -1.13598034      -1.55661488      -1.47567342
H       -0.32379772      -2.21544314      -0.04537044
13
Frame=4 idx=008361 GeodesicLength=0.23892330331143394 rxn_smarts="[C:1](#[C:2][C:3]1=[C:4]([H:9])[C:5]([H:10])([H:11])[O:6][C:7]1([H:12])[H:13])[H:8]>>[C:1](#[C:2][C@@:4]1([H:9])[C:3][C:7]([H:12])([H:13])[O:6][C:5]1([H:10])[H:11])[H:8]"
C        2.20770848      -0.02179209       1.21598431
C        1.39465327       0.18254299       0.34919893
C        0.52978286      -0.43637131      -0.99467124
C        0.19430089       0.85816773      -0.48560187
C       -1.19212934       0.83150294       0.13480298
O       -1.47631656      -0.53573835       0.30769973
C       -0.60965261      -1.28854151      -0.54362628
H        2.98178175      -0.22800215       1.91847896
H        0.58304932       1.77124722      -0.92655191
H       -1.25390548       1.33780648       1.09955328
H       -1.90268742       1.30254962      -0.55936144
H       -1.12407071      -1.56090385      -1.48005791
H       -0.33251445      -2.21246772      -0.03584754
13
Frame=5 idx=008361 GeodesicLength=0.2986096500768906 rxn_smarts="[C:1](#[C:2][C:3]1=[C:4]([H:9])[C:5]([H:10])([H:11])[O:6][C:7]1([H:12])[H:13])[H:8]>>[C:1](#[C:2][C@@:4]1([H:9])[C:3][C:7]([H:12])([H:13])[O:6][C:5]1([H:10])[H:11])[H:8]"
C        2.22900072      -0.02812174       1.21854849
C        1.40638598       0.17747471       0.36179422
C        0.52737970      -0.43257954      -0.97968971
C        0.18942270       0.86166414      -0.47676039
C       -1.20371341       0.83380382       0.12715125
O       -1.49373878      -0.53349398       0.29343931
C       -0.61330905      -1.28724547      -0.54049698
H        3.01644595      -0.23484434       1.90580637
H        0.57817019       1.77374414      -0.91955336
H       -1.27482078       1.33797326       1.09253512
H       -1.90791058       1.30620582      -0.57242634
H       -1.11159734      -1.56522552      -1.48432243
H       -0.34171530      -2.20935531      -0.02602555
13
Frame=6 idx=008361 GeodesicLength=0.35827618209917345 rxn_smarts="[C:1](#[C:2][C:3]1=[C:4]([H:9])[C:5]([H:10])([H:11])[O:6][C:7]1([H:12])[H:13])[H:8]>>[C:1](#[C:2][C@@:4]1([H:9])[C:3][C:7]([H:12])([H:13])[O:6][C:5]1([H:10])[H:11])[H:8]"
C        2.25082301      -0.03450152       1.22087104
C        1.41821756       0.17226615       0.37477967
C        0.52494037      -0.42864068      -0.96415981
C        0.18432316       0.86529235      -0.46751428
C       -1.21557326       0.83614845       0.11925010
O       -1.51134760      -0.53120922       0.27860330
C       -0.61696226      -1.28587017      -0.53717928
H        3.05152251      -0.24215978       1.89228087
H        0.57322889       1.77634094      -0.91207390
H       -1.29639684       1.33810212       1.08518305
H       -1.91309551       1.30991966      -0.58593946
H       -1.09851912      -1.56965122      -1.48828539
H       -0.35116092      -2.20603708      -0.01581590
13
Frame=7 idx=008361 GeodesicLength=0.41793362824148045 rxn_smarts="[C:1](#[C:2][C:3]1=[C:4]([H:9])[C:5]([H:10])([H:11])[O:6][C:7]1([H:12])[H:13])[H:8]>>[C:1](#[C:2][C@@:4]1([H:9])[C:3][C:7]([H:12])([H:13])[O:6][C:5]1([H:10])[H:11])[H:8]"
C        2.27309131      -0.04105209       1.22309916
C        1.43008132       0.16682529       0.38832973
C        0.52246850      -0.42457896      -0.94797510
C        0.17900599       0.86902693      -0.45776208
C       -1.22774155       0.83853926       0.11105211
O       -1.52921565      -0.52887644       0.26307950
C       -0.62065648      -1.28441671      -0.53368307
H        3.08737763      -0.24969887       1.87757686
H        0.56829613       1.77900867      -0.90396202
H       -1.31875186       1.33817718       1.07743900
H       -1.91818479       1.31372745      -0.59999945
H       -1.08478791      -1.57415877      -1.49197625
H       -0.36098264      -2.20252295      -0.00521839
13
Frame=8 idx=008361 GeodesicLength=0.4775778603565254 rxn_smarts="[C:1](#[C:2][C:3]1=[C:4]([H:9])[C:5]([H:10])([H:11])[O:6][C:7]1([H:12])[H:13])[H:8]>>[C:1](#[C:2][C@@:4]1([H:9])[C:3][C:7]([H:12])([H:13])[O:6][C:5]1([H:10])[H:11])[H:8]"
C        2.29590512      -0.04757755       1.22510949
C        1.44200519       0.16126056       0.40241551
C        0.51996659      -0.42033947      -0.93111539
C        0.17343200       0.87291828      -0.44751006
C       -1.24022982       0.84097889       0.10253920
O       -1.54727651      -0.52650240       0.24687544
C       -0.62432931      -1.28287128      -0.52995074
H        3.12377462      -0.25791896       1.86170240
H        0.56328905       1.78180256      -0.89525376
H       -1.34192385       1.33822001       1.06925695
H       -1.92320257       1.31758333      -0.61462636
H       -1.07032250      -1.57878933      -1.49529082
H       -0.37108800      -2.19876465       0.00584814
13
Frame=9 idx=008361 GeodesicLength=0.5372482591971325 rxn_smarts="[C:1](#[C:2][C:3]1=[C:4]([H:9])[C:5]([H:10])([H:11])[O:6][C:7]1([H:12])[H:13])[H:8]>>[C:1](#[C:2][C@@:4]1([H:9])[C:3][C:7]([H:12])([H:13])[O:6][C:5]1([H:10])[H:11])[H:8]"
C        2.31886272      -0.05496936       1.22754340
C        1.45372216       0.15497309       0.41765606
C        0.51741486      -0.41614032      -0.91329051
C        0.16770677       0.87675425      -0.43640375
C       -1.25307229       0.84346863       0.09361537
O       -1.56586513      -0.52404149       0.22960445
C       -0.62827333      -1.28127362      -0.52614649
H        3.16218115      -0.26481799       1.84362262
H        0.55863228       1.78449020      -0.88535869
H       -1.36614987       1.33812239       1.06055605
H       -1.92785564       1.32172311      -0.63004831
H       -1.05516874      -1.58337516      -1.49852514
H       -0.38213493      -2.19491373       0.01717494
13
Frame=10 idx=008361 GeodesicLength=0.5969034916928019 rxn_smarts="[C:1](#[C:2][C:3]1=[C:4]([H:9])[C:5]([H:10])([H:11])[O:6][C:7]1([H:12])[H:13])[H:8]>>[C:1](#[C:2][C@@:4]1([H:9])[C:3][C:7]([H:12])([H:13])[O:6][C:5]1([H:10])[H:11])[H:8]"
C        2.34247127      -0.06231973       1.22963193
C        1.46549571       0.14852608       0.43351481
C        0.51481090      -0.41174389      -0.89470223
C        0.16169452       0.88075641      -0.42470679
C       -1.26622848       0.84600350       0.08434376
O       -1.58459327      -0.52154450       0.21156092
C       -0.63218578      -1.27957680      -0.52207536
H        3.20098250      -0.27242223       1.82421364
H        0.55388613       1.78731975      -0.87475230
H       -1.39126315       1.33797443       1.05134142
H       -1.93236459       1.32591129      -0.64607965
H       -1.03919241      -1.58808766      -1.50128958
H       -0.39351334      -2.19079664       0.02899944
13
Frame=11 idx=008361 GeodesicLength=0.6565430774346738 rxn_smarts="[C:1](#[C:2][C:3]1=[C:4]([H:9])[C:5]([H:10])([H:11])[O:6][C:7]1([H:12])[H:13])[H:8]>>[C:1](#[C:2][C@@:4]1([H:9])[C:3][C:7]([H:12])([H:13])[O:6][C:5]1([H:10])[H:11])[H:8]"
C        2.36670020      -0.07000288       1.23135828
C        1.47730161       0.14165042       0.45007247
C        0.51210400      -0.40723749      -0.87531237
C        0.15543317       0.88483442      -0.41231653
C       -1.27965330       0.84857421       0.07473215
O       -1.60350565      -0.51900367       0.19263607
C       -0.63618628      -1.27779830      -0.51781425
H        3.24039662      -0.27983813       1.80344527
H        0.54918307       1.79019706      -0.86325581
H       -1.41723593       1.33771118       1.04162432
H       -1.93659466       1.33024048      -0.66270178
H       -1.02247958      -1.59284805      -1.50365632
H       -0.40546324      -2.18647925       0.04118850
13
Frame=12 idx=008361 GeodesicLength=0.7161678930526819 rxn_smarts="[C:1](#[C:2][C:3]1=[C:4]([H:9])[C:5]([H:10])([H:11])[O:6][C:7]1([H:12])[H:13])[H:8]>>[C:1](#[C:2][C@@:4]1([H:9])[C:3][C:7]([H:12])([H:13])[O:6][C:5]1([H:10])[H:11])[H:8]"
C        2.39155958      -0.07791092       1.23270918
C        1.48912687       0.13437465       0.46740808
C        0.50929778      -0.40259467      -0.85503838
C        0.14889222       0.88901080      -0.39917397
C       -1.29336279       0.85118308       0.06474007
O       -1.62256972      -0.51642015       0.17277374
C       -0.64024667      -1.27592984      -0.51332212
H        3.28040201      -0.28728717       1.78111064
H        0.54449485       1.79314749      -0.85080282
H       -1.44415354       1.33733983       1.03132674
H       -1.94051611       1.33469390      -0.67997991
H       -1.00493755      -1.59767390      -1.50555009
H       -0.41798693      -2.18193310       0.05379884
13
Frame=13 idx=008361 GeodesicLength=0.7757497868481538 rxn_smarts="[C:1](#[C:2][C:3]1=[C:4]([H:9])[C:5]([H:10])([H:11])[O:6][C:7]1([H:12])[H:13])[H:8]>>[C:1](#[C:2][C@@:4]1([H:9])[C:3][C:7]([H:12])([H:13])[O:6][C:5]1([H:10])[H:11])[H:8]"
C        2.41730999      -0.08522057       1.23324311
C        1.50115458       0.12719686       0.48519088
C        0.50641956      -0.39759972      -0.83396403
C        0.14194517       0.89348106      -0.38543923
C       -1.30737458       0.85381740       0.05437429
O       -1.64151365      -0.51385476       0.15215848
C       -0.64411327      -1.27392486      -0.50843104
H        3.32001053      -0.29657537       1.75764530
H        0.53946995       1.79638914      -0.83770537
H       -1.47199985       1.33691740       1.02039778
H       -1.94431428       1.33906704      -0.69785714
H       -0.98638102      -1.60268945      -1.50666699
H       -0.43061313      -2.17700417       0.06705396
13
Frame=14 idx=008361 GeodesicLength=0.835304815634219 rxn_smarts="[C:1](#[C:2][C:3]1=[C:4]([H:9])[C:5]([H:10])([H:11])[O:6][C:7]1([H:12])[H:13])[H:8]>>[C:1](#[C:2][C@@:4]1([H:9])[C:3][C:7]([H:12])([H:13])[O:6][C:5]1([H:10])[H:11])[H:8]"
C        2.44352821      -0.09367558       1.23338627
C        1.51318095       0.11894710       0.50385684
C        0.50330963      -0.39270702      -0.81194388
C        0.13481735       0.89781678      -0.37074050
C       -1.32152640       0.85648211       0.04366239
O       -1.66067696      -0.51120160       0.13038619
C       -0.64833299      -1.27187973      -0.50349047
H        3.36067074      -0.30368739       1.73260025
H        0.53477595       1.79945461      -0.82327682
H       -1.50064683       1.33626048       1.00892415
H       -1.94746444       1.34379817      -0.71630220
H       -0.96725277      -1.60759587      -1.50746608
H       -0.44438243      -2.17201205       0.08040385
13
Frame=15 idx=008361 GeodesicLength=0.89480695526673 rxn_smarts="[C:1](#[C:2][C:3]1=[C:4]([H:9])[C:5]([H:10])([H:11])[O:6][C:7]1([H:12])[H:13])[H:8]>>[C:1](#[C:2][C@@:4]1([H:9])[C:3][C:7]([H:12])([H:13])[O:6][C:5]1([H:10])[H:11])[H:8]"
C        2.47041392      -0.10230536       1.23277659
C        1.52539534       0.11021720       0.52307259
C        0.50001664      -0.38766205      -0.78903853
C        0.12735479       0.90225036      -0.35524187
C       -1.33586107       0.85916617       0.03259244
O       -1.67976275      -0.50852685       0.10764781
C       -0.65260256      -1.26973964      -0.49830300
H        3.40140348      -0.31077700       1.70629494
H        0.53000703       1.80260439      -0.80784583
H       -1.53012969       1.33544232       0.99682115
H       -1.95018526       1.34864839      -0.73528967
H       -0.94730125      -1.61254344      -1.50760750
H       -0.45874862      -2.16677451       0.09412088
13
Frame=16 idx=008361 GeodesicLength=0.954228941652743 rxn_smarts="[C:1](#[C:2][C:3]1=[C:4]([H:9])[C:5]([H:10])([H:11])[O:6][C:7]1([H:12])[H:13])[H:8]>>[C:1](#[C:2][C@@:4]1([H:9])[C:3][C:7]([H:12])([H:13])[O:6][C:5]1([H:10])[H:11])[H:8]"
C        2.49808828      -0.11039125       1.23112131
C        1.53797677       0.10144586       0.54252590
C        0.49656532      -0.38226848      -0.76531010
C        0.11943817       0.90695313      -0.33906711
C       -1.35040149       0.86184826       0.02116560
O       -1.69853510      -0.50589794       0.08409042
C       -0.65670435      -1.26746028      -0.49273453
H        3.44148030      -0.31941243       1.67906112
H        0.52485390       1.80603400      -0.79165368
H       -1.56045397       1.33448846       0.98403664
H       -1.95263657       1.35343633      -0.75477823
H       -0.92635828      -1.61761897      -1.50683928
H       -0.47331297      -2.16115671       0.10838194
