14
Frame=0 idx=007280 GeodesicLength=0.0 rxn_smarts="[O:1]([C@@:2]1([H:9])[C:3]([H:10])([H:11])[N:4]([H:12])[C:5]([H:13])([H:14])[C:6]1=[O:7])[H:8]>>[C:5](=[C:6]=[O:7])([H:13])[H:14].[O:1](/[C:2](=[C:3](/[N:4]([H:10])[H:12])[H:11])[H:9])[H:8]"
O        2.15654417      -0.22307412       0.63421273
C        0.80197364       0.00753436       0.65347327
C        0.35808053       1.15320423      -0.10374087
N       -1.00974356       1.31746996      -0.08046317
C       -1.36630812      -1.13058596      -0.18137236
C        0.01058275      -1.20508268      -0.20630510
O        0.82839870      -1.89379931      -0.79878894
H        2.25574005      -0.97085364       0.01329779
H        0.35485554      -0.06913004       1.65140120
H       -0.23450852       2.13189559       0.52902247
H        0.97131476       1.46547739      -0.94936374
H       -1.30982693       1.85473743      -0.89886652
H       -1.91916632      -1.64876918      -0.95298174
H       -1.89793664      -0.78902401       0.69047496
14
Frame=1 idx=007280 GeodesicLength=0.08513092653357889 rxn_smarts="[O:1]([C@@:2]1([H:9])[C:3]([H:10])([H:11])[N:4]([H:12])[C:5]([H:13])([H:14])[C:6]1=[O:7])[H:8]>>[C:5](=[C:6]=[O:7])([H:13])[H:14].[O:1](/[C:2](=[C:3](/[N:4]([H:10])[H:12])[H:11])[H:9])[H:8]"
O        2.16801962      -0.21606865       0.63301297
C        0.81325912       0.01455062       0.65960326
C        0.35985859       1.15282711      -0.10057756
N       -1.01268326       1.30602852      -0.07957731
C       -1.37030174      -1.11201367      -0.19795506
C        0.00647198      -1.21854353      -0.20262090
O        0.82029918      -1.91986140      -0.78028898
H        2.26858303      -0.96110832       0.01046082
H        0.37701297      -0.05469764       1.66277598
H       -0.24442199       2.12672920       0.54180671
H        0.95944853       1.44800159      -0.96213629
H       -1.31930449       1.84895715      -0.89063071
H       -1.92176006      -1.62656414      -0.97354920
H       -1.90448148      -0.78823684       0.67967626
14
Frame=2 idx=007280 GeodesicLength=0.170312988747492 rxn_smarts="[O:1]([C@@:2]1([H:9])[C:3]([H:10])([H:11])[N:4]([H:12])[C:5]([H:13])([H:14])[C:6]1=[O:7])[H:8]>>[C:5](=[C:6]=[O:7])([H:13])[H:14].[O:1](/[C:2](=[C:3](/[N:4]([H:10])[H:12])[H:11])[H:9])[H:8]"
O        2.17955124      -0.20897036       0.63139659
C        0.82467972       0.02190388       0.66567381
C        0.36162144       1.15250720      -0.09764294
N       -1.01555126       1.29475845      -0.07829132
C       -1.37380491      -1.09393427      -0.21446934
C        0.00187516      -1.23212651      -0.19876302
O        0.81160298      -1.94630850      -0.76077930
H        2.28120110      -0.95141471       0.00734024
H        0.39969230      -0.03948503       1.67408826
H       -0.25399930       2.12152259       0.55474218
H        0.94727576       1.43001946      -0.97471507
H       -1.32908773       1.84334341      -0.88170431
H       -1.92349034      -1.60421791      -0.99470500
H       -1.91156615      -0.78759771       0.66782921
14
Frame=3 idx=007280 GeodesicLength=0.2554517489603227 rxn_smarts="[O:1]([C@@:2]1([H:9])[C:3]([H:10])([H:11])[N:4]([H:12])[C:5]([H:13])([H:14])[C:6]1=[O:7])[H:8]>>[C:5](=[C:6]=[O:7])([H:13])[H:14].[O:1](/[C:2](=[C:3](/[N:4]([H:10])[H:12])[H:11])[H:9])[H:8]"
O        2.19111122      -0.20179079       0.62935409
C        0.83624715       0.02959455       0.67168245
C        0.36335497       1.15220083      -0.09492251
N       -1.01833813       1.28359751      -0.07662116
C       -1.37681722      -1.07629489      -0.23094460
C       -0.00322593      -1.24580121      -0.19471234
O        0.80223673      -1.97304310      -0.74023617
H        2.29354642      -0.94175225       0.00391686
H        0.42295845      -0.02347272       1.68531195
H       -0.26323843       2.11620356       0.56782406
H        0.93477093       1.41153500      -0.98701705
H       -1.33915623       1.83780272      -0.87210290
H       -1.92429865      -1.58171902      -1.01645768
H       -1.91915127      -0.78706020       0.65492501
14
Frame=4 idx=007280 GeodesicLength=0.3406137224271629 rxn_smarts="[O:1]([C@@:2]1([H:9])[C:3]([H:10])([H:11])[N:4]([H:12])[C:5]([H:13])([H:14])[C:6]1=[O:7])[H:8]>>[C:5](=[C:6]=[O:7])([H:13])[H:14].[O:1](/[C:2](=[C:3](/[N:4]([H:10])[H:12])[H:11])[H:9])[H:8]"
O        2.20270703      -0.19456552       0.62690584
C        0.84795891       0.03762546       0.67762528
C        0.36508927       1.15194940      -0.09238167
N       -1.02104743       1.27255517      -0.07463191
C       -1.37939885      -1.05911451      -0.24737492
C       -0.00885609      -1.25958344      -0.19052085
O        0.79217311      -1.99996041      -0.71883893
H        2.30564207      -0.93216356       0.00018890
H        0.44676791      -0.00666222       1.69641209
H       -0.27218891       2.11082020       0.58106274
H        0.92208042       1.39270639      -0.99890784
H       -1.34942504       1.83233327      -0.86191614
H       -1.92424320      -1.55931308      -1.03863560
H       -1.92725919      -0.78662715       0.64101299
14
Frame=5 idx=007280 GeodesicLength=0.4257923392249425 rxn_smarts="[O:1]([C@@:2]1([H:9])[C:3]([H:10])([H:11])[N:4]([H:12])[C:5]([H:13])([H:14])[C:6]1=[O:7])[H:8]>>[C:5](=[C:6]=[O:7])([H:13])[H:14].[O:1](/[C:2](=[C:3](/[N:4]([H:10])[H:12])[H:11])[H:9])[H:8]"
O        2.21434999      -0.18729707       0.62401576
C        0.85983648       0.04599777       0.68350611
C        0.36679819       1.15172803      -0.09002886
N       -1.02370282       1.26160790      -0.07226979
C       -1.38154448      -1.04236669      -0.26379813
C       -0.01501708      -1.27350238      -0.18612080
O        0.78138802      -2.02712722      -0.69642848
H        2.31749681      -0.92262944      -0.00390340
H        0.47118758       0.01098608       1.70739606
H       -0.28084303       2.10536384       0.59446207
H        0.90913306       1.37347435      -1.01042493
H       -1.35994813       1.82691775      -0.85107019
H       -1.92320931      -1.53685840      -1.06139847
H       -1.93592528      -0.78629451       0.62606306
14
Frame=6 idx=007280 GeodesicLength=0.5110026257445914 rxn_smarts="[O:1]([C@@:2]1([H:9])[C:3]([H:10])([H:11])[N:4]([H:12])[C:5]([H:13])([H:14])[C:6]1=[O:7])[H:8]>>[C:5](=[C:6]=[O:7])([H:13])[H:14].[O:1](/[C:2](=[C:3](/[N:4]([H:10])[H:12])[H:11])[H:9])[H:8]"
O        2.22604625      -0.18002653       0.62070377
C        0.87188439       0.05470482       0.68932732
C        0.36848950       1.15155680      -0.08784037
N       -1.02631703       1.25075695      -0.06957610
C       -1.38328875      -1.02604172      -0.28021742
C       -0.02172395      -1.28756691      -0.18154522
O        0.76987144      -2.05447916      -0.67310654
H        2.32913559      -0.91318366      -0.00836595
H        0.49619991       0.02945596       1.71824486
H       -0.28925036       2.09985914       0.60802787
H        0.89601728       1.35395747      -1.02149304
H       -1.37068761       1.82155064      -0.83963163
H       -1.92122666      -1.51448911      -1.08463644
H       -1.94515002      -0.78605468       0.61010889
14
Frame=7 idx=007280 GeodesicLength=0.5961950825412426 rxn_smarts="[O:1]([C@@:2]1([H:9])[C:3]([H:10])([H:11])[N:4]([H:12])[C:5]([H:13])([H:14])[C:6]1=[O:7])[H:8]>>[C:5](=[C:6]=[O:7])([H:13])[H:14].[O:1](/[C:2](=[C:3](/[N:4]([H:10])[H:12])[H:11])[H:9])[H:8]"
O        2.23775224      -0.17270374       0.61695127
C        0.88411997       0.06377889       0.69507940
C        0.37015539       1.15135681      -0.08579665
N       -1.02885095       1.23989456      -0.06649971
C       -1.38460849      -1.01011165      -0.29667593
C       -0.02902803      -1.30174541      -0.17672531
O        0.75747291      -2.08191801      -0.64873848
H        2.34046537      -0.90371166      -0.01324013
H        0.52191496       0.04884766       1.72889064
H       -0.29732367       2.09419896       0.62176216
H        0.88263324       1.33400093      -1.03206675
H       -1.38162730       1.81607835      -0.82749708
H       -1.91817291      -1.49208191      -1.10848156
H       -1.95490272      -0.78588377       0.59303814
14
Frame=8 idx=007280 GeodesicLength=0.681436619219456 rxn_smarts="[O:1]([C@@:2]1([H:9])[C:3]([H:10])([H:11])[N:4]([H:12])[C:5]([H:13])([H:14])[C:6]1=[O:7])[H:8]>>[C:5](=[C:6]=[O:7])([H:13])[H:14].[O:1](/[C:2](=[C:3](/[N:4]([H:10])[H:12])[H:11])[H:9])[H:8]"
O        2.24951853      -0.16538724       0.61273660
C        0.89656002       0.07320342       0.70076802
C        0.37178395       1.15117377      -0.08389968
N       -1.03136314       1.22906789      -0.06302960
C       -1.38553298      -0.99458332      -0.31317409
C       -0.03692639      -1.31610463      -0.17164349
O        0.74424012      -2.10953525      -0.62330240
H        2.35157141      -0.89429653      -0.01856927
H        0.54832278       0.06914341       1.73935533
H       -0.30513825       2.08847409       0.63567812
H        0.86903148       1.31372583      -1.04216783
H       -1.39280872       1.81057761      -0.81467994
H       -1.91399673      -1.46965675      -1.13294463
H       -1.96526208      -0.78580231       0.57487285
14
Frame=9 idx=007280 GeodesicLength=0.7667084106478389 rxn_smarts="[O:1]([C@@:2]1([H:9])[C:3]([H:10])([H:11])[N:4]([H:12])[C:5]([H:13])([H:14])[C:6]1=[O:7])[H:8]>>[C:5](=[C:6]=[O:7])([H:13])[H:14].[O:1](/[C:2](=[C:3](/[N:4]([H:10])[H:12])[H:11])[H:9])[H:8]"
O        2.26132656      -0.15807715       0.60805550
C        0.90921532       0.08299083       0.70638700
C        0.37337055       1.15098578      -0.08213035
N       -1.03384422       1.21822871      -0.05915313
C       -1.38605869      -0.97943887      -0.32972771
C       -0.04545294      -1.33063607      -0.16628386
O        0.73010020      -2.13726234      -0.59678255
H        2.36242130      -0.88491892      -0.02436642
H        0.57546791       0.09038277       1.74959179
H       -0.31268363       2.08265273       0.64978127
H        0.85520000       1.29312120      -1.05175022
H       -1.40421444       1.80497919      -0.80115315
H       -1.90863121      -1.44720925      -1.15803104
H       -1.97621671      -0.78579861       0.55556286
14
Frame=10 idx=007280 GeodesicLength=0.8520207993225023 rxn_smarts="[O:1]([C@@:2]1([H:9])[C:3]([H:10])([H:11])[N:4]([H:12])[C:5]([H:13])([H:14])[C:6]1=[O:7])[H:8]>>[C:5](=[C:6]=[O:7])([H:13])[H:14].[O:1](/[C:2](=[C:3](/[N:4]([H:10])[H:12])[H:11])[H:9])[H:8]"
O        2.27317390      -0.15078678       0.60290227
C        0.92209965       0.09314936       0.71193338
C        0.37491057       1.15078348      -0.08047145
N       -1.03629906       1.20734483      -0.05485804
C       -1.38618775      -0.96466939      -0.34634762
C       -0.05464308      -1.34534887      -0.16062074
O        0.71499503      -2.16505265      -0.56916896
H        2.37300623      -0.87557195      -0.03065944
H        0.60338714       0.11260341       1.75956436
H       -0.31996832       2.07672250       0.66408734
H        0.84114660       1.27219191      -1.06078118
H       -1.41583947       1.79924427      -0.78689426
H       -1.90200242      -1.42474920      -1.18374329
H       -1.98777902      -0.78586093       0.53505762
14
Frame=11 idx=007280 GeodesicLength=0.9373792452680189 rxn_smarts="[O:1]([C@@:2]1([H:9])[C:3]([H:10])([H:11])[N:4]([H:12])[C:5]([H:13])([H:14])[C:6]1=[O:7])[H:8]>>[C:5](=[C:6]=[O:7])([H:13])[H:14].[O:1](/[C:2](=[C:3](/[N:4]([H:10])[H:12])[H:11])[H:9])[H:8]"
O        2.28505712      -0.14353221       0.59726778
C        0.93522662       0.10368680       0.71740208
C        0.37639635       1.15055962      -0.07890687
N       -1.03873409       1.19638550      -0.05012766
C       -1.38591773      -0.95026598      -0.36304329
C       -0.06453269      -1.36025191      -0.15462988
O        0.69886778      -2.19287118      -0.54043640
H        2.38331658      -0.86625162      -0.03747900
H        0.63211757       0.13584105       1.76923281
H       -0.32700392       2.07067097       0.67861422
H        0.82687224       1.25094573      -1.06923222
H       -1.42768244       1.79333796      -0.77187531
H       -1.89402396      -1.40227726      -1.21008591
H       -1.99995944      -0.78597747       0.51329965
14
Frame=12 idx=007280 GeodesicLength=1.0228107534107722 rxn_smarts="[O:1]([C@@:2]1([H:9])[C:3]([H:10])([H:11])[N:4]([H:12])[C:5]([H:13])([H:14])[C:6]1=[O:7])[H:8]>>[C:5](=[C:6]=[O:7])([H:13])[H:14].[O:1](/[C:2](=[C:3](/[N:4]([H:10])[H:12])[H:11])[H:9])[H:8]"
O        2.29698482      -0.13633169       0.59114114
C        0.94861354       0.11461199       0.72278593
C        0.37782172       1.15031580      -0.07742040
N       -1.04116292       1.18532599      -0.04494303
C       -1.38525090      -0.93622659      -0.37982140
C       -0.07516086      -1.37536210      -0.14828896
O        0.68166430      -2.22070093      -0.51055355
H        2.39335679      -0.85696034      -0.04485723
H        0.66169374       0.16013061       1.77855113
H       -0.33380880       2.06449586       0.69338312
H        0.81238676       1.22940265      -1.07707603
H       -1.43974993       1.78723699      -0.75606465
H       -1.88460717      -1.37979648      -1.23706038
H       -2.01278107      -0.78614175       0.49022430
14
Frame=13 idx=007280 GeodesicLength=1.1082919406542826 rxn_smarts="[O:1]([C@@:2]1([H:9])[C:3]([H:10])([H:11])[N:4]([H:12])[C:5]([H:13])([H:14])[C:6]1=[O:7])[H:8]>>[C:5](=[C:6]=[O:7])([H:13])[H:14].[O:1](/[C:2](=[C:3](/[N:4]([H:10])[H:12])[H:11])[H:9])[H:8]"
O        2.30893150      -0.12920520       0.58450871
C        0.96227638       0.12593326       0.72808505
C        0.37916192       1.15001715      -0.07599865
N       -1.04358627       1.17411216      -0.03927116
C       -1.38416010      -0.92251830      -0.39670197
C       -0.08656982      -1.39066983      -0.14154564
O        0.66331993      -2.24847353      -0.47947360
H        2.40308261      -0.84769113      -0.05283322
H        0.69218587       0.18552953       1.78749084
H       -0.34038561       2.05815023       0.70842650
H        0.79763819       1.20751092      -1.08430990
H       -1.45205895       1.78087022      -0.73941373
H       -1.87361023      -1.35726361      -1.26470877
H       -2.02622542      -0.78630187       0.46574554
14
Frame=14 idx=007280 GeodesicLength=1.1938428585748626 rxn_smarts="[O:1]([C@@:2]1([H:9])[C:3]([H:10])([H:11])[N:4]([H:12])[C:5]([H:13])([H:14])[C:6]1=[O:7])[H:8]>>[C:5](=[C:6]=[O:7])([H:13])[H:14].[O:1](/[C:2](=[C:3](/[N:4]([H:10])[H:12])[H:11])[H:9])[H:8]"
O        2.32089987      -0.12215421       0.57734457
C        0.97621842       0.13766979       0.73325949
C        0.38042739       1.14970515      -0.07462327
N       -1.04600744       1.16273334      -0.03309748
C       -1.38264781      -0.90916052      -0.41367642
C       -0.09880676      -1.40618507      -0.13446166
O        0.64374910      -2.27622968      -0.44710602
H        2.41250251      -0.83845846      -0.06141559
H        0.72357410       0.21201926       1.79593570
H       -0.34675503       2.05165785       0.72375079
H        0.78267891       1.18539756      -1.09087494
H       -1.46458405       1.77425026      -0.72187087
H       -1.86095306      -1.33472607      -1.29294450
H       -2.04029615      -0.78651919       0.43978020
14
Frame=15 idx=007280 GeodesicLength=1.2794388333667417 rxn_smarts="[O:1]([C@@:2]1([H:9])[C:3]([H:10])([H:11])[N:4]([H:12])[C:5]([H:13])([H:14])[C:6]1=[O:7])[H:8]>>[C:5](=[C:6]=[O:7])([H:13])[H:14].[O:1](/[C:2](=[C:3](/[N:4]([H:10])[H:12])[H:11])[H:9])[H:8]"
O        2.33281017      -0.11517766       0.56976456
C        0.99043217       0.14983672       0.73833541
C        0.38162278       1.14929551      -0.07324541
N       -1.04836926       1.15107221      -0.02646701
C       -1.38071749      -0.89615320      -0.43070092
C       -0.11195634      -1.42186907      -0.12700989
O        0.62285232      -2.30364597      -0.41380723
H        2.42152176      -0.82913920      -0.07057929
H        0.75588610       0.23971667       1.80382022
H       -0.35288273       2.04489152       0.73936520
H        0.76754812       1.16292326      -1.09665605
H       -1.47722562       1.76716430      -0.70350582
H       -1.84664880      -1.31225061      -1.32163291
H       -2.05487318      -0.78666449       0.41231914
14
Frame=16 idx=007280 GeodesicLength=1.3651619965990454 rxn_smarts="[O:1]([C@@:2]1([H:9])[C:3]([H:10])([H:11])[N:4]([H:12])[C:5]([H:13])([H:14])[C:6]1=[O:7])[H:8]>>[C:5](=[C:6]=[O:7])([H:13])[H:14].[O:1](/[C:2](=[C:3](/[N:4]([H:10])[H:12])[H:11])[H:9])[H:8]"
O        2.34474810      -0.10834164       0.56164353
C        1.00496544       0.16243073       0.74328713
C        0.38270162       1.14884737      -0.07188046
N       -1.05076997       1.13917336      -0.01927614
C       -1.37834577      -0.88347751      -0.44782409
C       -0.12603997      -1.43779349      -0.11912433
O        0.60061872      -2.33096151      -0.37919633
H        2.43022713      -0.81985127      -0.08044414
H        0.78919406       0.26861593       1.81112923
H       -0.35886196       2.03792945       0.75534422
H        0.75218587       1.14018591      -1.10174932
H       -1.49013225       1.75973155      -0.68418906
H       -1.83041309      -1.28972484      -1.35092468
H       -2.07007793      -0.78676403       0.38320442
