14
Frame=0 idx=006559 GeodesicLength=0.0 rxn_smarts="[O:1]([C@@:2]1([H:9])[C@@:3]2([H:10])[C@:4]3([H:11])[C:5]([H:12])([H:13])[N:6]2[C@:7]13[H:14])[H:8]>>[O:1](/[C:2](=[C:3](/[C@:4]1([H:11])[C:5]([H:12])([H:13])[N:6]=[C:7]1[H:14])[H:10])[H:9])[H:8]"
O        2.51421130       0.26410082      -0.33811551
C        1.16645068       0.34375361      -0.68895890
C        0.39517456      -0.89885482      -0.50267008
C       -0.58321565      -0.58575257       0.59045278
C       -1.86700701       0.00647490       0.06823181
N       -1.04185702       1.05666556      -0.58090216
C        0.00695369       0.84618546       0.30695510
H        2.61053235      -0.26361622       0.45875407
H        1.10540148       0.92540568      -1.60161517
H        0.91229942      -1.86419511      -0.54960027
H       -0.52291119      -1.18488816       1.50415011
H       -2.46089261      -0.61572823      -0.60108414
H       -2.53199672       0.44511852       0.82654174
H        0.29685677       1.52533050       1.10786068
14
Frame=1 idx=006559 GeodesicLength=0.07665887207953848 rxn_smarts="[O:1]([C@@:2]1([H:9])[C@@:3]2([H:10])[C@:4]3([H:11])[C:5]([H:12])([H:13])[N:6]2[C@:7]13[H:14])[H:8]>>[O:1](/[C:2](=[C:3](/[C@:4]1([H:11])[C:5]([H:12])([H:13])[N:6]=[C:7]1[H:14])[H:10])[H:9])[H:8]"
O        2.52376246       0.25892613      -0.32060159
C        1.18019814       0.34459762      -0.68016423
C        0.38855720      -0.88330399      -0.50941071
C       -0.57428080      -0.57309126       0.59971424
C       -1.86843037      -0.00496628       0.07169010
N       -1.05197777       1.04552975      -0.58917427
C       -0.00717779       0.86331934       0.31039314
H        2.62552631      -0.31765355       0.44058623
H        1.12762610       0.93648379      -1.58727689
H        0.88060804      -1.85962662      -0.58038455
H       -0.50315913      -1.16237840       1.51836316
H       -2.45122607      -0.63966079      -0.59586789
H       -2.54198884       0.43077204       0.82326528
H        0.27196252       1.56105222       1.09886797
14
Frame=2 idx=006559 GeodesicLength=0.15340565885223406 rxn_smarts="[O:1]([C@@:2]1([H:9])[C@@:3]2([H:10])[C@:4]3([H:11])[C:5]([H:12])([H:13])[N:6]2[C@:7]13[H:14])[H:8]>>[O:1](/[C:2](=[C:3](/[C@:4]1([H:11])[C:5]([H:12])([H:13])[N:6]=[C:7]1[H:14])[H:10])[H:9])[H:8]"
O        2.53334440       0.25341037      -0.30194316
C        1.19411172       0.34509501      -0.67063829
C        0.38246144      -0.86765987      -0.51524936
C       -0.56564352      -0.56018096       0.60883673
C       -1.86980244      -0.01643715       0.07497224
N       -1.06200360       1.03445994      -0.59715731
C       -0.02190235       0.88053986       0.31394063
H        2.64165570      -0.37236798       0.41807195
H        1.15006228       0.94738600      -1.57190795
H        0.84901535      -1.85391523      -0.60968748
H       -0.48420779      -1.13939471       1.53242864
H       -2.44108588      -0.66336424      -0.59100351
H       -2.55218500       0.41587862       0.81977312
H        0.24617970       1.59655034       1.08956376
14
Frame=3 idx=006559 GeodesicLength=0.22964257680475175 rxn_smarts="[O:1]([C@@:2]1([H:9])[C@@:3]2([H:10])[C@:4]3([H:11])[C:5]([H:12])([H:13])[N:6]2[C@:7]13[H:14])[H:8]>>[O:1](/[C:2](=[C:3](/[C@:4]1([H:11])[C:5]([H:12])([H:13])[N:6]=[C:7]1[H:14])[H:10])[H:9])[H:8]"
O        2.54268416       0.24742681      -0.28206613
C        1.20806086       0.34516786      -0.66021775
C        0.37672986      -0.85198258      -0.52005144
C       -0.55738179      -0.54699903       0.61778705
C       -1.87095681      -0.02797186       0.07800417
N       -1.07168755       1.02335859      -0.60475476
C       -0.03711384       0.89776991       0.31764235
H        2.65889909      -0.42708301       0.39072563
H        1.17261663       0.95797501      -1.55519999
H        0.81730256      -1.84706860      -0.63731675
H       -0.46631240      -1.11587644       1.54619328
H       -2.43032858      -0.68686864      -0.58656862
H       -2.56227836       0.40042909       0.81587298
H        0.21976618       1.63172289       1.07994998
14
Frame=4 idx=006559 GeodesicLength=0.30596831542016656 rxn_smarts="[O:1]([C@@:2]1([H:9])[C@@:3]2([H:10])[C@:4]3([H:11])[C:5]([H:12])([H:13])[N:6]2[C@:7]13[H:14])[H:8]>>[O:1](/[C:2](=[C:3](/[C@:4]1([H:11])[C:5]([H:12])([H:13])[N:6]=[C:7]1[H:14])[H:10])[H:9])[H:8]"
O        2.55206218       0.24066243      -0.26082502
C        1.22222364       0.34480681      -0.64894251
C        0.37150611      -0.83631510      -0.52385040
C       -0.54957930      -0.53357491       0.62671958
C       -1.87213346      -0.03950148       0.08080748
N       -1.08120847       1.01233875      -0.61212673
C       -0.05294114       0.91503653       0.32149145
H        2.67757785      -0.48168157       0.35812181
H        1.19555376       0.96837929      -1.53728350
H        0.78579969      -1.83923531      -0.66324843
H       -0.44954986      -1.09192338       1.55998055
H       -2.41916580      -0.71010098      -0.58256326
H       -2.57266263       0.38452383       0.81164611
H        0.19251746       1.66658510       1.07007286
14
Frame=5 idx=006559 GeodesicLength=0.3821792847041723 rxn_smarts="[O:1]([C@@:2]1([H:9])[C@@:3]2([H:10])[C@:4]3([H:11])[C:5]([H:12])([H:13])[N:6]2[C@:7]13[H:14])[H:8]>>[O:1](/[C:2](=[C:3](/[C@:4]1([H:11])[C:5]([H:12])([H:13])[N:6]=[C:7]1[H:14])[H:10])[H:9])[H:8]"
O        2.56123977       0.23272267      -0.23805143
C        1.23652489       0.34391324      -0.63667274
C        0.36673962      -0.82067997      -0.52661786
C       -0.54224353      -0.51985076       0.63562370
C       -1.87318906      -0.05102136       0.08336265
N       -1.09043973       1.00129418      -0.61924901
C       -0.06939857       0.93229541       0.32548672
H        2.69748860      -0.53559852       0.31982966
H        1.21890569       0.97849145      -1.51787041
H        0.75445689      -1.83042374      -0.68749069
H       -0.43397010      -1.06738781       1.57372630
H       -2.40740664      -0.73307677      -0.57895892
H       -2.58312865       0.36821535       0.80700492
H        0.16442082       1.70110664       1.05987711
14
Frame=6 idx=006559 GeodesicLength=0.45833298674250517 rxn_smarts="[O:1]([C@@:2]1([H:9])[C@@:3]2([H:10])[C@:4]3([H:11])[C:5]([H:12])([H:13])[N:6]2[C@:7]13[H:14])[H:8]>>[O:1](/[C:2](=[C:3](/[C@:4]1([H:11])[C:5]([H:12])([H:13])[N:6]=[C:7]1[H:14])[H:10])[H:9])[H:8]"
O        2.57032376       0.22317901      -0.21373792
C        1.25102542       0.34243217      -0.62334185
C        0.36238267      -0.80515521      -0.52828594
C       -0.53547670      -0.50586539       0.64459542
C       -1.87424364      -0.06252211       0.08563505
N       -1.09937696       0.99026158      -0.62620100
C       -0.08645258       0.94953240       0.32963197
H        2.71891807      -0.58813850       0.27552880
H        1.24280544       0.98837336      -1.49685922
H        0.72324526      -1.82076103      -0.70999011
H       -0.41973619      -1.04234693       1.58759937
H       -2.39523164      -0.75579907      -0.57579722
H       -2.59381281       0.35153045       0.80187260
H        0.13562990       1.73527928       1.04935004
14
Frame=7 idx=006559 GeodesicLength=0.5344560512670498 rxn_smarts="[O:1]([C@@:2]1([H:9])[C@@:3]2([H:10])[C@:4]3([H:11])[C:5]([H:12])([H:13])[N:6]2[C@:7]13[H:14])[H:8]>>[O:1](/[C:2](=[C:3](/[C@:4]1([H:11])[C:5]([H:12])([H:13])[N:6]=[C:7]1[H:14])[H:10])[H:9])[H:8]"
O        2.57922648       0.21149119      -0.18777450
C        1.26572733       0.34027649      -0.60883337
C        0.35841984      -0.78977758      -0.52884034
C       -0.52931148      -0.49159962       0.65366110
C       -1.87527116      -0.07398516       0.08761636
N       -1.10796776       0.97919893      -0.63301121
C       -0.10413150       0.96672464       0.33390798
H        2.74175657      -0.63865161       0.22478472
H        1.26737714       0.99798273      -1.47402155
H        0.69222279      -1.81029996      -0.73070133
H       -0.40690407      -1.01672457       1.60163677
H       -2.38258888      -0.77826411      -0.57303985
H       -2.60467684       0.33453498       0.79619380
H        0.10612154       1.76909366       1.03842140
14
Frame=8 idx=006559 GeodesicLength=0.6105044922559737 rxn_smarts="[O:1]([C@@:2]1([H:9])[C@@:3]2([H:10])[C@:4]3([H:11])[C:5]([H:12])([H:13])[N:6]2[C@:7]13[H:14])[H:8]>>[O:1](/[C:2](=[C:3](/[C@:4]1([H:11])[C:5]([H:12])([H:13])[N:6]=[C:7]1[H:14])[H:10])[H:9])[H:8]"
O        2.58790348       0.19696891      -0.16063369
C        1.28059267       0.33727633      -0.59323503
C        0.35477298      -0.77465686      -0.52838358
C       -0.52377722      -0.47710783       0.66280216
C       -1.87624362      -0.08535713       0.08932391
N       -1.11611201       0.96811915      -0.63964999
C       -0.12233539       0.98377183       0.33831616
H        2.76575414      -0.68579134       0.16826550
H        1.29260347       1.00720879      -1.44933978
H        0.66138888      -1.79916093      -0.74972105
H       -0.39556291      -0.99062851       1.61580302
H       -2.36952526      -0.80034706      -0.57069865
H       -2.61561899       0.31731684       0.79002243
H        0.07615978       1.80238780       1.02712859
14
Frame=9 idx=006559 GeodesicLength=0.6866809218863206 rxn_smarts="[O:1]([C@@:2]1([H:9])[C@@:3]2([H:10])[C@:4]3([H:11])[C:5]([H:12])([H:13])[N:6]2[C@:7]13[H:14])[H:8]>>[O:1](/[C:2](=[C:3](/[C@:4]1([H:11])[C:5]([H:12])([H:13])[N:6]=[C:7]1[H:14])[H:10])[H:9])[H:8]"
O        2.59645685       0.17900259      -0.13270401
C        1.29568830       0.33333852      -0.57661584
C        0.35144191      -0.75986522      -0.52704121
C       -0.51889496      -0.46244964       0.67199716
C       -1.87723733      -0.09659625       0.09081950
N       -1.12383631       0.95709948      -0.64611409
C       -0.14106148       1.00067639       0.34279786
H        2.79073021      -0.72874426       0.10648401
H        1.31861318       1.01608407      -1.42275479
H        0.63089373      -1.78749644      -0.76711489
H       -0.38572775      -0.96417659       1.63006785
H       -2.35615714      -0.82200708      -0.56865331
H       -2.62672845       0.29996127       0.78345090
H        0.04581922       1.83517318       1.01538087
14
Frame=10 idx=006559 GeodesicLength=0.7627553038709891 rxn_smarts="[O:1]([C@@:2]1([H:9])[C@@:3]2([H:10])[C@:4]3([H:11])[C:5]([H:12])([H:13])[N:6]2[C@:7]13[H:14])[H:8]>>[O:1](/[C:2](=[C:3](/[C@:4]1([H:11])[C:5]([H:12])([H:13])[N:6]=[C:7]1[H:14])[H:10])[H:9])[H:8]"
O        2.60469056       0.15704831      -0.10379918
C        1.31090185       0.32837674      -0.55868108
C        0.34829231      -0.74529911      -0.52472016
C       -0.51459443      -0.44752252       0.68125609
C       -1.87815025      -0.10771831       0.09199796
N       -1.13111545       0.94595387      -0.65247278
C       -0.16026632       1.01733471       0.34732206
H        2.81649626      -0.76689536       0.03885922
H        1.34532216       1.02445342      -1.39381194
H        0.60060540      -1.77512528      -0.78265600
H       -0.37725726      -0.93712436       1.64443394
H       -2.34242252      -0.84326432      -0.56692801
H       -2.63778977       0.28242749       0.77622802
H        0.01528744       1.86735473       1.00297186
14
Frame=11 idx=006559 GeodesicLength=0.838736569648887 rxn_smarts="[O:1]([C@@:2]1([H:9])[C@@:3]2([H:10])[C@:4]3([H:11])[C:5]([H:12])([H:13])[N:6]2[C@:7]13[H:14])[H:8]>>[O:1](/[C:2](=[C:3](/[C@:4]1([H:11])[C:5]([H:12])([H:13])[N:6]=[C:7]1[H:14])[H:10])[H:9])[H:8]"
O        2.61279728       0.13073771      -0.07624863
C        1.32621902       0.32225554      -0.54050851
C        0.34522035      -0.73108362      -0.52235119
C       -0.51063127      -0.43262572       0.69024856
C       -1.87889575      -0.11865892       0.09321060
N       -1.13795127       0.93497995      -0.65853996
C       -0.17965627       1.03367527       0.35172456
H        2.84142509      -0.79893724      -0.02908362
H        1.37247612       1.03245144      -1.36344371
H        0.57060387      -1.76225641      -0.79753643
H       -0.36970167      -0.91011166       1.65846797
H       -2.32853585      -0.86387326      -0.56521263
H       -2.64846293       0.26476242       0.76923419
H       -0.01490672       1.89868452       0.99003878
14
Frame=12 idx=006559 GeodesicLength=0.9147758923157459 rxn_smarts="[O:1]([C@@:2]1([H:9])[C@@:3]2([H:10])[C@:4]3([H:11])[C:5]([H:12])([H:13])[N:6]2[C@:7]13[H:14])[H:8]>>[O:1](/[C:2](=[C:3](/[C@:4]1([H:11])[C:5]([H:12])([H:13])[N:6]=[C:7]1[H:14])[H:10])[H:9])[H:8]"
O        2.62084990       0.10021944      -0.04991557
C        1.34165548       0.31495494      -0.52195458
C        0.34219736      -0.71719348      -0.51986052
C       -0.50693196      -0.41769921       0.69898622
C       -1.87959899      -0.12944295       0.09442007
N       -1.14457039       0.92414958      -0.66436976
C       -0.19926902       1.04978707       0.35596791
H        2.86604233      -0.82529950      -0.09753506
H        1.39999486       1.04005106      -1.33137120
H        0.54077165      -1.74891993      -0.81180400
H       -0.36282885      -0.88302224       1.67217165
H       -2.31470121      -0.88396545      -0.56348685
H       -2.65886967       0.24698805       0.76233997
H       -0.04474148       1.92939262       0.97641171
14
Frame=13 idx=006559 GeodesicLength=0.9907414101713364 rxn_smarts="[O:1]([C@@:2]1([H:9])[C@@:3]2([H:10])[C@:4]3([H:11])[C:5]([H:12])([H:13])[N:6]2[C@:7]13[H:14])[H:8]>>[O:1](/[C:2](=[C:3](/[C@:4]1([H:11])[C:5]([H:12])([H:13])[N:6]=[C:7]1[H:14])[H:10])[H:9])[H:8]"
O        2.62857689       0.06553954      -0.02543183
C        1.35715924       0.30654211      -0.50310282
C        0.33926202      -0.70338231      -0.51739927
C       -0.50349742      -0.40265527       0.70746303
C       -1.87998046      -0.14011479       0.09570713
N       -1.15069208       0.91336795      -0.66994489
C       -0.21913279       1.06559417       0.36002523
H        2.88929266      -0.84625361      -0.16590357
H        1.42795469       1.04720767      -1.29761478
H        0.51137919      -1.73480197      -0.82536131
H       -0.35684239      -0.85575825       1.68552769
H       -2.30043740      -0.90353450      -0.56162855
H       -2.66876381       0.22893472       0.75567181
H       -0.07427833       1.95931455       0.96199213
14
Frame=14 idx=006559 GeodesicLength=1.0665095459419465 rxn_smarts="[O:1]([C@@:2]1([H:9])[C@@:3]2([H:10])[C@:4]3([H:11])[C:5]([H:12])([H:13])[N:6]2[C@:7]13[H:14])[H:8]>>[O:1](/[C:2](=[C:3](/[C@:4]1([H:11])[C:5]([H:12])([H:13])[N:6]=[C:7]1[H:14])[H:10])[H:9])[H:8]"
O        2.63606979       0.02738563      -0.00337716
C        1.37260951       0.29688820      -0.48457748
C        0.33626012      -0.68973191      -0.51539470
C       -0.49999418      -0.38765607       0.71540229
C       -1.88018072      -0.15060447       0.09717303
N       -1.15679988       0.90284563      -0.67519301
C       -0.23911239       1.08110835       0.36376633
H        2.91152791      -0.86221748      -0.23129553
H        1.45577681       1.05394769      -1.26257408
H        0.48222582      -1.72004843      -0.83892482
H       -0.35087790      -0.82864174       1.69815172
H       -2.28631064      -0.92240936      -0.55955155
H       -2.67799520       0.21072707       0.74957463
H       -0.10319906       1.98840689       0.94682033
14
Frame=15 idx=006559 GeodesicLength=1.1423551716095648 rxn_smarts="[O:1]([C@@:2]1([H:9])[C@@:3]2([H:10])[C@:4]3([H:11])[C:5]([H:12])([H:13])[N:6]2[C@:7]13[H:14])[H:8]>>[O:1](/[C:2](=[C:3](/[C@:4]1([H:11])[C:5]([H:12])([H:13])[N:6]=[C:7]1[H:14])[H:10])[H:9])[H:8]"
O        2.64330307      -0.01427743       0.01635320
C        1.38813458       0.28603517      -0.46607885
C        0.33327253      -0.67615068      -0.51365604
C       -0.49656673      -0.37254066       0.72296342
C       -1.88022875      -0.16100964       0.09880253
N       -1.16279300       0.89244603      -0.68020819
C       -0.25933133       1.09645858       0.36721585
H        2.93299572      -0.87363614      -0.29498537
H        1.48385650       1.06028910      -1.22579024
H        0.45330584      -1.70460271      -0.85236767
H       -0.34527097      -0.80135285       1.71028716
H       -2.27216042      -0.94088198      -0.55722790
H       -2.68677633       0.19226238       0.74392276
H       -0.13174071       2.01696084       0.93076933
14
Frame=16 idx=006559 GeodesicLength=1.2182223924359312 rxn_smarts="[O:1]([C@@:2]1([H:9])[C@@:3]2([H:10])[C@:4]3([H:11])[C:5]([H:12])([H:13])[N:6]2[C@:7]13[H:14])[H:8]>>[O:1](/[C:2](=[C:3](/[C@:4]1([H:11])[C:5]([H:12])([H:13])[N:6]=[C:7]1[H:14])[H:10])[H:9])[H:8]"
O        2.65015892      -0.05912207       0.03346383
C        1.40367843       0.27398408      -0.44779978
C        0.33030184      -0.66254745      -0.51230955
C       -0.49310833      -0.35728659       0.73010153
C       -1.88006987      -0.17133828       0.10064947
N       -1.16876522       0.88220885      -0.68500364
C       -0.27982657       1.11168410       0.37032351
H        2.95365042      -0.88108954      -0.35618395
H        1.51207325       1.06626168      -1.18726809
H        0.42462626      -1.68837470      -0.86589825
H       -0.33981408      -0.77391215       1.72187758
H       -2.25793779      -0.95895960      -0.55459271
H       -2.69501168       0.17349576       0.73884357
H       -0.15995560       2.04499590       0.91379650
