10
Frame=0 idx=002484 GeodesicLength=0.0 rxn_smarts="[O:1]([c:2]1[c:3]([H:8])[n:4]([H:9])[c:5]([H:10])[n:6]1)[H:7]>>[N:4](=[C:5]=[N:6][H:10])[H:9].[O:1]([C:2]#[C:3][H:8])[H:7]"
O        2.64433807      -0.04767382      -0.10695296
C        1.54054307      -0.71360155       0.02692271
C        0.63779970      -1.50394259       0.16828262
N       -2.03256367      -0.14717834       0.10305544
C       -1.08723323       0.67602076      -0.04064376
N        0.15575351       0.87970717      -0.11691600
H        2.40973436       0.88460125      -0.21837516
H       -0.22018020      -2.12390863       0.28439461
H       -2.95677959       0.25968656       0.08908006
H       -1.09141201       1.83628919      -0.18884756
10
Frame=1 idx=002484 GeodesicLength=0.09260438382733868 rxn_smarts="[O:1]([c:2]1[c:3]([H:8])[n:4]([H:9])[c:5]([H:10])[n:6]1)[H:7]>>[N:4](=[C:5]=[N:6][H:10])[H:9].[O:1]([C:2]#[C:3][H:8])[H:7]"
O        2.62137662      -0.05689421      -0.10204612
C        1.50057751      -0.70487492      -0.01488557
C        0.60170510      -1.48969635       0.19895644
N       -1.98948596      -0.15292632       0.13532625
C       -1.07417140       0.70942785       0.02779517
N        0.16190431       0.91589552      -0.12357260
H        2.40415770       0.88015938      -0.21249083
H       -0.21983699      -2.16372235       0.26779044
H       -2.93112334       0.20117506       0.05158976
H       -1.07510354       1.86145634      -0.22846294
10
Frame=2 idx=002484 GeodesicLength=0.18539112462876833 rxn_smarts="[O:1]([c:2]1[c:3]([H:8])[n:4]([H:9])[c:5]([H:10])[n:6]1)[H:7]>>[N:4](=[C:5]=[N:6][H:10])[H:9].[O:1]([C:2]#[C:3][H:8])[H:7]"
O        2.59636621      -0.06652162      -0.09205116
C        1.46007778      -0.69495455      -0.04705811
C        0.56526466      -1.47765349       0.21220562
N       -1.94623933      -0.15287242       0.18468079
C       -1.06204075       0.74189084       0.07329102
N        0.16669332       0.94971848      -0.13156070
H        2.39694390       0.87563031      -0.19591672
H       -0.21802557      -2.19864327       0.24579438
H       -2.89819943       0.14342533       0.02907967
H       -1.06084078       1.87998038      -0.27846480
10
Frame=3 idx=002484 GeodesicLength=0.2782836739587936 rxn_smarts="[O:1]([c:2]1[c:3]([H:8])[n:4]([H:9])[c:5]([H:10])[n:6]1)[H:7]>>[N:4](=[C:5]=[N:6][H:10])[H:9].[O:1]([C:2]#[C:3][H:8])[H:7]"
O        2.57069864      -0.07564535      -0.07722956
C        1.42082334      -0.68412327      -0.06633364
C        0.52830109      -1.46744073       0.21934142
N       -1.90339660      -0.14872124       0.23835232
C       -1.05005750       0.77340917       0.10321836
N        0.17024356       0.97973923      -0.15138163
H        2.38806802       0.87110096      -0.17372866
H       -0.21634772      -2.22924602       0.21377253
H       -2.86077296       0.08575260       0.02408977
H       -1.04755987       1.89517466      -0.33010090
10
Frame=4 idx=002484 GeodesicLength=0.37152616850439124 rxn_smarts="[O:1]([c:2]1[c:3]([H:8])[n:4]([H:9])[c:5]([H:10])[n:6]1)[H:7]>>[N:4](=[C:5]=[N:6][H:10])[H:9].[O:1]([C:2]#[C:3][H:8])[H:7]"
O        2.54426529      -0.08423864      -0.05994231
C        1.38247782      -0.67312844      -0.08227175
C        0.49093578      -1.45893599       0.21915867
N       -1.86079312      -0.14128097       0.29184972
C       -1.03807496       0.80424200       0.12480811
N        0.17318163       1.00738577      -0.17461600
H        2.37743385       0.86669201      -0.14747178
H       -0.21536632      -2.25600428       0.18222590
H       -2.81917394       0.02744398       0.02770865
H       -1.03488603       1.90782457      -0.38144921
10
Frame=5 idx=002484 GeodesicLength=0.46516344185090175 rxn_smarts="[O:1]([c:2]1[c:3]([H:8])[n:4]([H:9])[c:5]([H:10])[n:6]1)[H:7]>>[N:4](=[C:5]=[N:6][H:10])[H:9].[O:1]([C:2]#[C:3][H:8])[H:7]"
O        2.51714554      -0.09220462      -0.04042404
C        1.34508717      -0.66204300      -0.09597015
C        0.45356450      -1.45173464       0.21442381
N       -1.81842745      -0.13142823       0.34322891
C       -1.02625621       0.83415264       0.14075666
N        0.17581828       1.03314003      -0.19833535
H        2.36510136       0.86236684      -0.11928574
H       -0.21528381      -2.27923833       0.15009429
H       -2.77405545      -0.03051803       0.03886370
H       -1.02269392       1.91750734      -0.43335211
10
Frame=6 idx=002484 GeodesicLength=0.5591877051494291 rxn_smarts="[O:1]([c:2]1[c:3]([H:8])[n:4]([H:9])[c:5]([H:10])[n:6]1)[H:7]>>[N:4](=[C:5]=[N:6][H:10])[H:9].[O:1]([C:2]#[C:3][H:8])[H:7]"
O        2.48952441      -0.09967755      -0.02037821
C        1.30867868      -0.65089124      -0.10867044
C        0.41670630      -1.44546335       0.20683887
N       -1.77656674      -0.12061747       0.38949165
C       -1.01499958       0.86253030       0.15188666
N        0.17838308       1.05743355      -0.22074175
H        2.35125566       0.85814936      -0.08944837
H       -0.21524314      -2.29980708       0.11885830
H       -2.72715057      -0.08631379       0.05682718
H       -1.01058810       1.92465724      -0.48466389
10
Frame=7 idx=002484 GeodesicLength=0.6534956666807195 rxn_smarts="[O:1]([c:2]1[c:3]([H:8])[n:4]([H:9])[c:5]([H:10])[n:6]1)[H:7]>>[N:4](=[C:5]=[N:6][H:10])[H:9].[O:1]([C:2]#[C:3][H:8])[H:7]"
O        2.46163841      -0.10694490      -0.00266257
C        1.27305462      -0.63974625      -0.12076925
C        0.38080054      -1.43978764       0.19898213
N       -1.73617462      -0.11032738       0.42816606
C       -1.00481458       0.88879039       0.15967474
N        0.18082842       1.08057870      -0.24017577
H        2.33616407       0.85378196      -0.06060061
H       -0.21392750      -2.31877019       0.09190700
H       -2.67974863      -0.13909488       0.07648822
H       -0.99782074       1.93152019      -0.53100996
10
Frame=8 idx=002484 GeodesicLength=0.7479529740444129 rxn_smarts="[O:1]([c:2]1[c:3]([H:8])[n:4]([H:9])[c:5]([H:10])[n:6]1)[H:7]>>[N:4](=[C:5]=[N:6][H:10])[H:9].[O:1]([C:2]#[C:3][H:8])[H:7]"
O        2.43372760      -0.11395098       0.01285432
C        1.23829071      -0.62864791      -0.13251192
C        0.34602366      -1.43471775       0.19096188
N       -1.69752250      -0.10118174       0.45967357
C       -0.99581609       0.91273047       0.16469051
N        0.18313886       1.10257503      -0.25698326
H        2.32006926       0.84930283      -0.03290219
H       -0.21061148      -2.33690200       0.06933753
H       -2.63318581      -0.18801454       0.09738960
H       -0.98411421       1.93880660      -0.57251003
10
Frame=9 idx=002484 GeodesicLength=0.8423982915871977 rxn_smarts="[O:1]([c:2]1[c:3]([H:8])[n:4]([H:9])[c:5]([H:10])[n:6]1)[H:7]>>[N:4](=[C:5]=[N:6][H:10])[H:9].[O:1]([C:2]#[C:3][H:8])[H:7]"
O        2.40605816      -0.12095802       0.02463837
C        1.20412854      -0.61756285      -0.14402330
C        0.31244892      -1.43009962       0.18383873
N       -1.66147712      -0.09387972       0.48355814
C       -0.98836533       0.93425501       0.16810482
N        0.18529619       1.12379090      -0.26974896
H        2.30354384       0.84446687      -0.00832763
H       -0.20437973      -2.35490311       0.05339313
H       -2.58833967      -0.23321725       0.11586147
H       -0.96891380       1.94810779      -0.60729477
10
Frame=10 idx=002484 GeodesicLength=0.9367868508939967 rxn_smarts="[O:1]([c:2]1[c:3]([H:8])[n:4]([H:9])[c:5]([H:10])[n:6]1)[H:7]>>[N:4](=[C:5]=[N:6][H:10])[H:9].[O:1]([C:2]#[C:3][H:8])[H:7]"
O        2.37866437      -0.12783954       0.03379327
C        1.17067377      -0.60662103      -0.15551076
C        0.27998980      -1.42609331       0.17676277
N       -1.62772078      -0.08821235       0.50154754
C       -0.98217409       0.95353413       0.17000345
N        0.18721442       1.14395473      -0.28021531
H        2.28652200       0.83939485       0.01434748
H       -0.19514635      -2.37295834       0.04290260
H       -2.54566891      -0.27465025       0.13310841
H       -0.95235422       1.95949111      -0.63673947
10
Frame=11 idx=002484 GeodesicLength=1.0310904932214373 rxn_smarts="[O:1]([c:2]1[c:3]([H:8])[n:4]([H:9])[c:5]([H:10])[n:6]1)[H:7]>>[N:4](=[C:5]=[N:6][H:10])[H:9].[O:1]([C:2]#[C:3][H:8])[H:7]"
O        2.35149738      -0.13451697       0.04116915
C        1.13800104      -0.59599036      -0.16719265
C        0.24854724      -1.42284066       0.16909156
N       -1.59594130      -0.08402187       0.51472667
C       -0.97693859       0.97071116       0.17048669
N        0.18880310       1.16280869      -0.28978780
H        2.26885310       0.83415190       0.03579260
H       -0.18282323      -2.39116164       0.03735936
H       -2.50544291      -0.31242090       0.14971919
H       -0.93455582       1.97328066      -0.66136479
10
Frame=12 idx=002484 GeodesicLength=1.1253018625454636 rxn_smarts="[O:1]([c:2]1[c:3]([H:8])[n:4]([H:9])[c:5]([H:10])[n:6]1)[H:7]>>[N:4](=[C:5]=[N:6][H:10])[H:9].[O:1]([C:2]#[C:3][H:8])[H:7]"
O        2.32447736      -0.14098715       0.04730818
C        1.10611742      -0.58583943      -0.17921487
C        0.21799057      -1.42045026       0.16046397
N       -1.56595551      -0.08120685       0.52374280
C       -0.97239959       0.98592276       0.16977016
N        0.18997813       1.18016614      -0.29940076
H        2.25043199       0.82874740       0.05606642
H       -0.16731748      -2.40948808       0.03678904
H       -2.46773278      -0.34683449       0.16556518
H       -0.91559009       1.98996997      -0.68109012
10
Frame=13 idx=002484 GeodesicLength=1.219435331432473 rxn_smarts="[O:1]([c:2]1[c:3]([H:8])[n:4]([H:9])[c:5]([H:10])[n:6]1)[H:7]>>[N:4](=[C:5]=[N:6][H:10])[H:9].[O:1]([C:2]#[C:3][H:8])[H:7]"
O        2.29757359      -0.14738168       0.05226740
C        1.07488928      -0.57624621      -0.19148151
C        0.18812972      -1.41893082       0.15103515
N       -1.53783009      -0.07967770       0.52902780
C       -0.96848545       0.99935335       0.16824156
N        0.19071434       1.19605749      -0.30902957
H        2.23140101       0.82309691       0.07461865
H       -0.14849163      -2.42764600       0.04126635
H       -2.43247284      -0.37838731       0.17988976
H       -0.89542794       2.00976198      -0.69583560
10
Frame=14 idx=002484 GeodesicLength=1.3135705369425967 rxn_smarts="[O:1]([c:2]1[c:3]([H:8])[n:4]([H:9])[c:5]([H:10])[n:6]1)[H:7]>>[N:4](=[C:5]=[N:6][H:10])[H:9].[O:1]([C:2]#[C:3][H:8])[H:7]"
O        2.27046990      -0.15355477       0.05774360
C        1.04452517      -0.56744160      -0.20448009
C        0.15872515      -1.41852036       0.13914047
N       -1.51080760      -0.07916496       0.53153883
C       -0.96464763       1.01113792       0.16569392
N        0.19092482       1.21011019      -0.32065326
H        2.21122419       0.81739343       0.09261634
H       -0.12656529      -2.44542054       0.05016874
H       -2.39950517      -0.40712259       0.19444212
H       -0.87434354       2.03258328      -0.70621067
10
Frame=15 idx=002484 GeodesicLength=1.40783327067927 rxn_smarts="[O:1]([c:2]1[c:3]([H:8])[n:4]([H:9])[c:5]([H:10])[n:6]1)[H:7]>>[N:4](=[C:5]=[N:6][H:10])[H:9].[O:1]([C:2]#[C:3][H:8])[H:7]"
O        2.24285979      -0.15948006       0.06492251
C        1.01512208      -0.55953386      -0.21853429
C        0.12948080      -1.41933583       0.12346958
N       -1.48426107      -0.07943238       0.53214084
C       -0.96051250       1.02144753       0.16209790
N        0.19061035       1.22221900      -0.33522004
H        2.18948853       0.81173283       0.11094655
H       -0.10176772      -2.46226285       0.06270819
H       -2.36853582      -0.43318323       0.21064886
H       -0.85248442       2.05782883      -0.71318011
10
Frame=16 idx=002484 GeodesicLength=1.5023839569053279 rxn_smarts="[O:1]([c:2]1[c:3]([H:8])[n:4]([H:9])[c:5]([H:10])[n:6]1)[H:7]>>[N:4](=[C:5]=[N:6][H:10])[H:9].[O:1]([C:2]#[C:3][H:8])[H:7]"
O        2.21438436      -0.16515094       0.07475469
C        0.98677180      -0.55258204      -0.23400703
C        0.10014580      -1.42145631       0.10272858
N       -1.45754817      -0.08035193       0.53154631
C       -0.95576250       1.03039464       0.15743893
N        0.18980122       1.23236539      -0.35330671
H        2.16572665       0.80618644       0.13047925
H       -0.07450704      -2.47735456       0.07822968
H       -2.33912792      -0.45679355       0.22985804
H       -0.82988419       2.08474285      -0.71772173
