14
Frame=0 idx=003259 GeodesicLength=0.0 rxn_smarts="[C:1]1([H:7])([H:8])[C@@:2]2([H:9])[C:3]([H:10])([H:11])[O:4][C:5]([H:12])([H:13])[C@@:6]12[H:14]>>[C:1]([C:2]([C:3](=[O:4])[H:11])([H:9])[H:10])([C:6](=[C:5]([H:12])[H:13])[H:14])([H:7])[H:8]"
C        1.07338375       0.29324269      -0.71372273
C        0.56215454       0.62958287       0.61385190
C       -0.83031417       1.01119326       0.83015279
O       -1.69719072       0.78764631      -0.09812677
C       -0.71544991      -1.43042857      -0.69101409
C        0.53279597      -1.06032644      -0.31393038
H        0.49756975       0.72234745      -1.52858753
H        2.14738607       0.36523487      -0.85183628
H        1.24426889       0.66026349       1.46047044
H       -0.41003495       2.10349191       0.83171843
H       -1.12351920       0.86514984       1.88883169
H       -1.25456754      -0.91720010      -1.46900329
H       -1.15464296      -2.33853416      -0.29334190
H        1.12816043      -1.69166348       0.33453771
14
Frame=1 idx=003259 GeodesicLength=0.07105895206761279 rxn_smarts="[C:1]1([H:7])([H:8])[C@@:2]2([H:9])[C:3]([H:10])([H:11])[O:4][C:5]([H:12])([H:13])[C@@:6]12[H:14]>>[C:1]([C:2]([C:3](=[O:4])[H:11])([H:9])[H:10])([C:6](=[C:5]([H:12])[H:13])[H:14])([H:7])[H:8]"
C        1.07093624       0.29830399      -0.71307875
C        0.56112786       0.63468727       0.61780241
C       -0.83564900       1.00982710       0.83487489
O       -1.69877061       0.76108354      -0.09140369
C       -0.72405921      -1.42112292      -0.68430440
C        0.53036560      -1.05366161      -0.31174476
H        0.49532497       0.73055937      -1.52648072
H        2.14528351       0.36831651      -0.84951350
H        1.23918986       0.65100678       1.46781687
H       -0.38222771       2.10277707       0.81614958
H       -1.12839659       0.87739296       1.89501231
H       -1.24722529      -0.93312793      -1.48978633
H       -1.15768691      -2.33321677      -0.28867120
H        1.13178728      -1.69282537       0.32332729
14
Frame=2 idx=003259 GeodesicLength=0.1419639110858822 rxn_smarts="[C:1]1([H:7])([H:8])[C@@:2]2([H:9])[C:3]([H:10])([H:11])[O:4][C:5]([H:12])([H:13])[C@@:6]12[H:14]>>[C:1]([C:2]([C:3](=[O:4])[H:11])([H:9])[H:10])([C:6](=[C:5]([H:12])[H:13])[H:14])([H:7])[H:8]"
C        1.06857344       0.30331638      -0.71262933
C        0.56009681       0.63976273       0.62159440
C       -0.84095258       1.00901053       0.83905944
O       -1.69988614       0.73560922      -0.08515034
C       -0.73246417      -1.41192678      -0.67792454
C        0.52805437      -1.04703397      -0.30960309
H        0.49315934       0.73865075      -1.52464470
H        2.14329079       0.37135946      -0.84735449
H        1.23392389       0.64177515       1.47491972
H       -0.35464676       2.10193851       0.80211245
H       -1.13394520       0.88848882       1.90019163
H       -1.23992496      -0.94946839      -1.50904629
H       -1.16073367      -2.32746046      -0.28332169
H        1.13545484      -1.69402197       0.31179683
14
Frame=3 idx=003259 GeodesicLength=0.21286126759176863 rxn_smarts="[C:1]1([H:7])([H:8])[C@@:2]2([H:9])[C:3]([H:10])([H:11])[O:4][C:5]([H:12])([H:13])[C@@:6]12[H:14]>>[C:1]([C:2]([C:3](=[O:4])[H:11])([H:9])[H:10])([C:6](=[C:5]([H:12])[H:13])[H:14])([H:7])[H:8]"
C        1.06618544       0.30834210      -0.71223528
C        0.55904155       0.64479569       0.62522221
C       -0.84612970       1.00861606       0.84267497
O       -1.70046015       0.71096279      -0.07927640
C       -0.74071401      -1.40284471      -0.67185367
C        0.52574659      -1.04036936      -0.30749115
H        0.49101440       0.74663634      -1.52282659
H        2.14121171       0.37451533      -0.84518732
H        1.22841449       0.63264053       1.48169073
H       -0.32697337       2.10084436       0.78941902
H       -1.13994670       0.89856699       1.90426212
H       -1.23251082      -0.96632846      -1.52685814
H       -1.16383428      -2.32129111      -0.27740122
H        1.13895485      -1.69508655       0.29986072
14
Frame=4 idx=003259 GeodesicLength=0.28367149616177034 rxn_smarts="[C:1]1([H:7])([H:8])[C@@:2]2([H:9])[C:3]([H:10])([H:11])[O:4][C:5]([H:12])([H:13])[C@@:6]12[H:14]>>[C:1]([C:2]([C:3](=[O:4])[H:11])([H:9])[H:10])([C:6](=[C:5]([H:12])[H:13])[H:14])([H:7])[H:8]"
C        1.06385692       0.31332907      -0.71200652
C        0.55796324       0.64975299       0.62875523
C       -0.85132183       1.00870299       0.84582468
O       -1.70071947       0.68722717      -0.07374772
C       -0.74876251      -1.39391480      -0.66612560
C        0.52356202      -1.03376640      -0.30543387
H        0.48890878       0.75454734      -1.52123861
H        2.13922050       0.37766849      -0.84316603
H        1.22271465       0.62349918       1.48828993
H       -0.29938261       2.09972365       0.77804597
H       -1.14650673       0.90784842       1.90758024
H       -1.22509729      -0.98362036      -1.54344516
H       -1.16693334      -2.31479166      -0.27091143
H        1.14249767      -1.69620609       0.28757888
14
Frame=5 idx=003259 GeodesicLength=0.3543897197668951 rxn_smarts="[C:1]1([H:7])([H:8])[C@@:2]2([H:9])[C:3]([H:10])([H:11])[O:4][C:5]([H:12])([H:13])[C@@:6]12[H:14]>>[C:1]([C:2]([C:3](=[O:4])[H:11])([H:9])[H:10])([C:6](=[C:5]([H:12])[H:13])[H:14])([H:7])[H:8]"
C        1.06153853       0.31829914      -0.71186724
C        0.55685284       0.65462549       0.63219563
C       -0.85646580       1.00919591       0.84848843
O       -1.70061021       0.66425992      -0.06851117
C       -0.75662399      -1.38514029      -0.66072541
C        0.52144521      -1.02719591      -0.30342025
H        0.48682500       0.76238737      -1.51974885
H        2.13722242       0.38087201      -0.84119545
H        1.21678977       0.61436434       1.49467584
H       -0.27178949       2.09856892       0.76787264
H       -1.15348492       0.91644957       1.91011995
H       -1.21767825      -1.00135150      -1.55883560
H       -1.17001344      -2.30801966      -0.26395913
H        1.14599234      -1.69731530       0.27491063
14
Frame=6 idx=003259 GeodesicLength=0.4250663342192649 rxn_smarts="[C:1]1([H:7])([H:8])[C@@:2]2([H:9])[C:3]([H:10])([H:11])[O:4][C:5]([H:12])([H:13])[C@@:6]12[H:14]>>[C:1]([C:2]([C:3](=[O:4])[H:11])([H:9])[H:10])([C:6](=[C:5]([H:12])[H:13])[H:14])([H:7])[H:8]"
C        1.05924155       0.32323383      -0.71183302
C        0.55570753       0.65939787       0.63557774
C       -0.86162253       1.01008767       0.85070389
O       -1.70025468       0.64203850      -0.06353134
C       -0.76430783      -1.37652671      -0.65566645
C        0.51941920      -1.02068194      -0.30144905
H        0.48474992       0.77015929      -1.51839564
H        2.13525552       0.38409109      -0.83930846
H        1.21066256       0.60521907       1.50091245
H       -0.24417342       2.09746680       0.75883386
H       -1.16088295       0.92452920       1.91205684
H       -1.21025189      -1.01951537      -1.57312990
H       -1.17303755      -2.30103820      -0.25662217
H        1.14949456      -1.69846109       0.26185124
14
Frame=7 idx=003259 GeodesicLength=0.4957710674608219 rxn_smarts="[C:1]1([H:7])([H:8])[C@@:2]2([H:9])[C:3]([H:10])([H:11])[O:4][C:5]([H:12])([H:13])[C@@:6]12[H:14]>>[C:1]([C:2]([C:3](=[O:4])[H:11])([H:9])[H:10])([C:6](=[C:5]([H:12])[H:13])[H:14])([H:7])[H:8]"
C        1.05692015       0.32817886      -0.71184553
C        0.55452051       0.66406650       0.63887846
C       -0.86674488       1.01128714       0.85248608
O       -1.69959636       0.62043511      -0.05872401
C       -0.77184583      -1.36804686      -0.65088399
C        0.51742639      -1.01417105      -0.29950661
H        0.48266614       0.77789772      -1.51705122
H        2.13323554       0.38740973      -0.83744719
H        1.20430754       0.59609316       1.50690966
H       -0.21636329       2.09622620       0.75082389
H       -1.16861644       0.93212697       1.91327501
H       -1.20271442      -1.03816312      -1.58636990
H       -1.17604859      -2.29383407      -0.24895531
H        1.15285353      -1.69950629       0.24841066
14
Frame=8 idx=003259 GeodesicLength=0.5664137457950782 rxn_smarts="[C:1]1([H:7])([H:8])[C@@:2]2([H:9])[C:3]([H:10])([H:11])[O:4][C:5]([H:12])([H:13])[C@@:6]12[H:14]>>[C:1]([C:2]([C:3](=[O:4])[H:11])([H:9])[H:10])([C:6](=[C:5]([H:12])[H:13])[H:14])([H:7])[H:8]"
C        1.05459740       0.33309898      -0.71193945
C        0.55329310       0.66862096       0.64215151
C       -0.87188502       1.01282059       0.85388154
O       -1.69874265       0.59946741      -0.05407600
C       -0.77921983      -1.35973530      -0.64642790
C        0.51551656      -1.00772329      -0.29761340
H        0.48056158       0.78560079      -1.51579883
H        2.13121772       0.39076057      -0.83565320
H        1.19774850       0.58694201       1.51278192
H       -0.18846335       2.09500828       0.74380798
H       -1.17668633       0.93943592       1.91397623
H       -1.19513779      -1.05724830      -1.59866276
H       -1.17898278      -2.28648727      -0.24101273
H        1.15618290      -1.70056134       0.23458510
14
Frame=9 idx=003259 GeodesicLength=0.6370318032402325 rxn_smarts="[C:1]1([H:7])([H:8])[C@@:2]2([H:9])[C:3]([H:10])([H:11])[O:4][C:5]([H:12])([H:13])[C@@:6]12[H:14]>>[C:1]([C:2]([C:3](=[O:4])[H:11])([H:9])[H:10])([C:6](=[C:5]([H:12])[H:13])[H:14])([H:7])[H:8]"
C        1.05225815       0.33800652      -0.71209105
C        0.55202087       0.67305505       0.64540051
C       -0.87703646       1.01464081       0.85490119
O       -1.69770101       0.57906733      -0.04954724
C       -0.78644343      -1.35158672      -0.64228128
C        0.51367194      -1.00132649      -0.29576335
H        0.47842848       0.79328246      -1.51459331
H        2.12917697       0.39416705      -0.83390413
H        1.19097519       0.57776214       1.51851850
H       -0.16041256       2.09377782       0.73771007
H       -1.18505353       0.94654092       1.91417179
H       -1.18749626      -1.07677221      -1.61003435
H       -1.18183530      -2.27902029      -0.23284677
H        1.15944694      -1.70159438       0.22035942
14
Frame=10 idx=003259 GeodesicLength=0.7076208053892084 rxn_smarts="[C:1]1([H:7])([H:8])[C@@:2]2([H:9])[C:3]([H:10])([H:11])[O:4][C:5]([H:12])([H:13])[C@@:6]12[H:14]>>[C:1]([C:2]([C:3](=[O:4])[H:11])([H:9])[H:10])([C:6](=[C:5]([H:12])[H:13])[H:14])([H:7])[H:8]"
C        1.04989708       0.34290043      -0.71229893
C        0.55070140       0.67736737       0.64864188
C       -0.88221333       1.01672919       0.85557706
O       -1.69650667       0.55920549      -0.04510206
C       -0.79352195      -1.34360526      -0.63844477
C        0.51189574      -0.99499037      -0.29395898
H        0.47625340       0.80095399      -1.51343421
H        2.12711125       0.39762365      -0.83220405
H        1.18399139       0.56854807       1.52414320
H       -0.13218732       2.09252966       0.73248016
H       -1.19370253       0.95354577       1.91391589
H       -1.17977728      -1.09673504      -1.62054128
H       -1.18458798      -2.27146460      -0.22450470
H        1.16264680      -1.70260835       0.20573081
14
Frame=11 idx=003259 GeodesicLength=0.7782166510245797 rxn_smarts="[C:1]1([H:7])([H:8])[C@@:2]2([H:9])[C:3]([H:10])([H:11])[O:4][C:5]([H:12])([H:13])[C@@:6]12[H:14]>>[C:1]([C:2]([C:3](=[O:4])[H:11])([H:9])[H:10])([C:6](=[C:5]([H:12])[H:13])[H:14])([H:7])[H:8]"
C        1.04750920       0.34779450      -0.71252884
C        0.54933625       0.68154771       0.65185961
C       -0.88738817       1.01900178       0.85588315
O       -1.69513971       0.53978717      -0.04072791
C       -0.80047159      -1.33577168      -0.63489351
C        0.51016352      -0.98868161      -0.29218773
H        0.47405138       0.80861575      -1.51225258
H        2.12500308       0.40116334      -0.83051450
H        1.17678778       0.55929545       1.52960695
H       -0.10376394       2.09122275       0.72803715
H       -1.20257809       0.96046209       1.91317747
H       -1.17199191      -1.11708580      -1.63013880
H       -1.18725225      -2.26381160      -0.21602448
H        1.16573445      -1.70353984       0.19070402
14
Frame=12 idx=003259 GeodesicLength=0.8487972145414578 rxn_smarts="[C:1]1([H:7])([H:8])[C@@:2]2([H:9])[C:3]([H:10])([H:11])[O:4][C:5]([H:12])([H:13])[C@@:6]12[H:14]>>[C:1]([C:2]([C:3](=[O:4])[H:11])([H:9])[H:10])([C:6](=[C:5]([H:12])[H:13])[H:14])([H:7])[H:8]"
C        1.04509321       0.35267338      -0.71280984
C        0.54792090       0.68560814       0.65507682
C       -0.89260784       1.02147718       0.85589010
O       -1.69366716       0.52084438      -0.03638096
C       -0.80728913      -1.32809319      -0.63165411
C        0.50849604      -0.98243397      -0.29046119
H        0.47179768       0.81627859      -1.51110207
H        2.12286529       0.40474104      -0.82888016
H        1.16939182       0.55003152       1.53495895
H       -0.07512018       2.08986442       0.72436483
H       -1.21169698       0.96737573       1.91206370
H       -1.16410647      -1.13784891      -1.63892487
H       -1.18979258      -2.25610213      -0.20746490
H        1.16871540      -1.70441618       0.17532371
14
Frame=13 idx=003259 GeodesicLength=0.9193341077965995 rxn_smarts="[C:1]1([H:7])([H:8])[C@@:2]2([H:9])[C:3]([H:10])([H:11])[O:4][C:5]([H:12])([H:13])[C@@:6]12[H:14]>>[C:1]([C:2]([C:3](=[O:4])[H:11])([H:9])[H:10])([C:6](=[C:5]([H:12])[H:13])[H:14])([H:7])[H:8]"
C        1.04264182       0.35755039      -0.71312024
C        0.54645571       0.68954617       0.65830156
C       -0.89784859       1.02412029       0.85559196
O       -1.69207597       0.50231765      -0.03205315
C       -0.81398543      -1.32057583      -0.62870942
C        0.50688265      -0.97623969      -0.28877826
H        0.46949149       0.82395414      -1.50994941
H        2.12068388       0.40838312      -0.82727394
H        1.16178381       0.54072314       1.54020305
H       -0.04624911       2.08843465       0.72142186
H       -1.22102879       0.97437133       1.91055891
H       -1.15613839      -1.15900752      -1.64690698
H       -1.19221036      -2.24835346      -0.19883482
H        1.17159728      -1.70522439       0.15954890
14
Frame=14 idx=003259 GeodesicLength=0.989890522562404 rxn_smarts="[C:1]1([H:7])([H:8])[C@@:2]2([H:9])[C:3]([H:10])([H:11])[O:4][C:5]([H:12])([H:13])[C@@:6]12[H:14]>>[C:1]([C:2]([C:3](=[O:4])[H:11])([H:9])[H:10])([C:6](=[C:5]([H:12])[H:13])[H:14])([H:7])[H:8]"
C        1.04015036       0.36242985      -0.71345972
C        0.54493847       0.69336563       0.66152711
C       -0.90312522       1.02689372       0.85501715
O       -1.69038530       0.48418142      -0.02771551
C       -0.82056707      -1.31320484      -0.62606215
C        0.50531827      -0.97009234      -0.28713962
H        0.46712812       0.83165497      -1.50878286
H        2.11845217       0.41209055      -0.82570576
H        1.15397717       0.53139975       1.54532178
H       -0.01709224       2.08688517       0.71915996
H       -1.23056346       0.98144452       1.90868659
H       -1.14805294      -1.18057046      -1.65410527
H       -1.19450725      -2.24055526      -0.19017308
H        1.17432891      -1.70592268       0.14343138
14
Frame=15 idx=003259 GeodesicLength=1.0604277945533351 rxn_smarts="[C:1]1([H:7])([H:8])[C@@:2]2([H:9])[C:3]([H:10])([H:11])[O:4][C:5]([H:12])([H:13])[C@@:6]12[H:14]>>[C:1]([C:2]([C:3](=[O:4])[H:11])([H:9])[H:10])([C:6](=[C:5]([H:12])[H:13])[H:14])([H:7])[H:8]"
C        1.03761927       0.36731028      -0.71382590
C        0.54336710       0.69706490       0.66476214
C       -0.90843900       1.02977433       0.85416336
O       -1.68860941       0.46640465      -0.02337009
C       -0.82703853      -1.30598538      -0.62370411
C        0.50380735      -0.96399378      -0.28554804
H        0.46470435       0.83938043      -1.50760032
H        2.11617480       0.41586485      -0.82416974
H        1.14596808       0.52203752       1.55032822
H        0.01234679       2.08521837       0.71755250
H       -1.24029604       0.98865354       1.90646408
H       -1.13987006      -1.20249309      -1.66051876
H       -1.19667053      -2.23272243      -0.18148889
H        1.17693583      -1.70651418       0.12695555
14
Frame=16 idx=003259 GeodesicLength=1.1309527456675117 rxn_smarts="[C:1]1([H:7])([H:8])[C@@:2]2([H:9])[C:3]([H:10])([H:11])[O:4][C:5]([H:12])([H:13])[C@@:6]12[H:14]>>[C:1]([C:2]([C:3](=[O:4])[H:11])([H:9])[H:10])([C:6](=[C:5]([H:12])[H:13])[H:14])([H:7])[H:8]"
C        1.03504590       0.37219474      -0.71422126
C        0.54174051       0.70065639       0.66800475
C       -0.91379895       1.03274278       0.85305574
O       -1.68675866       0.44897597      -0.01900140
C       -0.83340640      -1.29890951      -0.62164133
C        0.50234662      -0.95794392      -0.28400436
H        0.46221773       0.84713976      -1.50640409
H        2.11384884       0.41970065      -0.82267174
H        1.13776583       0.51265954       1.55521977
H        0.04209917       2.08340523       0.71656960
H       -1.25021765       0.99599686       1.90391384
H       -1.13157984      -1.22477785      -1.66616568
H       -1.19869513      -2.22486196      -0.17281220
H        1.17939202      -1.70697867       0.11015838
