16
Frame=0 idx=002079 GeodesicLength=0.0 rxn_smarts="[C:1]([C:2]([C:3]([H:11])([H:12])[H:13])([C:4]([C:5](=[O:6])[H:16])([H:14])[H:15])[H:10])([H:7])([H:8])[H:9]>>[C:1]([H:7])([H:8])([H:9])[H:15].[C:2](\[C:3]([H:11])([H:12])[H:13])(=[C:4](/[C:5](=[O:6])[H:16])[H:14])[H:10]"
C       -1.25336717      -1.06042026      -0.28569998
C       -0.03780953       0.41889409      -0.23116056
C       -0.88457810       1.51467167       0.34726418
C        1.21733011       0.09000858       0.48961465
C        2.15993464      -0.69093010      -0.20813729
O        1.96137523      -1.19222375      -1.31896637
H       -1.86612575      -0.64447729      -1.07638032
H       -1.81681888      -1.16898845       0.64036143
H       -0.79761215      -1.99213168      -0.62311338
H        0.11544282       0.41531078      -1.30683433
H       -0.32018721       2.44428063       0.25641878
H       -1.83547319       1.62962659      -0.17212105
H       -1.07737189       1.34674100       1.40764189
H        1.37277768       0.47079080       1.48852180
H       -0.06363351      -0.72386498       0.28568556
H        3.12611685      -0.85728763       0.30690498
16
Frame=1 idx=002079 GeodesicLength=0.11488442573046201 rxn_smarts="[C:1]([C:2]([C:3]([H:11])([H:12])[H:13])([C:4]([C:5](=[O:6])[H:16])([H:14])[H:15])[H:10])([H:7])([H:8])[H:9]>>[C:1]([H:7])([H:8])([H:9])[H:15].[C:2](\[C:3]([H:11])([H:12])[H:13])(=[C:4](/[C:5](=[O:6])[H:16])[H:14])[H:10]"
C       -1.25778919      -1.07302456      -0.29033455
C       -0.03938579       0.42099959      -0.22651676
C       -0.88055093       1.52320859       0.34949660
C        1.21224914       0.08853178       0.49090676
C        2.16602887      -0.68255862      -0.21207860
O        1.97332990      -1.17847554      -1.32419177
H       -1.87283979      -0.65748440      -1.08029283
H       -1.82430578      -1.17510598       0.63468756
H       -0.81378268      -2.00821800      -0.63366046
H        0.11552990       0.42743310      -1.30237033
H       -0.31923955       2.45390485       0.24990912
H       -1.83353277       1.63580448      -0.16697603
H       -1.07033645       1.36193900       1.41153137
H        1.38333969       0.48734253       1.48056950
H       -0.05977092      -0.75518992       0.30233878
H        3.12105635      -0.86910690       0.31698165
16
Frame=2 idx=002079 GeodesicLength=0.22924946139906338 rxn_smarts="[C:1]([C:2]([C:3]([H:11])([H:12])[H:13])([C:4]([C:5](=[O:6])[H:16])([H:14])[H:15])[H:10])([H:7])([H:8])[H:9]>>[C:1]([H:7])([H:8])([H:9])[H:15].[C:2](\[C:3]([H:11])([H:12])[H:13])(=[C:4](/[C:5](=[O:6])[H:16])[H:14])[H:10]"
C       -1.26196677      -1.08568794      -0.29500875
C       -0.04093095       0.42347430      -0.22206502
C       -0.87633796       1.53208874       0.35164172
C        1.20655799       0.08628265       0.49272236
C        2.17190329      -0.67427961      -0.21560420
O        1.98519265      -1.16467022      -1.32904991
H       -1.87949869      -0.67067150      -1.08417852
H       -1.83150639      -1.18108025       0.62897499
H       -0.83044039      -2.02457752      -0.64413579
H        0.11584896       0.43966990      -1.29796133
H       -0.31800550       2.46372797       0.24338725
H       -1.83143370       1.64231225      -0.16183726
H       -1.06311148       1.37751712       1.41528714
H        1.39320639       0.50315244       1.47253428
H       -0.05562519      -0.78776137       0.31918965
H        3.11614772      -0.87949697       0.32610341
16
Frame=3 idx=002079 GeodesicLength=0.34330540136769705 rxn_smarts="[C:1]([C:2]([C:3]([H:11])([H:12])[H:13])([C:4]([C:5](=[O:6])[H:16])([H:14])[H:15])[H:10])([H:7])([H:8])[H:9]>>[C:1]([H:7])([H:8])([H:9])[H:15].[C:2](\[C:3]([H:11])([H:12])[H:13])(=[C:4](/[C:5](=[O:6])[H:16])[H:14])[H:10]"
C       -1.26582940      -1.09840820      -0.29968976
C       -0.04244659       0.42641652      -0.21788902
C       -0.87195392       1.54135858       0.35367856
C        1.20020947       0.08326524       0.49500183
C        2.17751008      -0.66606635      -0.21872975
O        1.99696185      -1.15077771      -1.33355916
H       -1.88610959      -0.68405610      -1.08795992
H       -1.83829638      -1.18691695       0.62328800
H       -0.84758982      -2.04119843      -0.65452567
H        0.11639661       0.45208136      -1.29369477
H       -0.31651012       2.47381002       0.23685977
H       -1.82920362       1.64918092      -0.15670183
H       -1.05568705       1.39348493       1.41888701
H        1.40228471       0.51808806       1.46442652
H       -0.05113723      -0.82172163       0.33621658
H        3.11140098      -0.88854027       0.33439161
16
Frame=4 idx=002079 GeodesicLength=0.4572349797805996 rxn_smarts="[C:1]([C:2]([C:3]([H:11])([H:12])[H:13])([C:4]([C:5](=[O:6])[H:16])([H:14])[H:15])[H:10])([H:7])([H:8])[H:9]>>[C:1]([H:7])([H:8])([H:9])[H:15].[C:2](\[C:3]([H:11])([H:12])[H:13])(=[C:4](/[C:5](=[O:6])[H:16])[H:14])[H:10]"
C       -1.26932599      -1.11117870      -0.30435136
C       -0.04392858       0.42990844      -0.21406542
C       -0.86739482       1.55106713       0.35558085
C        1.19314026       0.07945240       0.49769236
C        2.18279212      -0.65792903      -0.22145616
O        2.00862355      -1.13683270      -1.33770892
H       -1.89268680      -0.69763073      -1.09155837
H       -1.84457620      -1.19260964       0.61768148
H       -0.86528149      -2.05807453      -0.66481931
H        0.11718117       0.46470562      -1.28965043
H       -0.31473922       2.48420361       0.23033849
H       -1.82684141       1.65646427      -0.15158653
H       -1.04805499       1.40985503       1.42230107
H        1.41043697       0.53193181       1.45630884
H       -0.04625185      -0.85724736       0.35340521
H        3.10690729      -0.89608562       0.34188821
16
Frame=5 idx=002079 GeodesicLength=0.5712270879313405 rxn_smarts="[C:1]([C:2]([C:3]([H:11])([H:12])[H:13])([C:4]([C:5](=[O:6])[H:16])([H:14])[H:15])[H:10])([H:7])([H:8])[H:9]>>[C:1]([H:7])([H:8])([H:9])[H:15].[C:2](\[C:3]([H:11])([H:12])[H:13])(=[C:4](/[C:5](=[O:6])[H:16])[H:14])[H:10]"
C       -1.27236095      -1.12399682      -0.30894823
C       -0.04536981       0.43407015      -0.21069686
C       -0.86267083       1.56127729       0.35731595
C        1.18527603       0.07483752       0.50070777
C        2.18770390      -0.64982075      -0.22381625
O        2.02018589      -1.12280727      -1.34152497
H       -1.89923683      -0.71140496      -1.09484960
H       -1.85017176      -1.19817305       0.61224945
H       -0.88352657      -2.07519075      -0.67500702
H        0.11819694       0.47761022      -1.28593548
H       -0.31271013       2.49498543       0.22382944
H       -1.82436836       1.66421028      -0.14650200
H       -1.04020797       1.42664484       1.42549493
H        1.41752463       0.54449296       1.44823671
H       -0.04086885      -0.89453537       0.37071091
H        3.10260466      -0.90219972       0.34873525
16
Frame=6 idx=002079 GeodesicLength=0.6853712784455885 rxn_smarts="[C:1]([C:2]([C:3]([H:11])([H:12])[H:13])([C:4]([C:5](=[O:6])[H:16])([H:14])[H:15])[H:10])([H:7])([H:8])[H:9]>>[C:1]([H:7])([H:8])([H:9])[H:15].[C:2](\[C:3]([H:11])([H:12])[H:13])(=[C:4](/[C:5](=[O:6])[H:16])[H:14])[H:10]"
C       -1.27484337      -1.13686886      -0.31344057
C       -0.04676624       0.43901238      -0.20787239
C       -0.85779480       1.57205053       0.35885432
C        1.17654489       0.06942846       0.50394851
C        2.19221750      -0.64167952      -0.22584261
O        2.03165599      -1.10866124      -1.34502982
H       -1.90576084      -0.72538810      -1.09771559
H       -1.85491864      -1.20362324       0.60707520
H       -0.90234025      -2.09253291      -0.68504934
H        0.11944303       0.49087360      -1.28264618
H       -0.31044339       2.50623205       0.21733784
H       -1.82180727       1.67246552      -0.14145805
H       -1.03214186       1.44387220       1.42843830
H        1.42339762       0.55559072       1.44025124
H       -0.03486697      -0.93377512       0.38807487
H        3.09842460      -0.90699646       0.35507426
16
Frame=7 idx=002079 GeodesicLength=0.7997415165903701 rxn_smarts="[C:1]([C:2]([C:3]([H:11])([H:12])[H:13])([C:4]([C:5](=[O:6])[H:16])([H:14])[H:15])[H:10])([H:7])([H:8])[H:9]>>[C:1]([H:7])([H:8])([H:9])[H:15].[C:2](\[C:3]([H:11])([H:12])[H:13])(=[C:4](/[C:5](=[O:6])[H:16])[H:14])[H:10]"
C       -1.27666897      -1.14980014      -0.31777781
C       -0.04810799       0.44485964      -0.20569366
C       -0.85277386       1.58346033       0.36015476
C        1.16685196       0.06320640       0.50732314
C        2.19629971      -0.63344767      -0.22756986
O        2.04304541      -1.09435345      -1.34824827
H       -1.91226252      -0.73958256      -1.10000697
H       -1.85862090      -1.20898300       0.60226852
H       -0.92174097      -2.11008643      -0.69491590
H        0.12091915       0.50456902      -1.27988980
H       -0.30794545       2.51802901       0.21086749
H       -1.81916965       1.68129358      -0.13648414
H       -1.02386077       1.46156388       1.43108683
H        1.42787008       0.56499341       1.43243964
H       -0.02810993      -0.97517955       0.40542006
H        3.09427471      -0.91054248       0.36102597
16
Frame=8 idx=002079 GeodesicLength=0.9143594033834967 rxn_smarts="[C:1]([C:2]([C:3]([H:11])([H:12])[H:13])([C:4]([C:5](=[O:6])[H:16])([H:14])[H:15])[H:10])([H:7])([H:8])[H:9]>>[C:1]([H:7])([H:8])([H:9])[H:15].[C:2](\[C:3]([H:11])([H:12])[H:13])(=[C:4](/[C:5](=[O:6])[H:16])[H:14])[H:10]"
C       -1.27772921      -1.16280417      -0.32190898
C       -0.04939201       0.45174938      -0.20426262
C       -0.84761566       1.59559181       0.36117609
C        1.15608443       0.05614994       0.51070095
C        2.19990245      -0.62507307      -0.22900586
O        2.05438537      -1.07982262      -1.35119815
H       -1.91874658      -0.75399500      -1.10154163
H       -1.86104775      -1.21428827       0.59794970
H       -0.94175630      -2.12783234      -0.70455809
H        0.12261557       0.51878583      -1.27778277
H       -0.30521792       2.53047015       0.20442184
H       -1.81646838       1.69077093      -0.13160578
H       -1.01536489       1.47975452       1.43339635
H        1.43073960       0.57245786       1.42487592
H       -0.02042793      -1.01898569       0.42259864
H        3.09003922      -0.91292926       0.36674439
16
Frame=9 idx=002079 GeodesicLength=1.029486592392355 rxn_smarts="[C:1]([C:2]([C:3]([H:11])([H:12])[H:13])([C:4]([C:5](=[O:6])[H:16])([H:14])[H:15])[H:10])([H:7])([H:8])[H:9]>>[C:1]([H:7])([H:8])([H:9])[H:15].[C:2](\[C:3]([H:11])([H:12])[H:13])(=[C:4](/[C:5](=[O:6])[H:16])[H:14])[H:10]"
C       -1.27790339      -1.17590159      -0.32576300
C       -0.05053096       0.45977272      -0.20366145
C       -0.84225434       1.60851268       0.36186113
C        1.14398113       0.04809579       0.51397112
C        2.20299727      -0.61642474      -0.23021093
O        2.06575708      -1.06495879      -1.35391088
H       -1.92519216      -0.76850161      -1.10203103
H       -1.86197817      -1.21952519       0.59422239
H       -0.96251319      -2.14575039      -0.71389382
H        0.12457061       0.53352401      -1.27638900
H       -0.30214452       2.54361207       0.19804293
H       -1.81360863       1.70100806      -0.12692842
H       -1.00665966       1.49844709       1.43529546
H        1.43153185       0.57767790       1.41751752
H       -0.01165540      -1.06563762       0.43956035
H        3.08560246      -0.91395041       0.37231763
16
Frame=10 idx=002079 GeodesicLength=1.1446381488904032 rxn_smarts="[C:1]([C:2]([C:3]([H:11])([H:12])[H:13])([C:4]([C:5](=[O:6])[H:16])([H:14])[H:15])[H:10])([H:7])([H:8])[H:9]>>[C:1]([H:7])([H:8])([H:9])[H:15].[C:2](\[C:3]([H:11])([H:12])[H:13])(=[C:4](/[C:5](=[O:6])[H:16])[H:14])[H:10]"
C       -1.27712346      -1.18911573      -0.32930380
C       -0.05157909       0.46907501      -0.20402451
C       -0.83673902       1.62231052       0.36216560
C        1.13054399       0.03914743       0.51693698
C        2.20551546      -0.60753922      -0.23112653
O        2.07719864      -1.04969454      -1.35638828
H       -1.93167737      -0.78319469      -1.10133978
H       -1.86113660      -1.22480187       0.59127294
H       -0.98394799      -2.16380046      -0.72286406
H        0.12673274       0.54893376      -1.27588074
H       -0.29879937       2.55757174       0.19168663
H       -1.81067141       1.71205542      -0.12242890
H       -0.99772209       1.51768949       1.43675120
H        1.43019782       0.58040626       1.41062773
H       -0.00160968      -1.11511222       0.45596373
H        3.08081742      -0.91393090       0.37795181
16
Frame=11 idx=002079 GeodesicLength=1.2597090712992283 rxn_smarts="[C:1]([C:2]([C:3]([H:11])([H:12])[H:13])([C:4]([C:5](=[O:6])[H:16])([H:14])[H:15])[H:10])([H:7])([H:8])[H:9]>>[C:1]([H:7])([H:8])([H:9])[H:15].[C:2](\[C:3]([H:11])([H:12])[H:13])(=[C:4](/[C:5](=[O:6])[H:16])[H:14])[H:10]"
C       -1.27531981      -1.20247606      -0.33247929
C       -0.05251487       0.47975496      -0.20545120
C       -0.83105477       1.63705456       0.36203590
C        1.11564024       0.02926712       0.51944006
C        2.20741125      -0.59838298      -0.23174362
O        2.08878708      -1.03392523      -1.35864090
H       -1.93824595      -0.79804573      -1.09926495
H       -1.85830377      -1.23017186       0.58924575
H       -1.00609794      -2.18195024      -0.73138845
H        0.12910380       0.56507785      -1.27636483
H       -0.29515226       2.57242977       0.18534704
H       -1.80763891       1.72399151      -0.11815896
H       -0.98854205       1.53750292       1.43771041
H        1.42647483       0.58037603       1.40434134
H        0.00988613      -1.16759450       0.47160823
H        3.07556701      -0.91290810       0.38376347
16
Frame=12 idx=002079 GeodesicLength=1.3745919491963834 rxn_smarts="[C:1]([C:2]([C:3]([H:11])([H:12])[H:13])([C:4]([C:5](=[O:6])[H:16])([H:14])[H:15])[H:10])([H:7])([H:8])[H:9]>>[C:1]([H:7])([H:8])([H:9])[H:15].[C:2](\[C:3]([H:11])([H:12])[H:13])(=[C:4](/[C:5](=[O:6])[H:16])[H:14])[H:10]"
C       -1.27243890      -1.21602151      -0.33525173
C       -0.05332104       0.49189872      -0.20802719
C       -0.82518100       1.65281087       0.36142532
C        1.09913697       0.01842906       0.52129488
C        2.20864368      -0.58892282      -0.23204050
O        2.10060427      -1.01754579      -1.36065942
H       -1.94493805      -0.81302466      -1.09558529
H       -1.85325286      -1.23570766       0.58828042
H       -1.02900540      -2.20016772      -0.73937755
H        0.13167514       0.58202000      -1.27793977
H       -0.29116432       2.58825775       0.17901733
H       -1.80448744       1.73689890      -0.11416099
H       -0.97910192       1.55790678       1.43812588
H        1.42010222       0.57735442       1.39876910
H        0.02301557      -1.22324930       0.48623325
H        3.06971307      -0.91093702       0.38989628
16
Frame=13 idx=002079 GeodesicLength=1.489185697845272 rxn_smarts="[C:1]([C:2]([C:3]([H:11])([H:12])[H:13])([C:4]([C:5](=[O:6])[H:16])([H:14])[H:15])[H:10])([H:7])([H:8])[H:9]>>[C:1]([H:7])([H:8])([H:9])[H:15].[C:2](\[C:3]([H:11])([H:12])[H:13])(=[C:4](/[C:5](=[O:6])[H:16])[H:14])[H:10]"
C       -1.26844545      -1.22980063      -0.33758916
C       -0.05397866       0.50557712      -0.21181492
C       -0.81909448       1.66963485       0.36029645
C        1.08091155       0.00661725       0.52230534
C        2.20916923      -0.57913540      -0.23198953
O        2.11274664      -1.00043459      -1.36243645
H       -1.95179053      -0.82811015      -1.09010192
H       -1.84579243      -1.24148762       0.58849659
H       -1.05269229      -2.21842531      -0.74671880
H        0.13443257       0.59981383      -1.28068307
H       -0.28679745       2.60511683       0.17268716
H       -1.80119164       1.75084808      -0.11046701
H       -0.96937452       1.57891798       1.43796229
H        1.41085057       0.57115747       1.39399853
H        0.03795640      -1.28217890       0.49955145
H        3.06309048      -0.90811082       0.39650305
16
Frame=14 idx=002079 GeodesicLength=1.603413627241258 rxn_smarts="[C:1]([C:2]([C:3]([H:11])([H:12])[H:13])([C:4]([C:5](=[O:6])[H:16])([H:14])[H:15])[H:10])([H:7])([H:8])[H:9]>>[C:1]([H:7])([H:8])([H:9])[H:15].[C:2](\[C:3]([H:11])([H:12])[H:13])(=[C:4](/[C:5](=[O:6])[H:16])[H:14])[H:10]"
C       -1.26334112      -1.24387443      -0.33948588
C       -0.05447943       0.52082424      -0.21685500
C       -0.81277122       1.68756376       0.35862198
C        1.06087022      -0.00615923       0.52228383
C        2.20895613      -0.56901280      -0.23156152
O        2.12529379      -0.98248411      -1.36394762
H       -1.95882254      -0.84328545      -1.08265765
H       -1.83578012      -1.24759084       0.58996804
H       -1.07718234      -2.23670810      -0.75325577
H        0.13735952       0.61850301      -1.28464917
H       -0.28200655       2.62305144       0.16635253
H       -1.79772153       1.76590247      -0.10710462
H       -0.95933360       1.60053809       1.43719602
H        1.39852151       0.56164517       1.39012131
H        0.05486520      -1.34439192       0.51127297
H        3.05557210      -0.90452128       0.40370053
16
Frame=15 idx=002079 GeodesicLength=1.7172748118101673 rxn_smarts="[C:1]([C:2]([C:3]([H:11])([H:12])[H:13])([C:4]([C:5](=[O:6])[H:16])([H:14])[H:15])[H:10])([H:7])([H:8])[H:9]>>[C:1]([H:7])([H:8])([H:9])[H:15].[C:2](\[C:3]([H:11])([H:12])[H:13])(=[C:4](/[C:5](=[O:6])[H:16])[H:14])[H:10]"
C       -1.25715546      -1.25831231      -0.34094758
C       -0.05480968       0.53764950      -0.22315513
C       -0.80618223       1.70661563       0.35639552
C        1.03895017      -0.01985728       0.52101560
C        2.20797184      -0.55856439      -0.23071635
O        2.13833268      -0.96359147      -1.36515357
H       -1.96605354      -0.85854902      -1.07314033
H       -1.82312961      -1.25410501       0.59273825
H       -1.10246613      -2.25501041      -0.75884101
H        0.14042998       0.63811941      -1.28986359
H       -0.27675944       2.64208663       0.16000442
H       -1.79404869       1.78210055      -0.10406802
H       -0.94892821       1.62276100       1.43582662
H        1.38298038       0.54876871       1.38716564
H        0.07387249      -1.40980615       0.52111014
H        3.04699545      -0.90030539       0.41162937
16
Frame=16 idx=002079 GeodesicLength=1.8308814217298084 rxn_smarts="[C:1]([C:2]([C:3]([H:11])([H:12])[H:13])([C:4]([C:5](=[O:6])[H:16])([H:14])[H:15])[H:10])([H:7])([H:8])[H:9]>>[C:1]([H:7])([H:8])([H:9])[H:15].[C:2](\[C:3]([H:11])([H:12])[H:13])(=[C:4](/[C:5](=[O:6])[H:16])[H:14])[H:10]"
C       -1.24993802      -1.27319158      -0.34200238
C       -0.05495725       0.55603839      -0.23069788
C       -0.79929849       1.72679037       0.35362727
C        1.01511146      -0.03441014       0.51830539
C        2.20618779      -0.54781603      -0.22941494
O        2.15193145      -0.94367350      -1.36600138
H       -1.97346993      -0.87390385      -1.06148146
H       -1.80780536      -1.26111465       0.59679883
H       -1.12851892      -2.27333976      -0.76328981
H        0.14362150       0.65868778      -1.29632356
H       -0.27102575       2.66223182       0.15364563
H       -1.79014327       1.79946509      -0.10133778
H       -0.93810546       1.64556559       1.43387112
H        1.36412481       0.53255624       1.38510556
H        0.09507386      -1.47826602       0.52879038
H        3.03721157      -0.89561976       0.42040500
