11
Frame=0 idx=003110 GeodesicLength=0.0 rxn_smarts="[C:1]([c:2]1[c:3]([H:10])[n:4][c:5]([H:11])[o:6]1)([H:7])([H:8])[H:9]>>[C:1]([C@@:3]1([H:10])[C-:2]=[O+:6][C:5]([H:11])=[N:4]1)([H:7])([H:8])[H:9]"
C       -1.33924524      -0.06804030      -0.09621622
C       -0.01048363      -0.17950870       1.17762185
C        0.18648663       0.88278612       0.27317123
N        1.25149539       0.66469277      -0.61798635
C        1.63169642      -0.51076595      -0.28721539
O        0.95062425      -1.10236840       0.69974670
H       -1.42127639      -1.14963463      -0.10072051
H       -2.16907376       0.38070853       0.43456338
H       -1.29689667       0.27621749      -1.13214337
H       -0.23472459       1.87211972       0.37277901
H        2.45139758      -1.06620662      -0.72360035
11
Frame=1 idx=003110 GeodesicLength=0.05239355418316526 rxn_smarts="[C:1]([c:2]1[c:3]([H:10])[n:4][c:5]([H:11])[o:6]1)([H:7])([H:8])[H:9]>>[C:1]([C@@:3]1([H:10])[C-:2]=[O+:6][C:5]([H:11])=[N:4]1)([H:7])([H:8])[H:9]"
C       -1.35400524      -0.06692582      -0.09494625
C       -0.00714897      -0.19016200       1.16146042
C        0.18633594       0.87666773       0.26126799
N        1.25380816       0.65901422      -0.62859419
C        1.65341071      -0.50439561      -0.28181131
O        0.95038897      -1.10997440       0.68517863
H       -1.45643850      -1.14728318      -0.09552131
H       -2.17165375       0.39519480       0.44390603
H       -1.32762084       0.26610033      -1.13501377
H       -0.21713333       1.87104079       0.38256578
H        2.49005685      -1.04927686      -0.69849202
11
Frame=2 idx=003110 GeodesicLength=0.10252367254689007 rxn_smarts="[C:1]([c:2]1[c:3]([H:10])[n:4][c:5]([H:11])[o:6]1)([H:7])([H:8])[H:9]>>[C:1]([C@@:3]1([H:10])[C-:2]=[O+:6][C:5]([H:11])=[N:4]1)([H:7])([H:8])[H:9]"
C       -1.36768791      -0.06628933      -0.09422488
C       -0.00408071      -0.20025273       1.14570381
C        0.18613164       0.87122774       0.24995173
N        1.25744211       0.65456952      -0.63716307
C        1.67283259      -0.49840090      -0.27737981
O        0.95136973      -1.11623386       0.67236680
H       -1.49006857      -1.14506370      -0.09002270
H       -2.17367336       0.40881675       0.45157086
H       -1.35707272       0.25521201      -1.13814362
H       -0.19973111       1.86982833       0.39280982
H        2.52453829      -1.03341382      -0.67546892
11
Frame=3 idx=003110 GeodesicLength=0.15106915607019056 rxn_smarts="[C:1]([c:2]1[c:3]([H:10])[n:4][c:5]([H:11])[o:6]1)([H:7])([H:8])[H:9]>>[C:1]([C@@:3]1([H:10])[C-:2]=[O+:6][C:5]([H:11])=[N:4]1)([H:7])([H:8])[H:9]"
C       -1.38064470      -0.06598208      -0.09391338
C       -0.00120198      -0.20999205       1.13008886
C        0.18590804       0.86624927       0.23895810
N        1.26203597       0.65104137      -0.64435506
C        1.69039788      -0.49288082      -0.27401127
O        0.95322378      -1.12160001       0.66073871
H       -1.52274913      -1.14280914      -0.08416390
H       -2.17523797       0.42187996       0.45801439
H       -1.38586959       0.24377310      -1.14137421
H       -0.18229324       1.86832694       0.40346741
H        2.55643095      -1.01800653      -0.65344965
11
Frame=4 idx=003110 GeodesicLength=0.19847659832507475 rxn_smarts="[C:1]([c:2]1[c:3]([H:10])[n:4][c:5]([H:11])[o:6]1)([H:7])([H:8])[H:9]>>[C:1]([C@@:3]1([H:10])[C-:2]=[O+:6][C:5]([H:11])=[N:4]1)([H:7])([H:8])[H:9]"
C       -1.39300112      -0.06597621      -0.09399733
C        0.00148225      -0.21941870       1.11455425
C        0.18565995       0.86168165       0.22821642
N        1.26745609       0.64835372      -0.65035969
C        1.70677030      -0.48756213      -0.27119755
O        0.95582249      -1.12619124       0.65018183
H       -1.55464204      -1.14048173      -0.07797298
H       -2.17642902       0.43444876       0.46334089
H       -1.41421046       0.23184769      -1.14467613
H       -0.16482314       1.86648427       0.41449613
H        2.58591470      -1.00318611      -0.63258584
11
Frame=5 idx=003110 GeodesicLength=0.2449938699617477 rxn_smarts="[C:1]([c:2]1[c:3]([H:10])[n:4][c:5]([H:11])[o:6]1)([H:7])([H:8])[H:9]>>[C:1]([C@@:3]1([H:10])[C-:2]=[O+:6][C:5]([H:11])=[N:4]1)([H:7])([H:8])[H:9]"
C       -1.40487589      -0.06621969      -0.09444143
C        0.00399681      -0.22858416       1.09902294
C        0.18540087       0.85747150       0.21765972
N        1.27356665       0.64639582      -0.65537722
C        1.72218969      -0.48241518      -0.26885891
O        0.95905572      -1.13013904       0.64054870
H       -1.58590339      -1.13803080      -0.07147352
H       -2.17730818       0.44659730       0.46769280
H       -1.44231127       0.21953326      -1.14797687
H       -0.14727252       1.86423712       0.42584683
H        2.61346150      -0.98884612      -0.61264305
11
Frame=6 idx=003110 GeodesicLength=0.290760593143195 rxn_smarts="[C:1]([c:2]1[c:3]([H:10])[n:4][c:5]([H:11])[o:6]1)([H:7])([H:8])[H:9]>>[C:1]([C@@:3]1([H:10])[C-:2]=[O+:6][C:5]([H:11])=[N:4]1)([H:7])([H:8])[H:9]"
C       -1.41626716      -0.06674256      -0.09526897
C        0.00631383      -0.23744997       1.08355350
C        0.18512626       0.85365705       0.20731597
N        1.28034658       0.64520632      -0.65938331
C        1.73702771      -0.47720925      -0.26655102
O        0.96289840      -1.13340654       0.63195211
H       -1.61648616      -1.13545965      -0.06472075
H       -2.17791617       0.45827989       0.47103504
H       -1.47015952       0.20685898      -1.15130716
H       -0.12977557       1.86160522       0.43749052
H        2.63889181      -0.97533947      -0.59411592
11
Frame=7 idx=003110 GeodesicLength=0.33587767362852367 rxn_smarts="[C:1]([c:2]1[c:3]([H:10])[n:4][c:5]([H:11])[o:6]1)([H:7])([H:8])[H:9]>>[C:1]([C@@:3]1([H:10])[C-:2]=[O+:6][C:5]([H:11])=[N:4]1)([H:7])([H:8])[H:9]"
C       -1.42699890      -0.06760513      -0.09665524
C        0.00838018      -0.24574227       1.06838318
C        0.18478924       0.85041667       0.19750258
N        1.28799935       0.64512137      -0.66171252
C        1.75162761      -0.47150742      -0.26359311
O        0.96754470      -1.13560648       0.62508003
H       -1.64595616      -1.13297454      -0.05792243
H       -2.17834818       0.46932176       0.47303236
H       -1.49725810       0.19350984      -1.15483603
H       -0.11265049       1.85881909       0.44943712
H        2.66087076      -0.96375289      -0.57871592
11
Frame=8 idx=003110 GeodesicLength=0.3804710741698753 rxn_smarts="[C:1]([c:2]1[c:3]([H:10])[n:4][c:5]([H:11])[o:6]1)([H:7])([H:8])[H:9]>>[C:1]([C@@:3]1([H:10])[C-:2]=[O+:6][C:5]([H:11])=[N:4]1)([H:7])([H:8])[H:9]"
C       -1.43744254      -0.06869978      -0.09833160
C        0.01032103      -0.25390505       1.05312581
C        0.18448626       0.84746283       0.18771616
N        1.29605331       0.64552496      -0.66348920
C        1.76594963      -0.46571806      -0.26046172
O        0.97259523      -1.13734721       0.61885507
H       -1.67509717      -1.13019654      -0.05086797
H       -2.17853595       0.48000775       0.47429860
H       -1.52457168       0.18008676      -1.15826370
H       -0.09552604       1.85546443       0.46155531
H        2.68176792      -0.95268010      -0.56413677
11
Frame=9 idx=003110 GeodesicLength=0.4244911579005604 rxn_smarts="[C:1]([c:2]1[c:3]([H:10])[n:4][c:5]([H:11])[o:6]1)([H:7])([H:8])[H:9]>>[C:1]([C@@:3]1([H:10])[C-:2]=[O+:6][C:5]([H:11])=[N:4]1)([H:7])([H:8])[H:9]"
C       -1.44732101      -0.07009739      -0.10055138
C        0.01203595      -0.26150622       1.03814326
C        0.18418895       0.84504699       0.17844370
N        1.30487691       0.64693993      -0.66368464
C        1.78010683      -0.45941432      -0.25656500
O        0.97837095      -1.13808320       0.61430826
H       -1.70321914      -1.12748373      -0.04383789
H       -2.17861922       0.49012362       0.47432272
H       -1.55120916       0.16604007      -1.16181225
H       -0.07884504       1.85197846       0.47392694
H        2.69963399      -0.94354421      -0.55269371
11
Frame=10 idx=003110 GeodesicLength=0.4682223825488483 rxn_smarts="[C:1]([c:2]1[c:3]([H:10])[n:4][c:5]([H:11])[o:6]1)([H:7])([H:8])[H:9]>>[C:1]([C@@:3]1([H:10])[C-:2]=[O+:6][C:5]([H:11])=[N:4]1)([H:7])([H:8])[H:9]"
C       -1.45683574      -0.07174135      -0.10317801
C        0.01359625      -0.26884018       1.02322234
C        0.18388524       0.84304526       0.16942371
N        1.31415840       0.64902808      -0.66294634
C        1.79444942      -0.45260083      -0.25181443
O        0.98460958      -1.13816256       0.61086989
H       -1.73082323      -1.12461235      -0.03670728
H       -2.17856426       0.49982005       0.47344937
H       -1.57778153       0.15172562      -1.16537778
H       -0.06244086       1.84808936       0.48642772
H        2.71574674      -0.93575110      -0.54336919
11
Frame=11 idx=003110 GeodesicLength=0.5116474839243912 rxn_smarts="[C:1]([c:2]1[c:3]([H:10])[n:4][c:5]([H:11])[o:6]1)([H:7])([H:8])[H:9]>>[C:1]([C@@:3]1([H:10])[C-:2]=[O+:6][C:5]([H:11])=[N:4]1)([H:7])([H:8])[H:9]"
C       -1.46613363      -0.07358077      -0.10611911
C        0.01505388      -0.27609640       1.00816801
C        0.18364871       0.84129813       0.16048642
N        1.32376938       0.65154278      -0.66163702
C        1.80885716      -0.44545932      -0.24650320
O        0.99119298      -1.13784722       0.60806946
H       -1.75817907      -1.12145047      -0.02935715
H       -2.17831685       0.50926811       0.47189857
H       -1.60459062       0.13729336      -1.16882286
H       -0.04621060       1.84369535       0.49900583
H        2.73090866      -0.92866354      -0.53518895
11
Frame=12 idx=003110 GeodesicLength=0.5546989566879871 rxn_smarts="[C:1]([c:2]1[c:3]([H:10])[n:4][c:5]([H:11])[o:6]1)([H:7])([H:8])[H:9]>>[C:1]([C@@:3]1([H:10])[C-:2]=[O+:6][C:5]([H:11])=[N:4]1)([H:7])([H:8])[H:9]"
C       -1.47501625      -0.07564367      -0.10953240
C        0.01641583      -0.28299176       0.99315814
C        0.18349500       0.83992184       0.15195629
N        1.33387499       0.65478223      -0.65912794
C        1.82312390      -0.43795369      -0.24066516
O        0.99831066      -1.13678822       0.60659318
H       -1.78487074      -1.11816483      -0.02196821
H       -2.17793735       0.51832800       0.46933630
H       -1.63113033       0.12243113      -1.17222239
H       -0.03034581       1.83901373       0.51173666
H        2.74408010      -0.92293477      -0.52926447
11
Frame=13 idx=003110 GeodesicLength=0.5974624749313943 rxn_smarts="[C:1]([c:2]1[c:3]([H:10])[n:4][c:5]([H:11])[o:6]1)([H:7])([H:8])[H:9]>>[C:1]([C@@:3]1([H:10])[C-:2]=[O+:6][C:5]([H:11])=[N:4]1)([H:7])([H:8])[H:9]"
C       -1.48356451      -0.07794466      -0.11333825
C        0.01769606      -0.28967686       0.97819071
C        0.18343639       0.83892868       0.14369054
N        1.34438657       0.65860247      -0.65575256
C        1.83741761      -0.43016550      -0.23421264
O        1.00585098      -1.13509530       0.60623127
H       -1.81106103      -1.11468112      -0.01455026
H       -2.17740950       0.52700746       0.46598041
H       -1.65764609       0.10738721      -1.17557018
H       -0.01486765       1.83397150       0.52453182
H        2.75576116      -0.91833389      -0.52520085
11
Frame=14 idx=003110 GeodesicLength=0.6399456007744142 rxn_smarts="[C:1]([c:2]1[c:3]([H:10])[n:4][c:5]([H:11])[o:6]1)([H:7])([H:8])[H:9]>>[C:1]([C@@:3]1([H:10])[C-:2]=[O+:6][C:5]([H:11])=[N:4]1)([H:7])([H:8])[H:9]"
C       -1.49192507      -0.08038791      -0.11746425
C        0.01896744      -0.29635455       0.96298367
C        0.18352239       0.83812032       0.13554346
N        1.35513013       0.66276798      -0.65185069
C        1.85154401      -0.42233167      -0.22765838
O        1.01370115      -1.13308272       0.60650294
H       -1.83704762      -1.11084630      -0.00692803
H       -2.17666681       0.53553048       0.46202311
H       -1.68442957       0.09223792      -1.17869879
H        0.00039522       1.82843320       0.53737461
H        2.76680873      -0.91408673      -0.52182767
11
Frame=15 idx=003110 GeodesicLength=0.6822639995897478 rxn_smarts="[C:1]([c:2]1[c:3]([H:10])[n:4][c:5]([H:11])[o:6]1)([H:7])([H:8])[H:9]>>[C:1]([C@@:3]1([H:10])[C-:2]=[O+:6][C:5]([H:11])=[N:4]1)([H:7])([H:8])[H:9]"
C       -1.50014814      -0.08295837      -0.12189994
C        0.02024454      -0.30309788       0.94745155
C        0.18374723       0.83745878       0.12749263
N        1.36606086       0.66721495      -0.64752356
C        1.86556969      -0.41446930      -0.22105730
O        1.02180915      -1.13080566       0.60730926
H       -1.86291943      -1.10660483       0.00092743
H       -2.17569975       0.54393318       0.45752538
H       -1.71159786       0.07701751      -1.18156233
H        0.01548471       1.82235424       0.55023905
H        2.77744900      -0.91004262      -0.51890215
11
Frame=16 idx=003110 GeodesicLength=0.7244344391041905 rxn_smarts="[C:1]([c:2]1[c:3]([H:10])[n:4][c:5]([H:11])[o:6]1)([H:7])([H:8])[H:9]>>[C:1]([C@@:3]1([H:10])[C-:2]=[O+:6][C:5]([H:11])=[N:4]1)([H:7])([H:8])[H:9]"
C       -1.50830788      -0.08562531      -0.12661424
C        0.02155062      -0.31002192       0.93145442
C        0.18412917       0.83686724       0.11946357
N        1.37710585       0.67183436      -0.64294815
C        1.87943591      -0.40669008      -0.21460759
O        1.03012298      -1.12838314       0.60843557
H       -1.88880576      -1.10186906       0.00909903
H       -2.17447395       0.55230082       0.45258224
H       -1.73930557       0.06179554      -1.18407863
H        0.03045148       1.81565322       0.56310830
H        2.78809714      -0.90586166      -0.51589452
