11
Frame=0 idx=003739 GeodesicLength=0.0 rxn_smarts="[C:1]([C@@:2]([N:3]([H:10])[H:11])([C:4]#[N:5])[H:9])([H:6])([H:7])[H:8]>>[C:1](=[C:2]([C:4]#[N:5])[H:9])([H:6])[H:8].[N:3]([H:7])([H:10])[H:11]"
C        1.37127071      -0.14611651      -0.05299586
C       -0.04565582       0.09978775      -0.45362507
N       -0.79774361      -0.84462527       0.54247447
C       -0.59899785       1.44643885      -0.30032760
N       -1.00754893       2.51118465      -0.16326330
H        1.80558567       0.66709292       0.52568828
H        0.24287929      -1.21101571       0.78496670
H        2.01141432      -0.41845701      -0.88841203
H       -0.28771949      -0.26763115      -1.45129666
H       -1.47106153      -1.49095132       0.13462762
H       -1.22242278      -0.34570723       1.32216346
11
Frame=1 idx=003739 GeodesicLength=0.09723903473667159 rxn_smarts="[C:1]([C@@:2]([N:3]([H:10])[H:11])([C:4]#[N:5])[H:9])([H:6])([H:7])[H:8]>>[C:1](=[C:2]([C:4]#[N:5])[H:9])([H:6])[H:8].[N:3]([H:7])([H:10])[H:11]"
C        1.37451756      -0.13633652      -0.05376140
C       -0.03704877       0.10703690      -0.45984043
N       -0.80925459      -0.85434547       0.54312569
C       -0.59501740       1.45063236      -0.30506767
N       -1.00874763       2.51049031      -0.14723410
H        1.81710677       0.68644836       0.50464728
H        0.25019701      -1.21435566       0.79929605
H        2.01429986      -0.43219410      -0.88151592
H       -0.28263530      -0.27097123      -1.45217313
H       -1.48786741      -1.49216564       0.13186629
H       -1.23555010      -0.35423931       1.32065734
11
Frame=2 idx=003739 GeodesicLength=0.19442979755921988 rxn_smarts="[C:1]([C@@:2]([N:3]([H:10])[H:11])([C:4]#[N:5])[H:9])([H:6])([H:7])[H:8]>>[C:1](=[C:2]([C:4]#[N:5])[H:9])([H:6])[H:8].[N:3]([H:7])([H:10])[H:11]"
C        1.37785174      -0.12642382      -0.05453646
C       -0.02824604       0.11455741      -0.46628735
N       -0.82097112      -0.86437074       0.54363066
C       -0.59101507       1.45494637      -0.30960944
N       -1.01015397       2.50941343      -0.13104246
H        1.82894650       0.70570969       0.48271355
H        0.25772632      -1.21741438       0.81413850
H        2.01712880      -0.44603261      -0.87394244
H       -0.27750741      -0.27424303      -1.45299956
H       -1.50513975      -1.49317046       0.12885550
H       -1.24861999      -0.36297185       1.31907950
11
Frame=3 idx=003739 GeodesicLength=0.2915856854828347 rxn_smarts="[C:1]([C@@:2]([N:3]([H:10])[H:11])([C:4]#[N:5])[H:9])([H:6])([H:7])[H:8]>>[C:1](=[C:2]([C:4]#[N:5])[H:9])([H:6])[H:8].[N:3]([H:7])([H:10])[H:11]"
C        1.38127695      -0.11636547      -0.05532846
C       -0.01923948       0.12236230      -0.47298768
N       -0.83289797      -0.87472406       0.54397677
C       -0.58699384       1.45938182      -0.31393886
N       -1.01175783       2.50793354      -0.11468393
H        1.84111217       0.72484577       0.45984934
H        0.26547762      -1.22016162       0.82952191
H        2.01987287      -0.45995268      -0.86564498
H       -0.27233904      -0.27744490      -1.45377607
H       -1.52289001      -1.49395083       0.12558739
H       -1.26162144      -0.37192387       1.31742456
11
Frame=4 idx=003739 GeodesicLength=0.3887192553485401 rxn_smarts="[C:1]([C@@:2]([N:3]([H:10])[H:11])([C:4]#[N:5])[H:9])([H:6])([H:7])[H:8]>>[C:1](=[C:2]([C:4]#[N:5])[H:9])([H:6])[H:8].[N:3]([H:7])([H:10])[H:11]"
C        1.38479382      -0.10615352      -0.05613874
C       -0.01002018       0.13046815      -0.47995094
N       -0.84504284      -0.88542584       0.54415831
C       -0.58295278       1.46393894      -0.31801718
N       -1.01355514       2.50605831      -0.09822317
H        1.85359404       0.74378611       0.43606839
H        0.27346077      -1.22259000       0.84545893
H        2.02252698      -0.47389758      -0.85663441
H       -0.26714107      -0.28056961      -1.45449045
H       -1.54112858      -1.49449359       0.12206387
H       -1.27453500      -0.38112137       1.31570539
11
Frame=5 idx=003739 GeodesicLength=0.4858523121636624 rxn_smarts="[C:1]([C@@:2]([N:3]([H:10])[H:11])([C:4]#[N:5])[H:9])([H:6])([H:7])[H:8]>>[C:1](=[C:2]([C:4]#[N:5])[H:9])([H:6])[H:8].[N:3]([H:7])([H:10])[H:11]"
C        1.38840719      -0.09577447      -0.05698072
C       -0.00057621       0.13889159      -0.48720797
N       -0.85741088      -0.89649710       0.54416145
C       -0.57888936       1.46861867      -0.32183340
N       -1.01554735       2.50376856      -0.08165463
H        1.86639629       0.76248430       0.41135220
H        0.28168990      -1.22466464       0.86197730
H        2.02505667      -0.48784570      -0.84686914
H       -0.26191755      -0.28361681      -1.45514267
H       -1.55986524      -1.49478588       0.11827930
H       -1.28734347      -0.39057850       1.31391827
11
Frame=6 idx=003739 GeodesicLength=0.5829994844411927 rxn_smarts="[C:1]([C@@:2]([N:3]([H:10])[H:11])([C:4]#[N:5])[H:9])([H:6])([H:7])[H:8]>>[C:1](=[C:2]([C:4]#[N:5])[H:9])([H:6])[H:8].[N:3]([H:7])([H:10])[H:11]"
C        1.39211482      -0.08522260      -0.05785155
C        0.00910243       0.14764905      -0.49477234
N       -0.87001657      -0.90795559       0.54397923
C       -0.57480010       1.47341993      -0.32535959
N       -1.01773780       2.50106627      -0.06502717
H        1.87951202       0.78086667       0.38570965
H        0.29017144      -1.22638280       0.87908901
H        2.02747276      -0.50173064      -0.83636261
H       -0.25667754      -0.28658768      -1.45571895
H       -1.57911445      -1.49480525       0.11424037
H       -1.30002701      -0.40031737       1.31207396
11
Frame=7 idx=003739 GeodesicLength=0.6801728392746496 rxn_smarts="[C:1]([C@@:2]([N:3]([H:10])[H:11])([C:4]#[N:5])[H:9])([H:6])([H:7])[H:8]>>[C:1](=[C:2]([C:4]#[N:5])[H:9])([H:6])[H:8].[N:3]([H:7])([H:10])[H:11]"
C        1.39591883      -0.07448771      -0.05876210
C        0.01902965       0.15675685      -0.50268371
N       -0.88286938      -0.91982378       0.54359734
C       -0.57067763       1.47834027      -0.32859068
N       -1.02013543       2.49792830      -0.04832858
H        1.89294910       0.79887418       0.35912459
H        0.29891209      -1.22770955       0.89681725
H        2.02975245      -0.51550980      -0.82507637
H       -0.25142373      -0.28948834      -1.45621653
H       -1.59889234      -1.49453206       0.10994889
H       -1.31256359      -0.41034837       1.31016991
11
Frame=8 idx=003739 GeodesicLength=0.777367003137687 rxn_smarts="[C:1]([C@@:2]([N:3]([H:10])[H:11])([C:4]#[N:5])[H:9])([H:6])([H:7])[H:8]>>[C:1](=[C:2]([C:4]#[N:5])[H:9])([H:6])[H:8].[N:3]([H:7])([H:10])[H:11]"
C        1.39981809      -0.06355961      -0.05972169
C        0.02921829       0.16623116      -0.51097670
N       -0.89597972      -0.93212177       0.54300304
C       -0.56651679       1.48337482      -0.33152820
N       -1.02274710       2.49433982      -0.03155348
H        1.90670447       0.81643714       0.33160596
H        0.30791470      -1.22861758       0.91517903
H        2.03188985      -0.52912910      -0.81299982
H       -0.24616088      -0.29233183      -1.45662955
H       -1.61920991      -1.49394122       0.10541605
H       -1.32493099      -0.42068183       1.30820535
11
Frame=9 idx=003739 GeodesicLength=0.8745987304723734 rxn_smarts="[C:1]([C@@:2]([N:3]([H:10])[H:11])([C:4]#[N:5])[H:9])([H:6])([H:7])[H:8]>>[C:1](=[C:2]([C:4]#[N:5])[H:9])([H:6])[H:8].[N:3]([H:7])([H:10])[H:11]"
C        1.40380726      -0.05243275      -0.06072592
C        0.03970036       0.17610036      -0.51970843
N       -0.90936481      -0.94487733       0.54220235
C       -0.56231063       1.48849524      -0.33417500
N       -1.02558071       2.49031634      -0.01470650
H        1.92073548       0.83350856       0.30320595
H        0.31716289      -1.22910828       0.93415565
H        2.03391475      -0.54253523      -0.80017648
H       -0.24089043      -0.29515687      -1.45692151
H       -1.64007846      -1.49297375       0.10067908
H       -1.33709569      -0.43133628       1.30617081
11
Frame=10 idx=003739 GeodesicLength=0.9718622344663846 rxn_smarts="[C:1]([C@@:2]([N:3]([H:10])[H:11])([C:4]#[N:5])[H:9])([H:6])([H:7])[H:8]>>[C:1](=[C:2]([C:4]#[N:5])[H:9])([H:6])[H:8].[N:3]([H:7])([H:10])[H:11]"
C        1.40788917      -0.04109297      -0.06180660
C        0.05047520       0.18637876      -0.52890570
N       -0.92303726      -0.95809572       0.54116626
C       -0.55804685       1.49372304      -0.33651891
N       -1.02865298       2.48580503       0.00219341
H        1.93506747       0.84998224       0.27394055
H        0.32669081      -1.22913520       0.95378176
H        2.03577389      -0.55567332      -0.78656353
H       -0.23562249      -0.29793816      -1.45710434
H       -1.66150403      -1.49164056       0.09573051
H       -1.34903294      -0.44231314       1.30408660
11
Frame=11 idx=003739 GeodesicLength=1.0691490850740635 rxn_smarts="[C:1]([C@@:2]([N:3]([H:10])[H:11])([C:4]#[N:5])[H:9])([H:6])([H:7])[H:8]>>[C:1](=[C:2]([C:4]#[N:5])[H:9])([H:6])[H:8].[N:3]([H:7])([H:10])[H:11]"
C        1.41206482      -0.02952868      -0.06298406
C        0.06156225       0.19709207      -0.53861056
N       -0.93701087      -0.97178918       0.53988570
C       -0.55371383       1.49905568      -0.33855559
N       -1.03198090       2.48078620       0.01911194
H        1.94967980       0.86577588       0.24389491
H        0.33650898      -1.22868754       0.97405336
H        2.03745466      -0.56848935      -0.77219545
H       -0.23036611      -0.30068150      -1.45716006
H       -1.68349185      -1.48991445       0.09059644
H       -1.36070694      -0.45361913       1.30196336
11
Frame=12 idx=003739 GeodesicLength=1.166457520820167 rxn_smarts="[C:1]([C@@:2]([N:3]([H:10])[H:11])([C:4]#[N:5])[H:9])([H:6])([H:7])[H:8]>>[C:1](=[C:2]([C:4]#[N:5])[H:9])([H:6])[H:8].[N:3]([H:7])([H:10])[H:11]"
C        1.41633057      -0.01773166      -0.06428047
C        0.07297825       0.20825851      -0.54888040
N       -0.95130590      -0.98597329       0.53834774
C       -0.54930107       1.50448338      -0.34030243
N       -1.03557055       2.47523771       0.03606337
H        1.96456474       0.88082263       0.21313261
H        0.34663171      -1.22772956       0.99498403
H        2.03893840      -0.58093059      -0.75708667
H       -0.22512527      -0.30340306      -1.45707605
H       -1.70605069      -1.48777272       0.08529825
H       -1.37209020      -0.46526135       1.29980002
11
Frame=13 idx=003739 GeodesicLength=1.2637672547297345 rxn_smarts="[C:1]([C@@:2]([N:3]([H:10])[H:11])([C:4]#[N:5])[H:9])([H:6])([H:7])[H:8]>>[C:1](=[C:2]([C:4]#[N:5])[H:9])([H:6])[H:8].[N:3]([H:7])([H:10])[H:11]"
C        1.42068305      -0.00569645      -0.06572403
C        0.08474275       0.21990629      -0.55976414
N       -0.96593978      -1.00065913       0.53654243
C       -0.54479591       1.50999944      -0.34176453
N       -1.03943769       2.46913669       0.05300675
H        1.97969724       0.89504263       0.18178277
H        0.35707343      -1.22625209       1.01656969
H        2.04021979      -0.59293753      -0.74130081
H       -0.21991152      -0.30611000      -1.45683041
H       -1.72919036      -1.48518515       0.07987197
H       -1.38314102      -0.47724471       1.29761030
11
Frame=14 idx=003739 GeodesicLength=1.361072246492434 rxn_smarts="[C:1]([C@@:2]([N:3]([H:10])[H:11])([C:4]#[N:5])[H:9])([H:6])([H:7])[H:8]>>[C:1](=[C:2]([C:4]#[N:5])[H:9])([H:6])[H:8].[N:3]([H:7])([H:10])[H:11]"
C        1.42511285       0.00658129      -0.06733951
C        0.09687486       0.23205636      -0.57133458
N       -0.98094202      -1.01586677       0.53445484
C       -0.54018916       1.51558896      -0.34296974
N       -1.04358255       2.46244602       0.06996537
H        1.99507675       0.90837889       0.14991834
H        0.36784438      -1.22422062       1.03881988
H        2.04128932      -0.60444710      -0.72485550
H       -0.21472812      -0.30882189      -1.45640021
H       -1.75292648      -1.48211887       0.07434725
H       -1.39382985      -0.48957628       1.29539385
11
Frame=15 idx=003739 GeodesicLength=1.458355539719465 rxn_smarts="[C:1]([C@@:2]([N:3]([H:10])[H:11])([C:4]#[N:5])[H:9])([H:6])([H:7])[H:8]>>[C:1](=[C:2]([C:4]#[N:5])[H:9])([H:6])[H:8].[N:3]([H:7])([H:10])[H:11]"
C        1.42961242       0.01910235      -0.06915862
C        0.10939625       0.24474034      -0.58365429
N       -0.99634061      -1.03161053       0.53207382
C       -0.53546543       1.52124135      -0.34392634
N       -1.04802291       2.45513219       0.08689906
H        2.01069259       0.92076007       0.11767725
H        0.37896374      -1.22162152       1.06173277
H        2.04213803      -0.61539713      -0.70781750
H       -0.20958566      -0.31154251      -1.45575244
H       -1.77727437      -1.47853768       0.06876391
H       -1.40411405      -0.50226692       1.29316237
11
Frame=16 idx=003739 GeodesicLength=1.5555953409018075 rxn_smarts="[C:1]([C@@:2]([N:3]([H:10])[H:11])([C:4]#[N:5])[H:9])([H:6])([H:7])[H:8]>>[C:1](=[C:2]([C:4]#[N:5])[H:9])([H:6])[H:8].[N:3]([H:7])([H:10])[H:11]"
C        1.43416970       0.03186899      -0.07121516
C        0.12232818       0.25798510      -0.59680064
N       -1.01216975      -1.04790873       0.52938452
C       -0.53061683       1.52693812      -0.34466644
N       -1.05275790       2.44715730       0.10381416
H        2.02654080       0.93213743       0.08517524
H        0.39044818      -1.21842555       1.08531451
H        2.04275103      -0.62573426      -0.69023073
H       -0.20448845      -0.31428311      -1.45485310
H       -1.80224652      -1.47440702       0.06316130
H       -1.41395845      -0.51532827       1.29091635
