10
Frame=0 idx=006531 GeodesicLength=0.0 rxn_smarts="[O:1]=[c:2]1[n:3]([H:8])[n:4][c:5]([H:9])[c:6]([H:10])[n:7]1>>[O:1]=[C:6](/[C:5](=[N:4]\[N:3]([C:2]#[N:7])[H:8])[H:9])[H:10]"
O        0.85817451      -0.82431406      -0.96985463
C        0.98051046      -0.54991449       0.29717297
N        1.20581771       0.77413485       0.68355447
N       -0.01704697       1.39832644       0.22261126
C       -0.91841356       0.61747742      -0.20211223
C       -0.73416018      -0.92669703      -0.13134435
N        0.02715028      -1.20270277       0.97075715
H        1.95707743       1.25420000       0.20620057
H       -1.85190486       1.04732903      -0.54346943
H       -1.50720480      -1.58783937      -0.53351577
10
Frame=1 idx=006531 GeodesicLength=0.1302378997288584 rxn_smarts="[O:1]=[c:2]1[n:3]([H:8])[n:4][c:5]([H:9])[c:6]([H:10])[n:7]1>>[O:1]=[C:6](/[C:5](=[N:4]\[N:3]([C:2]#[N:7])[H:8])[H:9])[H:10]"
O        0.86943429      -0.84204211      -0.97342887
C        0.99607298      -0.55460008       0.31240696
N        1.19731980       0.77893524       0.67619891
N       -0.01886540       1.39953227       0.21405115
C       -0.92225571       0.61801725      -0.20983268
C       -0.73813385      -0.92157549      -0.14310816
N        0.04242873      -1.20980313       0.97706520
H        1.95801137       1.25843044       0.21453080
H       -1.86252337       1.04896492      -0.53063523
H       -1.52148884      -1.57585932      -0.53724807
10
Frame=2 idx=006531 GeodesicLength=0.26045083766157057 rxn_smarts="[O:1]=[c:2]1[n:3]([H:8])[n:4][c:5]([H:9])[c:6]([H:10])[n:7]1>>[O:1]=[C:6](/[C:5](=[N:4]\[N:3]([C:2]#[N:7])[H:8])[H:9])[H:10]"
O        0.88052503      -0.86006919      -0.97708560
C        1.01170888      -0.55902890       0.32799326
N        1.18891459       0.78335386       0.66831880
N       -0.02077759       1.40068692       0.20569287
C       -0.92637891       0.61869120      -0.21731179
C       -0.74211036      -0.91633899      -0.15548148
N        0.05803879      -1.21691128       0.98369383
H        1.95868755       1.26280312       0.22303658
H       -1.87284135       1.05065444      -0.51794526
H       -1.53576665      -1.56384118      -0.54091121
10
Frame=3 idx=006531 GeodesicLength=0.3906360640910348 rxn_smarts="[O:1]=[c:2]1[n:3]([H:8])[n:4][c:5]([H:9])[c:6]([H:10])[n:7]1>>[O:1]=[C:6](/[C:5](=[N:4]\[N:3]([C:2]#[N:7])[H:8])[H:9])[H:10]"
O        0.89141675      -0.87840676      -0.98084291
C        1.02743277      -0.56318958       0.34392644
N        1.18062162       0.78737329       0.65989542
N       -0.02279719       1.40178352       0.19760291
C       -0.93079766       0.61949906      -0.22448862
C       -0.74609961      -0.91098013      -0.16848554
N        0.07402934      -1.22404103       0.99065753
H        1.95909016       1.26732819       0.23172190
H       -1.88284906       1.05241557      -0.50550588
H       -1.55004712      -1.55178213      -0.54448126
10
Frame=4 idx=006531 GeodesicLength=0.5207906073711284 rxn_smarts="[O:1]=[c:2]1[n:3]([H:8])[n:4][c:5]([H:9])[c:6]([H:10])[n:7]1>>[O:1]=[C:6](/[C:5](=[N:4]\[N:3]([C:2]#[N:7])[H:8])[H:9])[H:10]"
O        0.90208255      -0.89707409      -0.98471601
C        1.04326107      -0.56707001       0.36020318
N        1.17246006       0.79097602       0.65090634
N       -0.02493720       1.40281535       0.18984439
C       -0.93552195       0.62044059      -0.23131342
C       -0.75011190      -0.90548884      -0.18214693
N        0.09044813      -1.23120250       0.99797157
H        1.95920486       1.27201400       0.24059612
H       -1.89255034       1.05426918      -0.49340925
H       -1.56433528      -1.53967970      -0.54793600
10
Frame=5 idx=006531 GeodesicLength=0.6509136813670231 rxn_smarts="[O:1]=[c:2]1[n:3]([H:8])[n:4][c:5]([H:9])[c:6]([H:10])[n:7]1>>[O:1]=[C:6](/[C:5](=[N:4]\[N:3]([C:2]#[N:7])[H:8])[H:9])[H:10]"
O        0.91252514      -0.91612211      -0.98869743
C        1.05920461      -0.57065548       0.37683962
N        1.16444290       0.79414829       0.64132169
N       -0.02719990       1.40378001       0.18242994
C       -0.94054129       0.62152085      -0.23780861
C       -0.75415013      -0.89984892      -0.19652303
N        0.10731552      -1.23838272       1.00565789
H        1.95902219       1.27686094       0.24968088
H       -1.90199427       1.05622505      -0.48162091
H       -1.57862475      -1.52752590      -0.55128004
10
Frame=6 idx=006531 GeodesicLength=0.780992110979039 rxn_smarts="[O:1]=[c:2]1[n:3]([H:8])[n:4][c:5]([H:9])[c:6]([H:10])[n:7]1>>[O:1]=[C:6](/[C:5](=[N:4]\[N:3]([C:2]#[N:7])[H:8])[H:9])[H:10]"
O        0.92264018      -0.93552009      -0.99284929
C        1.07530076      -0.57393277       0.39378701
N        1.15660223       0.79685813       0.63111234
N       -0.02962266       1.40465601       0.17553858
C       -0.94590154       0.62272533      -0.24378200
C       -0.75824717      -0.89404964      -0.21158386
N        0.12475443      -1.24563358       1.01371676
H        1.95851411       1.28189036       0.25899021
H       -1.91110801       1.05833420      -0.47050621
H       -1.59293233      -1.51532795      -0.55442354
10
Frame=7 idx=006531 GeodesicLength=0.9110412670549239 rxn_smarts="[O:1]=[c:2]1[n:3]([H:8])[n:4][c:5]([H:9])[c:6]([H:10])[n:7]1>>[O:1]=[C:6](/[C:5](=[N:4]\[N:3]([C:2]#[N:7])[H:8])[H:9])[H:10]"
O        0.93257724      -0.95546560      -0.99705098
C        1.09152291      -0.57687399       0.41115696
N        1.14892288       0.79912057       0.62020649
N       -0.03214843       1.40546613       0.16891238
C       -0.95151187       0.62408202      -0.24957801
C       -0.76236878      -0.88805790      -0.22753282
N        0.14263945      -1.25283998       1.02220184
H        1.95770483       1.28707952       0.26860358
H       -1.92012810       1.06054560      -0.45940079
H       -1.60721014      -1.50305636      -0.55751865
10
Frame=8 idx=006531 GeodesicLength=1.0410602141506344 rxn_smarts="[O:1]=[c:2]1[n:3]([H:8])[n:4][c:5]([H:9])[c:6]([H:10])[n:7]1>>[O:1]=[C:6](/[C:5](=[N:4]\[N:3]([C:2]#[N:7])[H:8])[H:9])[H:10]"
O        0.94224986      -0.97597033      -1.00134399
C        1.10790118      -0.57945903       0.42891514
N        1.14143520       0.80090375       0.60854833
N       -0.03480439       1.40619459       0.16268253
C       -0.95740346       0.62558494      -0.25507038
C       -0.76654319      -0.88185559      -0.24437619
N        0.16107072      -1.26002992       1.03112671
H        1.95656372       1.29245120       0.27856478
H       -1.92900780       1.06289227      -0.44854311
H       -1.62146184      -1.49071187      -0.56050380
10
Frame=9 idx=006531 GeodesicLength=1.1710422825697504 rxn_smarts="[O:1]=[c:2]1[n:3]([H:8])[n:4][c:5]([H:9])[c:6]([H:10])[n:7]1>>[O:1]=[C:6](/[C:5](=[N:4]\[N:3]([C:2]#[N:7])[H:8])[H:9])[H:10]"
O        0.95165594      -0.99713691      -1.00568941
C        1.12443859      -0.58165213       0.44708766
N        1.13415238       0.80219178       0.59604236
N       -0.03757319       1.40683240       0.15678986
C       -0.96355617       0.62723738      -0.26034099
C       -0.77077394      -0.87540796      -0.26221758
N        0.18005760      -1.26715663       1.04051988
H        1.95507853       1.29801010       0.28897329
H       -1.93781615       1.06535753      -0.43775194
H       -1.63566358      -1.47827556      -0.56341314
10
Frame=10 idx=006531 GeodesicLength=1.3010044594021428 rxn_smarts="[O:1]=[c:2]1[n:3]([H:8])[n:4][c:5]([H:9])[c:6]([H:10])[n:7]1>>[O:1]=[C:6](/[C:5](=[N:4]\[N:3]([C:2]#[N:7])[H:8])[H:9])[H:10]"
O        0.96078451      -1.01907620      -1.01006746
C        1.14114392      -0.58342296       0.46568628
N        1.12709905       0.80296477       0.58258244
N       -0.04044934       1.40738132       0.15122328
C       -0.96995688       0.62905414      -0.26545013
C       -0.77507032      -0.86868524      -0.28115870
N        0.19961902      -1.27419217       1.05041708
H        1.95322295       1.30377849       0.29993022
H       -1.94659846       1.06794033      -0.42690498
H       -1.64979447      -1.46574249      -0.56625801
10
Frame=11 idx=006531 GeodesicLength=1.4309405922176879 rxn_smarts="[O:1]=[c:2]1[n:3]([H:8])[n:4][c:5]([H:9])[c:6]([H:10])[n:7]1>>[O:1]=[C:6](/[C:5](=[N:4]\[N:3]([C:2]#[N:7])[H:8])[H:9])[H:10]"
O        0.96959270      -1.04190065      -1.01446508
C        1.15802729      -0.58472984       0.48470337
N        1.12030698       0.80318947       0.56804435
N       -0.04342679       1.40782860       0.14600118
C       -0.97658672       0.63104495      -0.27045125
C       -0.77944246      -0.86164838      -0.30131166
N        0.21979406      -1.28109730       1.06084177
H        1.95094191       1.30978502       0.31157040
H       -1.95536876       1.07062510      -0.41592315
H       -1.66383821      -1.45309697      -0.56900993
10
Frame=12 idx=006531 GeodesicLength=1.5608162475542933 rxn_smarts="[O:1]=[c:2]1[n:3]([H:8])[n:4][c:5]([H:9])[c:6]([H:10])[n:7]1>>[O:1]=[C:6](/[C:5](=[N:4]\[N:3]([C:2]#[N:7])[H:8])[H:9])[H:10]"
O        0.97796652      -1.06571898      -1.01884232
C        1.17509678      -0.58550160       0.50412811
N        1.11381922       0.80282320       0.55222034
N       -0.04648695       1.40812023       0.14110296
C       -0.98343867       0.63319454      -0.27536405
C       -0.78391570      -0.85423431      -0.32275908
N        0.24065750      -1.28778467       1.07183367
H        1.94817104       1.31602822       0.32409843
H       -1.96413607       1.07338066      -0.40470780
H       -1.67773365      -1.44030728      -0.57171025
10
Frame=13 idx=006531 GeodesicLength=1.6907242689904967 rxn_smarts="[O:1]=[c:2]1[n:3]([H:8])[n:4][c:5]([H:9])[c:6]([H:10])[n:7]1>>[O:1]=[C:6](/[C:5](=[N:4]\[N:3]([C:2]#[N:7])[H:8])[H:9])[H:10]"
O        0.98590561      -1.09075259      -1.02320418
C        1.19238939      -0.58571418       0.52392866
N        1.10771359       0.80186020       0.53489087
N       -0.04961593       1.40830892       0.13653760
C       -0.99051152       0.63555646      -0.28026467
C       -0.78852610      -0.84643322      -0.34563864
N        0.26222452      -1.29425925       1.08344073
H        1.94486897       1.32261547       0.33776527
H       -1.97296006       1.07624747      -0.39312656
H       -1.69148847      -1.42742926      -0.57432908
10
Frame=14 idx=006531 GeodesicLength=1.8205281730046812 rxn_smarts="[O:1]=[c:2]1[n:3]([H:8])[n:4][c:5]([H:9])[c:6]([H:10])[n:7]1>>[O:1]=[C:6](/[C:5](=[N:4]\[N:3]([C:2]#[N:7])[H:8])[H:9])[H:10]"
O        0.99312036      -1.11706650      -1.02753862
C        1.20993166      -0.58525201       0.54400185
N        1.10204970       0.80016945       0.51577247
N       -0.05280330       1.40823065       0.13241143
C       -0.99775946       0.63808293      -0.28514819
C       -0.79329543      -0.83812201      -0.37002609
N        0.28470801      -1.30036361       1.09566567
H        1.94076932       1.32951126       0.35291672
H       -1.98170768       1.07915732      -0.38131906
H       -1.70501318      -1.41434747      -0.57673618
10
Frame=15 idx=006531 GeodesicLength=1.950326020228958 rxn_smarts="[O:1]=[c:2]1[n:3]([H:8])[n:4][c:5]([H:9])[c:6]([H:10])[n:7]1>>[O:1]=[C:6](/[C:5](=[N:4]\[N:3]([C:2]#[N:7])[H:8])[H:9])[H:10]"
O        0.99954064      -1.14502624      -1.03183095
C        1.22777763      -0.58404253       0.56425467
N        1.09698071       0.79776997       0.49439214
N       -0.05597585       1.40793581       0.12861954
C       -1.00517873       0.64082876      -0.29011936
C       -0.79830166      -0.82929992      -0.39604942
N        0.30814494      -1.30601915       1.10858854
H        1.93576674       1.33685311       0.37012123
H       -1.99045957       1.08215161      -0.36898349
H       -1.71829486      -1.40115142      -0.57899290
10
Frame=16 idx=006531 GeodesicLength=2.08009872957677 rxn_smarts="[O:1]=[c:2]1[n:3]([H:8])[n:4][c:5]([H:9])[c:6]([H:10])[n:7]1>>[O:1]=[C:6](/[C:5](=[N:4]\[N:3]([C:2]#[N:7])[H:8])[H:9])[H:10]"
O        1.00487648      -1.17490608      -1.03607351
C        1.24601680      -0.58194840       0.58449082
N        1.09269710       0.79457299       0.47019498
N       -0.05906343       1.40730331       0.12520812
C       -1.01271895       0.64379496      -0.29525348
C       -0.80361411      -0.81988190      -0.42382462
N        0.33276652      -1.31104893       1.12223800
H        1.92946073       1.34468898       0.39010105
H       -1.99912768       1.08522228      -0.35612756
H       -1.73129346      -1.38779722      -0.58095381
