11
Frame=0 idx=001564 GeodesicLength=0.0 rxn_smarts="[C:1]([C:2]([O:3][C:4](=[O:5])[H:11])([H:9])[H:10])([H:6])([H:7])[H:8]>>[C:1]([C:2]([O+:3]=[C-:4][O:5][H:11])([H:9])[H:10])([H:6])([H:7])[H:8]"
C       -1.47426242       0.45151557       0.64594371
C       -0.28984483      -0.29685738       0.08926095
O        0.72361691       0.69442269      -0.23995880
C        1.84886295       0.27245675      -0.73451851
O        2.03452693      -0.98993248      -0.91709998
H       -1.86684570       1.15803143      -0.08589952
H       -2.26549379      -0.25432477       0.90315056
H       -1.19832270       1.00338780       1.54490805
H       -0.54100672      -0.85225668      -0.81515634
H        0.12990571      -0.99839980       0.81115103
H        2.89886368      -0.18804313      -1.20178113
11
Frame=1 idx=001564 GeodesicLength=0.02630707825561679 rxn_smarts="[C:1]([C:2]([O:3][C:4](=[O:5])[H:11])([H:9])[H:10])([H:6])([H:7])[H:8]>>[C:1]([C:2]([O+:3]=[C-:4][O:5][H:11])([H:9])[H:10])([H:6])([H:7])[H:8]"
C       -1.47392145       0.45144880       0.64820016
C       -0.29111325      -0.29678031       0.08766700
O        0.72160870       0.69367335      -0.24376155
C        1.83787215       0.27424872      -0.76175535
O        2.03085124      -0.98800578      -0.92350781
H       -1.86833888       1.15854625      -0.08213067
H       -2.26483417      -0.25421465       0.90701231
H       -1.19548607       1.00276834       1.54674270
H       -0.54644055      -0.85325119      -0.81498541
H        0.13175467      -0.99798120       0.80811774
H        2.91804761      -0.19045234      -1.17159911
11
Frame=2 idx=001564 GeodesicLength=0.05253632494700026 rxn_smarts="[C:1]([C:2]([O:3][C:4](=[O:5])[H:11])([H:9])[H:10])([H:6])([H:7])[H:8]>>[C:1]([C:2]([O+:3]=[C-:4][O:5][H:11])([H:9])[H:10])([H:6])([H:7])[H:8]"
C       -1.47323003       0.45143587       0.65027229
C       -0.29217542      -0.29684033       0.08601512
O        0.71996282       0.69255743      -0.24768606
C        1.82700393       0.27541098      -0.78833579
O        2.02745304      -0.98619171      -0.92994735
H       -1.86935693       1.15908365      -0.07862757
H       -2.26389105      -0.25389822       0.91074165
H       -1.19223455       1.00222044       1.54833348
H       -0.55163665      -0.85436992      -0.81484472
H        0.13364664      -0.99775538       0.80504524
H        2.93445820      -0.19165282      -1.14096630
11
Frame=3 idx=001564 GeodesicLength=0.0787198871472872 rxn_smarts="[C:1]([C:2]([O:3][C:4](=[O:5])[H:11])([H:9])[H:10])([H:6])([H:7])[H:8]>>[C:1]([C:2]([O+:3]=[C-:4][O:5][H:11])([H:9])[H:10])([H:6])([H:7])[H:8]"
C       -1.47255304       0.45151585       0.65181875
C       -0.29293432      -0.29708181       0.08496015
O        0.71930918       0.69097979      -0.24973627
C        1.81741691       0.27581026      -0.81124794
O        2.02535283      -0.98468608      -0.93363409
H       -1.86936804       1.15997207      -0.07593172
H       -2.26346525      -0.25326495       0.91296656
H       -1.18974581       1.00150809       1.54979337
H       -0.55570224      -0.85537888      -0.81451466
H        0.13480427      -0.99804433       0.80283131
H        2.94688551      -0.19133000      -1.11730544
11
Frame=4 idx=001564 GeodesicLength=0.10496075655609366 rxn_smarts="[C:1]([C:2]([O:3][C:4](=[O:5])[H:11])([H:9])[H:10])([H:6])([H:7])[H:8]>>[C:1]([C:2]([O+:3]=[C-:4][O:5][H:11])([H:9])[H:10])([H:6])([H:7])[H:8]"
C       -1.47190681       0.45167172       0.65309848
C       -0.29355122      -0.29744155       0.08420071
O        0.71917828       0.68911223      -0.25095138
C        1.80865191       0.27566128      -0.83183525
O        2.02391251      -0.98335665      -0.93611087
H       -1.86891856       1.16102272      -0.07368250
H       -2.26332068      -0.25243453       0.91453333
H       -1.18765049       1.00080821       1.55113197
H       -0.55918692      -0.85636190      -0.81409112
H        0.13552938      -0.99865207       0.80105381
H        2.95726258      -0.19002945      -1.09734718
11
Frame=5 idx=001564 GeodesicLength=0.13122636858662973 rxn_smarts="[C:1]([C:2]([O:3][C:4](=[O:5])[H:11])([H:9])[H:10])([H:6])([H:7])[H:8]>>[C:1]([C:2]([O+:3]=[C-:4][O:5][H:11])([H:9])[H:10])([H:6])([H:7])[H:8]"
C       -1.47128018       0.45188506       0.65417648
C       -0.29408543      -0.29790111       0.08366131
O        0.71941504       0.68701008      -0.25156123
C        1.80046556       0.27507824      -0.85061776
O        2.02294270      -0.98213722      -0.93767313
H       -1.86812673       1.16220247      -0.07177178
H       -2.26339223      -0.25144180       0.91560989
H       -1.18581036       1.00011386       1.55237679
H       -0.56228740      -0.85733548      -0.81359934
H        0.13591313      -0.99951515       0.79960732
H        2.96624590      -0.18795896      -1.08020855
11
Frame=6 idx=001564 GeodesicLength=0.1574977547222599 rxn_smarts="[C:1]([C:2]([O:3][C:4](=[O:5])[H:11])([H:9])[H:10])([H:6])([H:7])[H:8]>>[C:1]([C:2]([O+:3]=[C-:4][O:5][H:11])([H:9])[H:10])([H:6])([H:7])[H:8]"
C       -1.47066003       0.45214298       0.65511391
C       -0.29457210      -0.29843904       0.08326594
O        0.71989304       0.68471872      -0.25179875
C        1.79270232       0.27414237      -0.86800010
O        2.02227104      -0.98098152      -0.93867783
H       -1.86710422       1.16344949      -0.07010607
H       -2.26359808      -0.25031852       0.91638469
H       -1.18412111       0.99945299       1.55353107
H       -0.56513425      -0.85830918      -0.81306585
H        0.13604061      -1.00056615       0.79837768
H        2.97428278      -0.18529212      -1.06502468
11
Frame=7 idx=001564 GeodesicLength=0.1837716625186999 rxn_smarts="[C:1]([C:2]([O:3][C:4](=[O:5])[H:11])([H:9])[H:10])([H:6])([H:7])[H:8]>>[C:1]([C:2]([O+:3]=[C-:4][O:5][H:11])([H:9])[H:10])([H:6])([H:7])[H:8]"
C       -1.47004231       0.45243668       0.65594862
C       -0.29503069      -0.29904062       0.08296911
O        0.72053702       0.68227479      -0.25180440
C        1.78527047       0.27291487      -0.88425178
O        2.02180218      -0.97986416      -0.93933298
H       -1.86592365       1.16473542      -0.06862538
H       -2.26389661      -0.24908912       0.91696505
H       -1.18252327       0.99883516       1.55460527
H       -0.56780887      -0.85928987      -0.81250693
H        0.13597167      -1.00176171       0.79730116
H        2.98164405      -0.18215144      -1.05126773
11
Frame=8 idx=001564 GeodesicLength=0.21005424157009842 rxn_smarts="[C:1]([C:2]([O:3][C:4](=[O:5])[H:11])([H:9])[H:10])([H:6])([H:7])[H:8]>>[C:1]([C:2]([O+:3]=[C-:4][O:5][H:11])([H:9])[H:10])([H:6])([H:7])[H:8]"
C       -1.46941864       0.45275923       0.65670891
C       -0.29547293      -0.29969670       0.08273543
O        0.72128939       0.67970536      -0.25169373
C        1.77809862       0.27144403      -0.89959367
O        2.02145898      -0.97876814      -0.93981710
H       -1.86463214       1.16603995      -0.06728383
H       -2.26425211      -0.24777100       0.91743324
H       -1.18096607       0.99826753       1.55560503
H       -0.57037213      -0.86028905      -0.81193041
H        0.13576005      -1.00306750       0.79632745
H        2.98850698      -0.17862370      -1.03849131
11
Frame=9 idx=001564 GeodesicLength=0.23634388596834804 rxn_smarts="[C:1]([C:2]([O:3][C:4](=[O:5])[H:11])([H:9])[H:10])([H:6])([H:7])[H:8]>>[C:1]([C:2]([O+:3]=[C-:4][O:5][H:11])([H:9])[H:10])([H:6])([H:7])[H:8]"
C       -1.46877710       0.45310380       0.65741948
C       -0.29590626      -0.30039803       0.08252906
O        0.72210011       0.67703917      -0.25158220
C        1.77113436       0.26977050      -0.91421097
O        2.02117914      -0.97768256      -0.94027656
H       -1.86327064       1.16734688      -0.06603927
H       -2.26463024      -0.24638319       0.91785749
H       -1.17939681       0.99775500       1.55653878
H       -0.57287495      -0.86131970      -0.81134918
H        0.13545774      -1.00444928       0.79541174
H        2.99498466      -0.17478259      -1.02629836
11
Frame=10 idx=001564 GeodesicLength=0.2626552867002876 rxn_smarts="[C:1]([C:2]([O:3][C:4](=[O:5])[H:11])([H:9])[H:10])([H:6])([H:7])[H:8]>>[C:1]([C:2]([O+:3]=[C-:4][O:5][H:11])([H:9])[H:10])([H:6])([H:7])[H:8]"
C       -1.46811084       0.45346819       0.65809217
C       -0.29633428      -0.30114143       0.08233384
O        0.72294296       0.67428218      -0.25150984
C        1.76432733       0.26791194      -0.92823569
O        2.02094437      -0.97660600      -0.94074995
H       -1.86185152       1.16865546      -0.06486321
H       -2.26501395      -0.24492660       0.91825993
H       -1.17779182       0.99728784       1.55741011
H       -0.57534116      -0.86238151      -0.81076403
H        0.13509133      -1.00589400       0.79452473
H        3.00113758      -0.17065607      -1.01449805
11
Frame=11 idx=001564 GeodesicLength=0.2889527764108154 rxn_smarts="[C:1]([C:2]([O:3][C:4](=[O:5])[H:11])([H:9])[H:10])([H:6])([H:7])[H:8]>>[C:1]([C:2]([O+:3]=[C-:4][O:5][H:11])([H:9])[H:10])([H:6])([H:7])[H:8]"
C       -1.46744857       0.45385008       0.65871485
C       -0.29675556      -0.30191379       0.08218174
O        0.72384447       0.67145036      -0.25136463
C        1.75771011       0.26589230      -0.94158502
O        2.02077733      -0.97553774      -0.94111501
H       -1.86037368       1.16997368      -0.06377638
H       -2.26543290      -0.24342169       0.91858247
H       -1.17622329       0.99685135       1.55823039
H       -0.57773535      -0.86344314      -0.81016760
H        0.13462402      -1.00740258       0.79371051
H        3.00701341      -0.16629884      -1.00341131
11
Frame=12 idx=001564 GeodesicLength=0.3152573572818612 rxn_smarts="[C:1]([C:2]([O:3][C:4](=[O:5])[H:11])([H:9])[H:10])([H:6])([H:7])[H:8]>>[C:1]([C:2]([O+:3]=[C-:4][O:5][H:11])([H:9])[H:10])([H:6])([H:7])[H:8]"
C       -1.46678460       0.45424741       0.65930305
C       -0.29717745      -0.30271249       0.08204892
O        0.72478182       0.66855530      -0.25121077
C        1.75124821       0.26372740      -0.95438747
O        2.02065699      -0.97447813      -0.94143601
H       -1.85885627       1.17129561      -0.06275441
H       -2.26587121      -0.24187615       0.91887276
H       -1.17465659       0.99644909       1.55900727
H       -0.58008977      -0.86451271      -0.80957421
H        0.13407618      -1.00896247       0.79293894
H        3.01267268      -0.16173285      -0.99280808
11
Frame=13 idx=001564 GeodesicLength=0.34156712797725636 rxn_smarts="[C:1]([C:2]([O:3][C:4](=[O:5])[H:11])([H:9])[H:10])([H:6])([H:7])[H:8]>>[C:1]([C:2]([O+:3]=[C-:4][O:5][H:11])([H:9])[H:10])([H:6])([H:7])[H:8]"
C       -1.46610958       0.45465706       0.65986654
C       -0.29760269      -0.30353462       0.08191486
O        0.72573203       0.66560574      -0.25109805
C        1.74491302       0.26143245      -0.96673374
O        2.02055984      -0.97342433      -0.94177403
H       -1.85732011       1.17260917      -0.06177921
H       -2.26630200      -0.24029682       0.91917515
H       -1.17305955       0.99608927       1.55973382
H       -0.58242776      -0.86558915      -0.80899432
H        0.13347267      -1.01056474       0.79217796
H        3.01814415      -0.15698404      -0.98248899
11
Frame=14 idx=001564 GeodesicLength=0.36788598898135355 rxn_smarts="[C:1]([C:2]([O:3][C:4](=[O:5])[H:11])([H:9])[H:10])([H:6])([H:7])[H:8]>>[C:1]([C:2]([O+:3]=[C-:4][O:5][H:11])([H:9])[H:10])([H:6])([H:7])[H:8]"
C       -1.46541794       0.45507791       0.66041169
C       -0.29803193      -0.30437994       0.08177046
O        0.72668085       0.66260789      -0.25105966
C        1.73868147       0.25901881      -0.97870041
O        2.02047301      -0.97237596      -0.94216551
H       -1.85576723       1.17391836      -0.06083593
H       -2.26671802      -0.23868546       0.91950027
H       -1.17141575       0.99576577       1.56041629
H       -0.58476251      -0.86668265      -0.80842696
H        0.13283322      -1.01219911       0.79141669
H        3.02344483      -0.15206561      -0.97232693
11
Frame=15 idx=001564 GeodesicLength=0.3942375463386954 rxn_smarts="[C:1]([C:2]([O:3][C:4](=[O:5])[H:11])([H:9])[H:10])([H:6])([H:7])[H:8]>>[C:1]([C:2]([O+:3]=[C-:4][O:5][H:11])([H:9])[H:10])([H:6])([H:7])[H:8]"
C       -1.46470975       0.45551593       0.66094648
C       -0.29846576      -0.30525468       0.08160690
O        0.72761499       0.65957104      -0.25112459
C        1.73252574       0.25648908      -0.99036835
O        2.02041143      -0.97134658      -0.94261786
H       -1.85420779       1.17525254      -0.05990687
H       -2.26712740      -0.23703948       0.91984076
H       -1.16970904       0.99547386       1.56108116
H       -0.58711388      -0.86782003      -0.80787909
H        0.13218776      -1.01387069       0.79064867
H        3.02859371      -0.14697100      -0.96222721
11
Frame=16 idx=001564 GeodesicLength=0.4205528871514227 rxn_smarts="[C:1]([C:2]([O:3][C:4](=[O:5])[H:11])([H:9])[H:10])([H:6])([H:7])[H:8]>>[C:1]([C:2]([O+:3]=[C-:4][O:5][H:11])([H:9])[H:10])([H:6])([H:7])[H:8]"
C       -1.46396133       0.45595020       0.66146338
C       -0.29890041      -0.30614096       0.08143088
O        0.72853519       0.65647918      -0.25129322
C        1.72644684       0.25385745      -1.00173837
O        2.02030859      -0.97029370      -0.94316750
H       -1.85258449       1.17654756      -0.05900018
H       -2.26749613      -0.23535676       0.92021443
H       -1.16794873       0.99518384       1.56168165
H       -0.58945265      -0.86895560      -0.80731408
H        0.13149934      -1.01553394       0.78986912
H        3.03355378      -0.14173727      -0.95214610
