15
Frame=0 idx=009048 GeodesicLength=0.0 rxn_smarts="[N:1]([C@@:2]([C:3]#[N:4])([C:5]1([H:11])[C:6]([H:12])([H:13])[C:7]1([H:14])[H:15])[H:10])([H:8])[H:9]>>[N:1]([C@@:2]([C:3]1=[N:4][C:6]1([H:12])[H:13])([C:5](=[C:7]([H:14])[H:15])[H:11])[H:10])([H:8])[H:9]"
N        2.07204244      -0.53900735      -0.23640797
C        0.81369575      -0.20154453       0.34691419
C        0.38521557       1.26958069       0.55569955
N        0.70277915       2.38957988       0.87000668
C       -0.42730409      -0.46755776      -0.54592473
C       -1.06354656       1.17718795       0.08040184
C       -1.37694629      -1.40892656      -0.26297317
H        2.77721607      -0.75813851       0.44898853
H        2.41991161       0.19413979      -0.83765412
H        0.69424007      -0.73709453       1.29329666
H       -0.25070890      -0.24783697      -1.59766242
H       -1.79245805       1.06967123       0.88323742
H       -1.39647726       1.82845293      -0.72468383
H       -2.03921509      -1.80164593      -1.02434566
H       -1.51844445      -1.76686028       0.75110708
15
Frame=1 idx=009048 GeodesicLength=0.08426608232864309 rxn_smarts="[N:1]([C@@:2]([C:3]#[N:4])([C:5]1([H:11])[C:6]([H:12])([H:13])[C:7]1([H:14])[H:15])[H:10])([H:8])[H:9]>>[N:1]([C@@:2]([C:3]1=[N:4][C:6]1([H:12])[H:13])([C:5](=[C:7]([H:14])[H:15])[H:11])[H:10])([H:8])[H:9]"
N        2.07774762      -0.54516688      -0.22838979
C        0.81491267      -0.21047977       0.34878678
C        0.40108010       1.25915861       0.56736428
N        0.70300164       2.39043416       0.84988186
C       -0.41597566      -0.47321472      -0.55390507
C       -1.07269657       1.17290305       0.08789847
C       -1.39321617      -1.38633589      -0.26545280
H        2.78817480      -0.72009201       0.46481102
H        2.41120885       0.17395212      -0.85452900
H        0.68809425      -0.74845878       1.29269491
H       -0.23537816      -0.25296501      -1.60452705
H       -1.79137260       1.08099535       0.90163739
H       -1.41717365       1.81944242      -0.71596645
H       -2.03734862      -1.79637778      -1.03353086
H       -1.52105851      -1.76379486       0.74322632
15
Frame=2 idx=009048 GeodesicLength=0.1685481217931033 rxn_smarts="[N:1]([C@@:2]([C:3]#[N:4])([C:5]1([H:11])[C:6]([H:12])([H:13])[C:7]1([H:14])[H:15])[H:10])([H:8])[H:9]>>[N:1]([C@@:2]([C:3]1=[N:4][C:6]1([H:12])[H:13])([C:5](=[C:7]([H:14])[H:15])[H:11])[H:10])([H:8])[H:9]"
N        2.08364378      -0.55099728      -0.22021388
C        0.81630254      -0.21908167       0.35073925
C        0.41714032       1.24897666       0.57906171
N        0.70241849       2.39080525       0.82913820
C       -0.40447684      -0.47906355      -0.56153683
C       -1.08231061       1.16839263       0.09528489
C       -1.40788348      -1.36418275      -0.26809884
H        2.79804943      -0.68293857       0.47899994
H        2.40347742       0.15373866      -0.86968960
H        0.68228960      -0.75936691       1.29220679
H       -0.21968427      -0.25844895      -1.61105231
H       -1.79030337       1.09236598       0.91978590
H       -1.43858217       1.80970828      -0.70746544
H       -2.03686366      -1.78880027      -1.04170650
H       -1.52321717      -1.76110750       0.73454671
15
Frame=3 idx=009048 GeodesicLength=0.25285682312933305 rxn_smarts="[N:1]([C@@:2]([C:3]#[N:4])([C:5]1([H:11])[C:6]([H:12])([H:13])[C:7]1([H:14])[H:15])[H:10])([H:8])[H:9]>>[N:1]([C@@:2]([C:3]1=[N:4][C:6]1([H:12])[H:13])([C:5](=[C:7]([H:14])[H:15])[H:11])[H:10])([H:8])[H:9]"
N        2.08997285      -0.55637894      -0.21177177
C        0.81803223      -0.22736376       0.35278466
C        0.43334331       1.23898280       0.59068326
N        0.70070590       2.39058483       0.80785606
C       -0.39254008      -0.48534989      -0.56887520
C       -1.09244540       1.16330752       0.10237295
C       -1.42055087      -1.34296855      -0.27092230
H        2.80716384      -0.64643133       0.49185970
H        2.39684303       0.13367280      -0.88322012
H        0.67700840      -0.76979159       1.29187391
H       -0.20335923      -0.26458789      -1.61729716
H       -1.78936034       1.10334253       0.93741143
H       -1.46078305       1.79881033      -0.69940134
H       -2.03936949      -1.77673480      -1.04849765
H       -1.52466109      -1.75909406       0.72514359
15
Frame=4 idx=009048 GeodesicLength=0.33721454831746195 rxn_smarts="[N:1]([C@@:2]([C:3]#[N:4])([C:5]1([H:11])[C:6]([H:12])([H:13])[C:7]1([H:14])[H:15])[H:10])([H:8])[H:9]>>[N:1]([C@@:2]([C:3]1=[N:4][C:6]1([H:12])[H:13])([C:5](=[C:7]([H:14])[H:15])[H:11])[H:10])([H:8])[H:9]"
N        2.09664576      -0.56137204      -0.20313533
C        0.82006336      -0.23529150       0.35490010
C        0.44975734       1.22925089       0.60219683
N        0.69791213       2.38971866       0.78622663
C       -0.38024806      -0.49197648      -0.57590757
C       -1.10310720       1.15774825       0.10919300
C       -1.43136197      -1.32263848      -0.27382403
H        2.81552696      -0.61071091       0.50342291
H        2.39121355       0.11369262      -0.89531804
H        0.67220657      -0.77968309       1.29168792
H       -0.18653051      -0.27130662      -1.62325892
H       -1.78854250       1.11403681       0.95453263
H       -1.48375028       1.78688008      -0.69170985
H       -2.04422427      -1.76075118      -1.05419331
H       -1.52556086      -1.75759700       0.71518702
15
Frame=5 idx=009048 GeodesicLength=0.421630071332164 rxn_smarts="[N:1]([C@@:2]([C:3]#[N:4])([C:5]1([H:11])[C:6]([H:12])([H:13])[C:7]1([H:14])[H:15])[H:10])([H:8])[H:9]>>[N:1]([C@@:2]([C:3]1=[N:4][C:6]1([H:12])[H:13])([C:5](=[C:7]([H:14])[H:15])[H:11])[H:10])([H:8])[H:9]"
N        2.10351925      -0.56607910      -0.19439357
C        0.82231625      -0.24283043       0.35705288
C        0.46645905       1.21985332       0.61358050
N        0.69415692       2.38816082       0.76451357
C       -0.36774084      -0.49879294      -0.58262791
C       -1.11429193       1.15188900       0.11580454
C       -1.44056138      -1.30303018      -0.27673138
H        2.82313375      -0.57592483       0.51369508
H        2.38643769       0.09369287      -0.90621594
H        0.66778403      -0.78899854       1.29161922
H       -0.16937380      -0.27847019      -1.62893706
H       -1.78783922       1.12465723       0.97119121
H       -1.50741438       1.77415709      -0.68428255
H       -2.05046653      -1.74189412      -1.05909104
H       -1.52611887      -1.75638999       0.70482247
15
Frame=6 idx=009048 GeodesicLength=0.5061100341609099 rxn_smarts="[N:1]([C@@:2]([C:3]#[N:4])([C:5]1([H:11])[C:6]([H:12])([H:13])[C:7]1([H:14])[H:15])[H:10])([H:8])[H:9]>>[N:1]([C@@:2]([C:3]1=[N:4][C:6]1([H:12])[H:13])([C:5](=[C:7]([H:14])[H:15])[H:11])[H:10])([H:8])[H:9]"
N        2.11044033      -0.57059736      -0.18564469
C        0.82470604      -0.24994074       0.35921705
C        0.48353390       1.21086894       0.62483439
N        0.68957268       2.38590832       0.74293075
C       -0.35516924      -0.50562878      -0.58902647
C       -1.12599601       1.14593454       0.12228538
C       -1.44841791      -1.28393689      -0.27957699
H        2.82995414      -0.54228842       0.52262148
H        2.38238602       0.07357803      -0.91607225
H        0.66363779      -0.79769460       1.29164911
H       -0.15207242      -0.28591204      -1.63432511
H       -1.78722668       1.13542775       0.98745915
H       -1.53171491       1.76092223      -0.67699325
H       -2.05710903      -1.72141037      -1.06354216
H       -1.52652468      -1.75523061       0.69418361
15
Frame=7 idx=009048 GeodesicLength=0.5906571768522272 rxn_smarts="[N:1]([C@@:2]([C:3]#[N:4])([C:5]1([H:11])[C:6]([H:12])([H:13])[C:7]1([H:14])[H:15])[H:10])([H:8])[H:9]>>[N:1]([C@@:2]([C:3]1=[N:4][C:6]1([H:12])[H:13])([C:5](=[C:7]([H:14])[H:15])[H:11])[H:10])([H:8])[H:9]"
N        2.11732175      -0.57499833      -0.17694621
C        0.82718348      -0.25659674       0.36136926
C        0.50104514       1.20234005       0.63593867
N        0.68422794       2.38295574       0.72169617
C       -0.34261664      -0.51238032      -0.59511234
C       -1.13822480       1.14000273       0.12866692
C       -1.45511342      -1.26524615      -0.28232977
H        2.83603498      -0.50990740       0.53022585
H        2.37895277       0.05328345      -0.92503987
H        0.65969686      -0.80573730       1.29175759
H       -0.13473260      -0.29354163      -1.63943838
H       -1.78670603       1.14647349       1.00334342
H       -1.55660543       1.74734882      -0.66977279
H       -2.06360193      -1.70001553      -1.06772470
H       -1.52686207      -1.75398090       0.68336619
15
Frame=8 idx=009048 GeodesicLength=0.6752758117808035 rxn_smarts="[N:1]([C@@:2]([C:3]#[N:4])([C:5]1([H:11])[C:6]([H:12])([H:13])[C:7]1([H:14])[H:15])[H:10])([H:8])[H:9]>>[N:1]([C@@:2]([C:3]1=[N:4][C:6]1([H:12])[H:13])([C:5](=[C:7]([H:14])[H:15])[H:11])[H:10])([H:8])[H:9]"
N        2.12411875      -0.57932802      -0.16833157
C        0.82972634      -0.26277713       0.36349612
C        0.51904083       1.19429780       0.64686550
N        0.67814021       2.37929534       0.70099795
C       -0.33012262      -0.51899126      -0.60090071
C       -1.15099312       1.13414903       0.13495287
C       -1.46075643      -1.24690804      -0.28497344
H        2.84144712      -0.47883341       0.53651434
H        2.37608355       0.03276449      -0.93320465
H        0.65592261      -0.81309228       1.29194264
H       -0.11740434      -0.30131762      -1.64429364
H       -1.78629625       1.15784431       1.01882088
H       -1.58205048       1.73354403      -0.66259859
H       -2.06970541      -1.67807557      -1.07172480
H       -1.52715076      -1.75257169       0.67243711
15
Frame=9 idx=009048 GeodesicLength=0.7600442648786564 rxn_smarts="[N:1]([C@@:2]([C:3]#[N:4])([C:5]1([H:11])[C:6]([H:12])([H:13])[C:7]1([H:14])[H:15])[H:10])([H:8])[H:9]>>[N:1]([C@@:2]([C:3]1=[N:4][C:6]1([H:12])[H:13])([C:5](=[C:7]([H:14])[H:15])[H:11])[H:10])([H:8])[H:9]"
N        2.13081649      -0.58364966      -0.15982467
C        0.83233299      -0.26848954       0.36557552
C        0.53758339       1.18672100       0.65758636
N        0.67133647       2.37498582       0.68085657
C       -0.31768419      -0.52544448      -0.60641068
C       -1.16433657       1.12834654       0.14115569
C       -1.46543339      -1.22889181      -0.28749604
H        2.84630682      -0.44901219       0.54163457
H        2.37372414       0.01201864      -0.94063592
H        0.65230038      -0.81975923       1.29218357
H       -0.10009627      -0.30922938      -1.64890518
H       -1.78602561       1.16953155       1.03388731
H       -1.60803553       1.71952854      -0.65542483
H       -2.07541787      -1.65564062      -1.07559519
H       -1.52737124      -1.75101518       0.66141292
15
Frame=10 idx=009048 GeodesicLength=0.8448824218405476 rxn_smarts="[N:1]([C@@:2]([C:3]#[N:4])([C:5]1([H:11])[C:6]([H:12])([H:13])[C:7]1([H:14])[H:15])[H:10])([H:8])[H:9]>>[N:1]([C@@:2]([C:3]1=[N:4][C:6]1([H:12])[H:13])([C:5](=[C:7]([H:14])[H:15])[H:11])[H:10])([H:8])[H:9]"
N        2.13736439      -0.58798614      -0.15145717
C        0.83497383      -0.27368791       0.36759420
C        0.55670304       1.17966959       0.66806136
N        0.66382476       2.36998234       0.66160118
C       -0.30535784      -0.53166300      -0.61166007
C       -1.17825261       1.12270165       0.14726649
C       -1.46924643      -1.21114273      -0.28989701
H        2.85066667      -0.42057532       0.54555009
H        2.37180681      -0.00902221      -0.94745878
H        0.64877899      -0.82567188       1.29248118
H       -0.08287756      -0.31723009      -1.65330331
H       -1.78591327       1.18161026       1.04849191
H       -1.63452502       1.70544445      -0.64825876
H       -2.08040691      -1.63321741      -1.07938993
H       -1.52753886      -1.74921158       0.65037862
15
Frame=11 idx=009048 GeodesicLength=0.9297768310315505 rxn_smarts="[N:1]([C@@:2]([C:3]#[N:4])([C:5]1([H:11])[C:6]([H:12])([H:13])[C:7]1([H:14])[H:15])[H:10])([H:8])[H:9]>>[N:1]([C@@:2]([C:3]1=[N:4][C:6]1([H:12])[H:13])([C:5](=[C:7]([H:14])[H:15])[H:11])[H:10])([H:8])[H:9]"
N        2.14375197      -0.59236513      -0.14324667
C        0.83764623      -0.27835619       0.36954074
C        0.57643178       1.17315418       0.67825516
N        0.65561250       2.36430538       0.64337737
C       -0.29314705      -0.53762342      -0.61666941
C       -1.19276273       1.11722631       0.15328070
C       -1.47225652      -1.19364867      -0.29218212
H        2.85460908      -0.39355999       0.54831632
H        2.37028733      -0.03036321      -0.95374534
H        0.64534269      -0.83079760       1.29283409
H       -0.06575746      -0.32531763      -1.65750989
H       -1.78599452       1.19408076       1.06259582
H       -1.66150033       1.69133469      -0.64110214
H       -2.08463656      -1.61091903      -1.08311301
H       -1.52762641      -1.74715046       0.63936838
15
Frame=12 idx=009048 GeodesicLength=1.014726006578517 rxn_smarts="[N:1]([C@@:2]([C:3]#[N:4])([C:5]1([H:11])[C:6]([H:12])([H:13])[C:7]1([H:14])[H:15])[H:10])([H:8])[H:9]>>[N:1]([C@@:2]([C:3]1=[N:4][C:6]1([H:12])[H:13])([C:5](=[C:7]([H:14])[H:15])[H:11])[H:10])([H:8])[H:9]"
N        2.14996752      -0.59682289      -0.13521032
C        0.84034833      -0.28248269       0.37139495
C        0.59681218       1.16717352       0.68813383
N        0.64671948       2.35799784       0.62627405
C       -0.28105760      -0.54329967      -0.62146177
C       -1.20789017       1.11192103       0.15920174
C       -1.47453092      -1.17639159      -0.29435353
H        2.85824499      -0.36796878       0.55004486
H        2.36911782      -0.05202695      -0.95956028
H        0.64197371      -0.83510891       1.29322805
H       -0.04875220      -0.33348200      -1.66154794
H       -1.78629504       1.20693726       1.07618020
H       -1.68896331       1.67722267      -0.63394037
H       -2.08809486      -1.58882625      -1.08678071
H       -1.52759993      -1.74484261       0.62839725
15
Frame=13 idx=009048 GeodesicLength=1.0997153950049685 rxn_smarts="[N:1]([C@@:2]([C:3]#[N:4])([C:5]1([H:11])[C:6]([H:12])([H:13])[C:7]1([H:14])[H:15])[H:10])([H:8])[H:9]>>[N:1]([C@@:2]([C:3]1=[N:4][C:6]1([H:12])[H:13])([C:5](=[C:7]([H:14])[H:15])[H:11])[H:10])([H:8])[H:9]"
N        2.15601685      -0.60137215      -0.12736033
C        0.84308852      -0.28604727       0.37314941
C        0.61787909       1.16174200       0.69765457
N        0.63713336       2.35107378       0.61043628
C       -0.26908129      -0.54868031      -0.62605231
C       -1.22365466       1.10678357       0.16501906
C       -1.47610814      -1.15936632      -0.29641025
H        2.86164483      -0.34382719       0.55077069
H        2.36827327      -0.07403361      -0.96495074
H        0.63867186      -0.83856737       1.29366858
H       -0.03186069      -0.34173885      -1.66543939
H       -1.78685908       1.22016225       1.08920333
H       -1.71690667       1.66312673      -0.62679053
H       -2.09081147      -1.56696335      -1.09038577
H       -1.52742577      -1.74229191       0.61748741
15
Frame=14 idx=009048 GeodesicLength=1.1847509362346265 rxn_smarts="[N:1]([C@@:2]([C:3]#[N:4])([C:5]1([H:11])[C:6]([H:12])([H:13])[C:7]1([H:14])[H:15])[H:10])([H:8])[H:9]>>[N:1]([C@@:2]([C:3]1=[N:4][C:6]1([H:12])[H:13])([C:5](=[C:7]([H:14])[H:15])[H:11])[H:10])([H:8])[H:9]"
N        2.16189692      -0.60604458      -0.11970255
C        0.84587094      -0.28903244       0.37479563
C        0.63968046       1.15687028       0.70677618
N        0.62685112       2.34356109       0.59596386
C       -0.25721310      -0.55374792      -0.63045460
C       -1.24008321       1.10180601       0.17073230
C       -1.47703129      -1.14255892      -0.29835250
H        2.86489871      -0.32114451       0.55053097
H        2.36773307      -0.09640872      -0.96994534
H        0.63542834      -0.84113455       1.29415988
H       -0.01508309      -0.35009299      -1.66920035
H       -1.78773061       1.23373427       1.10164005
H       -1.74533522       1.64905595      -0.61965698
H       -2.09281127      -1.54535192      -1.09393464
H       -1.52707175      -1.73951107       0.60664809
15
Frame=15 idx=009048 GeodesicLength=1.2698195915522852 rxn_smarts="[N:1]([C@@:2]([C:3]#[N:4])([C:5]1([H:11])[C:6]([H:12])([H:13])[C:7]1([H:14])[H:15])[H:10])([H:8])[H:9]>>[N:1]([C@@:2]([C:3]1=[N:4][C:6]1([H:12])[H:13])([C:5](=[C:7]([H:14])[H:15])[H:11])[H:10])([H:8])[H:9]"
N        2.16760773      -0.61087424      -0.11224050
C        0.84870109      -0.29142246       0.37632296
C        0.66225879       1.15256326       0.71545140
N        0.61588097       2.33548590       0.58296582
C       -0.24544745      -0.55848862      -0.63468421
C       -1.25719802       1.09697893       0.17634182
C       -1.47734321      -1.12595647      -0.30018218
H        2.86809816      -0.29991339       0.54937245
H        2.36746788      -0.11917620      -0.97457931
H        0.63223451      -0.84276987       1.29470398
H        0.00158203      -0.35855729      -1.67284753
H       -1.78895570       1.24763416       1.11346090
H       -1.77425531       1.63500935      -0.61254377
H       -2.09412297      -1.52399790      -1.09742565
H       -1.52650852      -1.73651516       0.59588382
15
Frame=16 idx=009048 GeodesicLength=1.354911653665969 rxn_smarts="[N:1]([C@@:2]([C:3]#[N:4])([C:5]1([H:11])[C:6]([H:12])([H:13])[C:7]1([H:14])[H:15])[H:10])([H:8])[H:9]>>[N:1]([C@@:2]([C:3]1=[N:4][C:6]1([H:12])[H:13])([C:5](=[C:7]([H:14])[H:15])[H:11])[H:10])([H:8])[H:9]"
N        2.17315187      -0.61589209      -0.10497851
C        0.85158720      -0.29319883       0.37772186
C        0.68565983       1.14883090       0.72363022
N        0.60422430       2.32686952       0.57155019
C       -0.23377655      -0.56288994      -0.63875380
C       -1.27502311       1.09228931       0.18184770
C       -1.47707956      -1.10954725      -0.30189884
H        2.87132983      -0.28013474       0.54732539
H        2.36745806      -0.14236001      -0.97887243
H        0.62908614      -0.84342918       1.29530617
H        0.01813771      -0.36714748      -1.67639645
H       -1.79058828       1.26183730       1.12463676
H       -1.80367507       1.62098086      -0.60546089
H       -2.09478459      -1.50288875      -1.10085401
H       -1.52570778      -1.73331962       0.58519666
