11
Frame=0 idx=011323 GeodesicLength=0.0 rxn_smarts="[C:1]([C:2]#[C:3][C:4](=[O:5])[C:6]#[C:7][H:11])([H:8])([H:9])[H:10]>>[C:1]([O+:5]=[C:4]([C:3]#[C-:2])[C:6]#[C:7][H:11])([H:8])([H:9])[H:10]"
C       -2.04906831       0.49589893      -0.24910548
C       -0.67801065      -1.62638105      -1.47270047
C       -0.10890829      -0.84476359      -0.67258438
C        0.51378316       0.02946556       0.21469586
O       -0.15719931       0.93291426       0.73806438
C        1.91471276      -0.10370032       0.52113998
C        3.07845118      -0.22003478       0.77470986
H       -1.81781460       1.20225770      -1.03188920
H       -2.30081654       0.89028514       0.72155347
H       -2.50960942      -0.43116427      -0.54398030
H        4.11448000      -0.32477755       1.00009632
11
Frame=1 idx=011323 GeodesicLength=0.0640368035320741 rxn_smarts="[C:1]([C:2]#[C:3][C:4](=[O:5])[C:6]#[C:7][H:11])([H:8])([H:9])[H:10]>>[C:1]([O+:5]=[C:4]([C:3]#[C-:2])[C:6]#[C:7][H:11])([H:8])([H:9])[H:10]"
C       -2.05095236       0.47751860      -0.24821415
C       -0.69228324      -1.56892950      -1.49811783
C       -0.09291705      -0.85446962      -0.66104494
C        0.53526777       0.05103580       0.19099438
O       -0.14283280       0.94789254       0.71948904
C        1.92523112      -0.10581747       0.53248294
C        3.09000011      -0.21693521       0.78372427
H       -1.85305279       1.17729744      -1.04668265
H       -2.30871982       0.89900954       0.71026715
H       -2.52959817      -0.45317515      -0.50309051
H        4.11985724      -0.35342699       1.02019232
11
Frame=2 idx=011323 GeodesicLength=0.12816614254811914 rxn_smarts="[C:1]([C:2]#[C:3][C:4](=[O:5])[C:6]#[C:7][H:11])([H:8])([H:9])[H:10]>>[C:1]([O+:5]=[C:4]([C:3]#[C-:2])[C:6]#[C:7][H:11])([H:8])([H:9])[H:10]"
C       -2.05253062       0.46006662      -0.24741126
C       -0.70678624      -1.51576102      -1.51526431
C       -0.07543961      -0.86003385      -0.65628994
C        0.55575196       0.06924252       0.16883372
O       -0.12880077       0.95998914       0.70250106
C        1.93729726      -0.10264478       0.53556615
C        3.10025189      -0.21691238       0.79384210
H       -1.88783210       1.15406511      -1.05917096
H       -2.31753655       0.90590351       0.69891398
H       -2.54747548      -0.47273822      -0.46424677
H        4.12310027      -0.38117664       1.04272623
11
Frame=3 idx=011323 GeodesicLength=0.1924214306775621 rxn_smarts="[C:1]([C:2]#[C:3][C:4](=[O:5])[C:6]#[C:7][H:11])([H:8])([H:9])[H:10]>>[C:1]([O+:5]=[C:4]([C:3]#[C-:2])[C:6]#[C:7][H:11])([H:8])([H:9])[H:10]"
C       -2.05396715       0.44297197      -0.24618453
C       -0.72163334      -1.46634417      -1.52668208
C       -0.05590394      -0.86037988      -0.65932236
C        0.57600139       0.08658837       0.14651225
O       -0.11453505       0.97188491       0.68476038
C        1.94989474      -0.09733620       0.53508614
C        3.10922946      -0.21883766       0.80614099
H       -1.92410997       1.13117442      -1.06995752
H       -2.32666112       0.91133763       0.68794909
H       -2.56284636      -0.49142313      -0.42507939
H        4.12453134      -0.40963626       1.06677702
11
Frame=4 idx=011323 GeodesicLength=0.2566793026256677 rxn_smarts="[C:1]([C:2]#[C:3][C:4](=[O:5])[C:6]#[C:7][H:11])([H:8])([H:9])[H:10]>>[C:1]([O+:5]=[C:4]([C:3]#[C-:2])[C:6]#[C:7][H:11])([H:8])([H:9])[H:10]"
C       -2.05524921       0.42635459      -0.24477788
C       -0.73630451      -1.42014391      -1.53355145
C       -0.03535671      -0.85781135      -0.66660078
C        0.59582954       0.10317174       0.12480264
O       -0.10050345       0.98300269       0.66776305
C        1.96368491      -0.08879531       0.53004876
C        3.11766729      -0.22113343       0.81840296
H       -1.96055838       1.10858631      -1.07911953
H       -2.33661024       0.91539609       0.67709930
H       -2.57628194      -0.50874222      -0.38691611
H        4.12368269      -0.43988521       1.09284904
11
Frame=5 idx=011323 GeodesicLength=0.32097021971265305 rxn_smarts="[C:1]([C:2]#[C:3][C:4](=[O:5])[C:6]#[C:7][H:11])([H:8])([H:9])[H:10]>>[C:1]([O+:5]=[C:4]([C:3]#[C-:2])[C:6]#[C:7][H:11])([H:8])([H:9])[H:10]"
C       -2.05625918       0.40944001      -0.24165191
C       -0.75167014      -1.37643355      -1.53784433
C       -0.01313232      -0.85033583      -0.68145271
C        0.61669923       0.12174090       0.09917020
O       -0.08504122       0.99600841       0.64737419
C        1.97848227      -0.07844709       0.52035778
C        3.12495713      -0.22593599       0.83056194
H       -2.00031826       1.08469649      -1.08600487
H       -2.34554890       0.91785464       0.66823872
H       -2.58657316      -0.52658702      -0.34558698
H        4.11840456      -0.47200097       1.12683796
11
Frame=6 idx=011323 GeodesicLength=0.3852853941153143 rxn_smarts="[C:1]([C:2]#[C:3][C:4](=[O:5])[C:6]#[C:7][H:11])([H:8])([H:9])[H:10]>>[C:1]([O+:5]=[C:4]([C:3]#[C-:2])[C:6]#[C:7][H:11])([H:8])([H:9])[H:10]"
C       -2.05685113       0.39206533      -0.23733830
C       -0.76614940      -1.33476008      -1.53961927
C        0.01076943      -0.83863398      -0.70151536
C        0.63831972       0.14286578       0.07091622
O       -0.06891670       1.01165036       0.62400478
C        1.99423395      -0.06456205       0.50717884
C        3.12980998      -0.23163116       0.84631665
H       -2.04254443       1.05887070      -1.09102478
H       -2.35416654       0.91863212       0.66063394
H       -2.59322804      -0.54521264      -0.30202694
H        4.10872316      -0.50928438       1.16247421
11
Frame=7 idx=011323 GeodesicLength=0.44960033761533624 rxn_smarts="[C:1]([C:2]#[C:3][C:4](=[O:5])[C:6]#[C:7][H:11])([H:8])([H:9])[H:10]>>[C:1]([O+:5]=[C:4]([C:3]#[C-:2])[C:6]#[C:7][H:11])([H:8])([H:9])[H:10]"
C       -2.05700479       0.37634709      -0.23425087
C       -0.77985767      -1.29554724      -1.53824977
C        0.03423971      -0.82649298      -0.72216568
C        0.65878679       0.16127179       0.04651181
O       -0.05382607       1.02454293       0.60452930
C        2.00871075      -0.05376908       0.49738398
C        3.13491315      -0.23698827       0.85886385
H       -2.08184603       1.03385664      -1.09583589
H       -2.36453668       0.91983143       0.65122500
H       -2.59887343      -0.56081437      -0.26176704
H        4.09929426      -0.54223794       1.19375532
11
Frame=8 idx=011323 GeodesicLength=0.5139258426770927 rxn_smarts="[C:1]([C:2]#[C:3][C:4](=[O:5])[C:6]#[C:7][H:11])([H:8])([H:9])[H:10]>>[C:1]([O+:5]=[C:4]([C:3]#[C-:2])[C:6]#[C:7][H:11])([H:8])([H:9])[H:10]"
C       -2.05699398       0.36183841      -0.23203589
C       -0.79233582      -1.25842889      -1.53406790
C        0.05752398      -0.81341554      -0.74343082
C        0.67845403       0.17828720       0.02491003
O       -0.03959033       1.03588269       0.58788253
C        2.02217190      -0.04470408       0.49020954
C        3.14021109      -0.24185782       0.86944406
H       -2.11932181       1.00892260      -1.10058139
H       -2.37653713       0.92119040       0.64035678
H       -2.60347155      -0.57426595      -0.22386607
H        4.08988960      -0.57344902       1.22117912
11
Frame=9 idx=011323 GeodesicLength=0.5782831642819956 rxn_smarts="[C:1]([C:2]#[C:3][C:4](=[O:5])[C:6]#[C:7][H:11])([H:8])([H:9])[H:10]>>[C:1]([O+:5]=[C:4]([C:3]#[C-:2])[C:6]#[C:7][H:11])([H:8])([H:9])[H:10]"
C       -2.05677667       0.34791346      -0.22995672
C       -0.80343751      -1.22299605      -1.52769941
C        0.08125913      -0.79791278      -0.76696533
C        0.69798409       0.19570503       0.00407229
O       -0.02557314       1.04785595       0.57140821
C        2.03469229      -0.03633359       0.48490094
C        3.14431231      -0.24737677       0.88119164
H       -2.15683194       0.98276079      -1.10500394
H       -2.38940451       0.92234150       0.62883447
H       -2.60596659      -0.58690303      -0.18607380
H        4.07974255      -0.60505448       1.24529165
11
Frame=10 idx=011323 GeodesicLength=0.6426715357017342 rxn_smarts="[C:1]([C:2]#[C:3][C:4](=[O:5])[C:6]#[C:7][H:11])([H:8])([H:9])[H:10]>>[C:1]([O+:5]=[C:4]([C:3]#[C-:2])[C:6]#[C:7][H:11])([H:8])([H:9])[H:10]"
C       -2.05626229       0.33426831      -0.22770559
C       -0.81284571      -1.18896298      -1.51943234
C        0.10574854      -0.77903772      -0.79349519
C        0.71762298       0.21448544      -0.01672540
O       -0.01159455       1.06184111       0.55369738
C        2.04586544      -0.02838934       0.48194781
C        3.14683570      -0.25353315       0.89446898
H       -2.19526288       0.95438350      -1.10902343
H       -2.40289731       0.92315429       0.61687236
H       -2.60548701      -0.59941754      -0.14715301
H        4.06827708      -0.63879193       1.26654843
11
Frame=11 idx=011323 GeodesicLength=0.7070995483382221 rxn_smarts="[C:1]([C:2]#[C:3][C:4](=[O:5])[C:6]#[C:7][H:11])([H:8])([H:9])[H:10]>>[C:1]([O+:5]=[C:4]([C:3]#[C-:2])[C:6]#[C:7][H:11])([H:8])([H:9])[H:10]"
C       -2.05564266       0.32137010      -0.22628751
C       -0.81981489      -1.15657367      -1.50858912
C        0.13084778      -0.75717332      -0.82130423
C        0.73682635       0.23401260      -0.03522833
O        0.00147808       1.07750020       0.53621243
C        2.05435980      -0.02197644       0.48490597
C        3.14676124      -0.26128611       0.91214957
H       -2.23346307       0.92374365      -1.11398313
H       -2.41805845       0.92446457       0.60278032
H       -2.60255035      -0.61106188      -0.10830430
H        4.05925616      -0.67301971       1.27764832
11
Frame=12 idx=011323 GeodesicLength=0.771607635296822 rxn_smarts="[C:1]([C:2]#[C:3][C:4](=[O:5])[C:6]#[C:7][H:11])([H:8])([H:9])[H:10]>>[C:1]([O+:5]=[C:4]([C:3]#[C-:2])[C:6]#[C:7][H:11])([H:8])([H:9])[H:10]"
C       -2.05411593       0.30813233      -0.22379444
C       -0.82464005      -1.12510385      -1.49638842
C        0.15734519      -0.72942079      -0.85477704
C        0.75684475       0.25690731      -0.05597553
O        0.01530312       1.09819311       0.51388726
C        2.06073359      -0.01539976       0.48974319
C        3.14229258      -0.27210684       0.93430552
H       -2.27425955       0.88856692      -1.11769072
H       -2.43277040       0.92487588       0.58914723
H       -2.59406812      -0.62373737      -0.06527655
H        4.04733481      -0.71090693       1.28681949
11
Frame=13 idx=011323 GeodesicLength=0.8361759192776964 rxn_smarts="[C:1]([C:2]#[C:3][C:4](=[O:5])[C:6]#[C:7][H:11])([H:8])([H:9])[H:10]>>[C:1]([O+:5]=[C:4]([C:3]#[C-:2])[C:6]#[C:7][H:11])([H:8])([H:9])[H:10]"
C       -2.05135572       0.29482667      -0.22040226
C       -0.82685617      -1.09433839      -1.48289954
C        0.18481011      -0.69564610      -0.89370597
C        0.77753923       0.28290105      -0.07863687
O        0.02986986       1.12398998       0.48674148
C        2.06397685      -0.00974486       0.49726346
C        3.13178614      -0.28780360       0.96193904
H       -2.31707591       0.84832203      -1.12009042
H       -2.44704295       0.92463055       0.57561595
H       -2.57922392      -0.63689308      -0.01801950
H        4.03357248      -0.75024425       1.29219464
11
Frame=14 idx=011323 GeodesicLength=0.9009283895260102 rxn_smarts="[C:1]([C:2]#[C:3][C:4](=[O:5])[C:6]#[C:7][H:11])([H:8])([H:9])[H:10]>>[C:1]([O+:5]=[C:4]([C:3]#[C-:2])[C:6]#[C:7][H:11])([H:8])([H:9])[H:10]"
C       -2.04804747       0.28227848      -0.21741766
C       -0.82606784      -1.06507301      -1.46641440
C        0.21200928      -0.65902215      -0.93312385
C        0.79796367       0.30996610      -0.09997222
O        0.04381364       1.14995537       0.46176189
C        2.06622590      -0.00322957       0.50481429
C        3.11879367      -0.30559778       0.98889686
H       -2.35835325       0.80480256      -1.12246011
H       -2.46276375       0.92439201       0.56028916
H       -2.56145253      -0.64824274       0.02945160
H        4.01787867      -0.79022926       1.29417443
11
Frame=15 idx=011323 GeodesicLength=0.9658174761446173 rxn_smarts="[C:1]([C:2]#[C:3][C:4](=[O:5])[C:6]#[C:7][H:11])([H:8])([H:9])[H:10]>>[C:1]([O+:5]=[C:4]([C:3]#[C-:2])[C:6]#[C:7][H:11])([H:8])([H:9])[H:10]"
C       -2.04440573       0.27059882      -0.21467970
C       -0.82262353      -1.03673992      -1.44753099
C        0.23817948      -0.62012729      -0.97253439
C        0.81810394       0.33782910      -0.12047086
O        0.05731238       1.17464057       0.44049193
C        2.06916045       0.00468229       0.50908662
C        3.10480992      -0.32502494       1.01168572
H       -2.39801079       0.75814089      -1.12448384
H       -2.48002076       0.92400364       0.54341832
H       -2.54112679      -0.65743658       0.07713486
H        3.99862144      -0.83056659       1.29788234
11
Frame=16 idx=011323 GeodesicLength=1.030803426081006 rxn_smarts="[C:1]([C:2]#[C:3][C:4](=[O:5])[C:6]#[C:7][H:11])([H:8])([H:9])[H:10]>>[C:1]([O+:5]=[C:4]([C:3]#[C-:2])[C:6]#[C:7][H:11])([H:8])([H:9])[H:10]"
C       -2.04144221       0.26024939      -0.21319738
C       -0.81671549      -1.00952607      -1.42560460
C        0.26259162      -0.58143503      -1.00819771
C        0.83730831       0.36514281      -0.13776754
O        0.06948773       1.19543198       0.42680553
C        2.07441544       0.01471913       0.50982491
C        3.09351154      -0.34266863       1.02735963
H       -2.43458344       0.70958598      -1.12758115
H       -2.50025953       0.92395547       0.52347526
H       -2.52132568      -0.66327812       0.12255012
H        3.97701171      -0.87217689       1.30233292
