13
Frame=0 idx=002864 GeodesicLength=0.0 rxn_smarts="[C:1]([C@@:2]([C:3]([O:4][H:13])([H:11])[H:12])([C:5]#[N:6])[H:10])([H:7])([H:8])[H:9]>>[C:1]([C:2](=[C:3]([H:11])[H:12])[H:10])([H:7])([H:8])[H:9].[O:4]([N+:6]#[C-:5])[H:13]"
C       -1.07157245       1.30058762       0.43860696
C        0.03403043       0.59912453      -0.33571585
C        1.04951237      -0.03153791       0.41349869
O        0.62074730      -2.01841279      -0.06410056
C       -0.75949204      -0.61756381      -1.20192581
N       -0.40853762      -1.78957959      -1.04818175
H       -1.88195733       1.56377042      -0.24020138
H       -1.47981698       0.64357616       1.20878805
H       -0.69721353       2.20677405       0.91768971
H        0.41785055       1.20090851      -1.15683827
H        0.90384672      -0.27018610       1.45895376
H        2.06399200      -0.09309093       0.04325840
H        1.20861060      -2.69437017      -0.43383199
13
Frame=1 idx=002864 GeodesicLength=0.1366778432860965 rxn_smarts="[C:1]([C@@:2]([C:3]([O:4][H:13])([H:11])[H:12])([C:5]#[N:6])[H:10])([H:7])([H:8])[H:9]>>[C:1]([C:2](=[C:3]([H:11])[H:12])[H:10])([H:7])([H:8])[H:9].[O:4]([N+:6]#[C-:5])[H:13]"
C       -1.07416795       1.28473082       0.44334705
C        0.03954945       0.60221645      -0.33521422
C        1.05938404      -0.04192823       0.39727500
O        0.56886055      -2.02178442      -0.01986575
C       -0.75536183      -0.60799287      -1.25473416
N       -0.41979323      -1.77895832      -1.09346953
H       -1.88003060       1.56194961      -0.23551818
H       -1.49128645       0.61366015       1.19627973
H       -0.70731090       2.18182522       0.94448721
H        0.42439780       1.22661315      -1.13926349
H        0.95921682      -0.23325080       1.45775520
H        2.06202793      -0.12781120      -0.00196149
H        1.21451439      -2.65926954      -0.35911737
13
Frame=2 idx=002864 GeodesicLength=0.27324391491698863 rxn_smarts="[C:1]([C@@:2]([C:3]([O:4][H:13])([H:11])[H:12])([C:5]#[N:6])[H:10])([H:7])([H:8])[H:9]>>[C:1]([C:2](=[C:3]([H:11])[H:12])[H:10])([H:7])([H:8])[H:9].[O:4]([N+:6]#[C-:5])[H:13]"
C       -1.07673748       1.26830181       0.44790225
C        0.04540978       0.60521125      -0.33420047
C        1.06933617      -0.05176176       0.38204146
O        0.52051019      -2.02126150       0.01994990
C       -0.74989475      -0.59838548      -1.30699805
N       -0.43093696      -1.76817642      -1.13639165
H       -1.87814314       1.55890849      -0.23089479
H       -1.50242959       0.58370893       1.18347797
H       -0.71784764       2.15605014       0.97065114
H        0.43115176       1.25117533      -1.12102030
H        1.01582720      -0.19784147       1.45312454
H        2.05900596      -0.16112661      -0.04537918
H        1.21474851      -2.62480272      -0.28226283
13
Frame=3 idx=002864 GeodesicLength=0.4097370573780873 rxn_smarts="[C:1]([C@@:2]([C:3]([O:4][H:13])([H:11])[H:12])([C:5]#[N:6])[H:10])([H:7])([H:8])[H:9]>>[C:1]([C:2](=[C:3]([H:11])[H:12])[H:10])([H:7])([H:8])[H:9].[O:4]([N+:6]#[C-:5])[H:13]"
C       -1.07924525       1.25161115       0.45225679
C        0.05145018       0.60793600      -0.33258478
C        1.07920795      -0.06119907       0.36795866
O        0.47566393      -2.01776482       0.05653479
C       -0.74365779      -0.58900762      -1.35822771
N       -0.44211380      -1.75743064      -1.17758763
H       -1.87618899       1.55510965      -0.22641637
H       -1.51342375       0.55426204       1.17050444
H       -0.72852429       2.12975895       0.99603041
H        0.43798014       1.27424023      -1.10225527
H        1.07317346      -0.16373634       1.44550367
H        2.05488224      -0.19325387      -0.08677810
H        1.21079597      -2.59052568      -0.20493891
13
Frame=4 idx=002864 GeodesicLength=0.5461419657574669 rxn_smarts="[C:1]([C@@:2]([C:3]([O:4][H:13])([H:11])[H:12])([C:5]#[N:6])[H:10])([H:7])([H:8])[H:9]>>[C:1]([C:2](=[C:3]([H:11])[H:12])[H:10])([H:7])([H:8])[H:9].[O:4]([N+:6]#[C-:5])[H:13]"
C       -1.08167731       1.23484750       0.45643239
C        0.05756323       0.61028797      -0.33032320
C        1.08889396      -0.07036566       0.35507904
O        0.43416332      -2.01200736       0.09078111
C       -0.73703967      -0.57998148      -1.40823863
N       -0.45336984      -1.74680879      -1.21764986
H       -1.87408311       1.55089262      -0.22209825
H       -1.52441353       0.52560995       1.15743101
H       -0.73915766       2.10312662       1.02061889
H        0.44480868       1.29565746      -1.08306341
H        1.13093818      -0.13074424       1.43514667
H        2.04962428      -0.22442989      -0.12611038
H        1.20374945      -2.55608470      -0.12800538
13
Frame=5 idx=002864 GeodesicLength=0.6823057072421146 rxn_smarts="[C:1]([C@@:2]([C:3]([O:4][H:13])([H:11])[H:12])([C:5]#[N:6])[H:10])([H:7])([H:8])[H:9]>>[C:1]([C:2](=[C:3]([H:11])[H:12])[H:10])([H:7])([H:8])[H:9].[O:4]([N+:6]#[C-:5])[H:13]"
C       -1.08397683       1.21804577       0.46045110
C        0.06367830       0.61219183      -0.32739768
C        1.09830215      -0.07934541       0.34339880
O        0.39575425      -2.00440917       0.12339854
C       -0.73027158      -0.57127123      -1.45705363
N       -0.46471921      -1.73635730      -1.25707267
H       -1.87168173       1.54642619      -0.21793911
H       -1.53541872       0.49783033       1.14425164
H       -0.74959520       2.07611928       1.04447975
H        0.45156291       1.31536956      -1.06347867
H        1.18893047      -0.09871232       1.42216949
H        2.04311384      -0.25488841      -0.16341732
H        1.19432135      -2.52099914      -0.05179023
13
Frame=6 idx=002864 GeodesicLength=0.8185318854100588 rxn_smarts="[C:1]([C@@:2]([C:3]([O:4][H:13])([H:11])[H:12])([C:5]#[N:6])[H:10])([H:7])([H:8])[H:9]>>[C:1]([C:2](=[C:3]([H:11])[H:12])[H:10])([H:7])([H:8])[H:9].[O:4]([N+:6]#[C-:5])[H:13]"
C       -1.08623896       1.20130007       0.46436556
C        0.06975548       0.61369268      -0.32383106
C        1.10748917      -0.08819659       0.33282459
O        0.36020341      -1.99550019       0.15495947
C       -0.72354322      -0.56281591      -1.50478185
N       -0.47608650      -1.72592770      -1.29641392
H       -1.86908718       1.54196997      -0.21385554
H       -1.54663501       0.47091748       1.13098439
H       -0.75987914       2.04882079       1.06774975
H        0.45824133       1.33358481      -1.04354100
H        1.24717937      -0.06746331       1.40653414
H        2.03545779      -0.28490526      -0.19884933
H        1.18314347      -2.48547685       0.02385478
13
Frame=7 idx=002864 GeodesicLength=0.9547190742292412 rxn_smarts="[C:1]([C@@:2]([C:3]([O:4][H:13])([H:11])[H:12])([C:5]#[N:6])[H:10])([H:7])([H:8])[H:9]>>[C:1]([C:2](=[C:3]([H:11])[H:12])[H:10])([H:7])([H:8])[H:9].[O:4]([N+:6]#[C-:5])[H:13]"
C       -1.08845822       1.18458350       0.46820511
C        0.07577777       0.61477941      -0.31963115
C        1.11645444      -0.09694442       0.32329708
O        0.32727782      -1.98552096       0.18594457
C       -0.71691340      -0.55450678      -1.55160075
N       -0.48744820      -1.71545823      -1.33600266
H       -1.86624174       1.53760259      -0.20980354
H       -1.55809766       0.44480554       1.11757782
H       -0.76999026       2.02114438       1.09055061
H        0.46482648       1.35038714      -1.02323357
H        1.30565794      -0.03689088       1.38815979
H        2.02658834      -0.31471628      -0.23250856
H        1.17056669      -2.44926501       0.09904525
13
Frame=8 idx=002864 GeodesicLength=1.0908560190664227 rxn_smarts="[C:1]([C@@:2]([C:3]([O:4][H:13])([H:11])[H:12])([C:5]#[N:6])[H:10])([H:7])([H:8])[H:9]>>[C:1]([C:2](=[C:3]([H:11])[H:12])[H:10])([H:7])([H:8])[H:9].[O:4]([N+:6]#[C-:5])[H:13]"
C       -1.09065136       1.16787023       0.47199564
C        0.08173773       0.61545665      -0.31481359
C        1.12522641      -0.10561019       0.31475106
O        0.29679729      -1.97467840       0.21677806
C       -0.71042079      -0.54620768      -1.59769714
N       -0.49879358      -1.70486814      -1.37613605
H       -1.86312826       1.53340434      -0.20573180
H       -1.56985824       0.41941205       1.10398092
H       -0.77994209       1.99300884       1.11299477
H        0.47131673       1.36589239      -1.00254165
H        1.36435462      -0.00694970       1.36691520
H        2.01646941      -0.34455336      -0.26448500
H        1.15689212      -2.41217701       0.17398957
13
Frame=9 idx=002864 GeodesicLength=1.2270808796873816 rxn_smarts="[C:1]([C@@:2]([C:3]([O:4][H:13])([H:11])[H:12])([C:5]#[N:6])[H:10])([H:7])([H:8])[H:9]>>[C:1]([C:2](=[C:3]([H:11])[H:12])[H:10])([H:7])([H:8])[H:9].[O:4]([N+:6]#[C-:5])[H:13]"
C       -1.09283190       1.15111632       0.47575679
C        0.08763322       0.61573307      -0.30939606
C        1.13383808      -0.11420357       0.30710861
O        0.26860709      -1.96313189       0.24784206
C       -0.70407043      -0.53778184      -1.64324373
N       -0.51013605      -1.69398932      -1.41716459
H       -1.85973586       1.52941304      -0.20157201
H       -1.58194130       0.39463558       1.09013265
H       -0.78976692       1.96432081       1.13517885
H        0.47770736       1.38022341      -0.98142794
H        1.42327527       0.02239481       1.34259842
H        2.00504320      -0.37464485      -0.29485255
H        1.14237824      -2.37408557       0.24903949
13
Frame=10 idx=002864 GeodesicLength=1.3632912927717507 rxn_smarts="[C:1]([C@@:2]([C:3]([O:4][H:13])([H:11])[H:12])([C:5]#[N:6])[H:10])([H:7])([H:8])[H:9]>>[C:1]([C:2](=[C:3]([H:11])[H:12])[H:10])([H:7])([H:8])[H:9].[O:4]([N+:6]#[C-:5])[H:13]"
C       -1.09501679       1.13427438       0.47950418
C        0.09346926       0.61560685      -0.30339712
C        1.14234071      -0.12273321       0.30030996
O        0.24259904      -1.95098447       0.27951733
C       -0.69786773      -0.52905912      -1.68844154
N       -0.52143192      -1.68275323      -1.45929200
H       -1.85606218       1.52566852      -0.19727421
H       -1.59438078       0.37038584       1.07597268
H       -0.79948652       1.93497139       1.15718912
H        0.48400126       1.39347279      -0.95987460
H        1.48239006       0.05104767       1.31502116
H        1.99226075      -0.40520947      -0.32365516
H        1.12718485      -2.33468792       0.32442020
13
Frame=11 idx=002864 GeodesicLength=1.499468909303997 rxn_smarts="[C:1]([C@@:2]([C:3]([O:4][H:13])([H:11])[H:12])([C:5]#[N:6])[H:10])([H:7])([H:8])[H:9]>>[C:1]([C:2](=[C:3]([H:11])[H:12])[H:10])([H:7])([H:8])[H:9].[O:4]([N+:6]#[C-:5])[H:13]"
C       -1.09721246       1.11727987       0.48324613
C        0.09925376       0.61507334      -0.29683510
C        1.15078379      -0.13120036       0.29428541
O        0.21868880      -1.93829131       0.31218749
C       -0.69179844      -0.51986215      -1.73347841
N       -0.53265005      -1.67104198      -1.50275325
H       -1.85209724       1.52217345      -0.19277900
H       -1.60718240       0.34656161       1.06143023
H       -0.80912458       1.90483709       1.17909336
H        0.49019474       1.40572550      -0.93784835
H        1.54165171       0.07888449       1.28395906
H        1.97804383      -0.43646280      -0.35091515
H        1.11144855      -2.29367675       0.40040758
13
Frame=12 idx=002864 GeodesicLength=1.6356722698577775 rxn_smarts="[C:1]([C@@:2]([C:3]([O:4][H:13])([H:11])[H:12])([C:5]#[N:6])[H:10])([H:7])([H:8])[H:9]>>[C:1]([C:2](=[C:3]([H:11])[H:12])[H:10])([H:7])([H:8])[H:9].[O:4]([N+:6]#[C-:5])[H:13]"
C       -1.09943315       1.10006207       0.48698584
C        0.10499952       0.61412842      -0.28973509
C        1.15923079      -0.13961192       0.28895438
O        0.19682240      -1.92508080       0.34627694
C       -0.68582973      -0.51000015      -1.77854018
N       -0.54377173      -1.65868459      -1.54780667
H       -1.84784855       1.51891934      -0.18802369
H       -1.62035456       0.32305410       1.04643813
H       -0.81872319       1.87378928       1.20094634
H        0.49628619       1.41706984      -0.91532260
H        1.60100438       0.10573622       1.24916277
H        1.96231086      -0.46863572      -0.37663784
H        1.09530679      -2.25074611       0.47730166
13
Frame=13 idx=002864 GeodesicLength=1.7720139907616914 rxn_smarts="[C:1]([C@@:2]([C:3]([O:4][H:13])([H:11])[H:12])([C:5]#[N:6])[H:10])([H:7])([H:8])[H:9]>>[C:1]([C:2](=[C:3]([H:11])[H:12])[H:10])([H:7])([H:8])[H:9].[O:4]([N+:6]#[C-:5])[H:13]"
C       -1.10167386       1.08252518       0.49071434
C        0.11072163       0.61275323      -0.28211430
C        1.16772673      -0.14798009       0.28423588
O        0.17696470      -1.91132975       0.38223873
C       -0.67990349      -0.49928542      -1.82378823
N       -0.55480327      -1.64544407      -1.59476237
H       -1.84330462       1.51583774      -0.18294379
H       -1.63386536       0.29974443       1.03091726
H       -0.82831888       1.84168217       1.22277295
H        0.50227220       1.42756842      -0.89223680
H        1.66037765       0.13142748       1.21033796
H        1.94492784      -0.50196527      -0.40078076
H        1.07887875      -2.20553405       0.55540913
13
Frame=14 idx=002864 GeodesicLength=1.9084060794280524 rxn_smarts="[C:1]([C@@:2]([C:3]([O:4][H:13])([H:11])[H:12])([C:5]#[N:6])[H:10])([H:7])([H:8])[H:9]>>[C:1]([C:2](=[C:3]([H:11])[H:12])[H:10])([H:7])([H:8])[H:9].[O:4]([N+:6]#[C-:5])[H:13]"
C       -1.10395169       1.06459038       0.49442177
C        0.11643499       0.61092723      -0.27399636
C        1.17634222      -0.15632868       0.28004919
O        0.15912230      -1.89695875       0.42063960
C       -0.67398857      -0.48747416      -1.86942040
N       -0.56566560      -1.63120250      -1.64379479
H       -1.83847802       1.51291549      -0.17749398
H       -1.64772994       0.27653802       1.01478763
H       -0.83794774       1.80836459       1.24460140
H        0.50815124       1.43726814      -0.86857532
H        1.71962916       0.15558753       1.16727051
H        1.92577652      -0.53668311      -0.42329565
H        1.06230512      -2.15754418       0.63480641
13
Frame=15 idx=002864 GeodesicLength=2.044918996289444 rxn_smarts="[C:1]([C@@:2]([C:3]([O:4][H:13])([H:11])[H:12])([C:5]#[N:6])[H:10])([H:7])([H:8])[H:9]>>[C:1]([C:2](=[C:3]([H:11])[H:12])[H:10])([H:7])([H:8])[H:9].[O:4]([N+:6]#[C-:5])[H:13]"
C       -1.10627944       1.04615673       0.49808366
C        0.12215388       0.60861685      -0.26539532
C        1.18512122      -0.16470516       0.27631127
O        0.14330972      -1.88182780       0.46214308
C       -0.66800533      -0.47433144      -1.91561237
N       -0.57632194      -1.61571260      -1.69517381
H       -1.83336837       1.51009407      -0.17162966
H       -1.66194880       0.25332531       0.99794442
H       -0.84766807       1.77366654       1.26644109
H        0.51392482       1.44620284      -0.84427618
H        1.77863532       0.17788366       1.11966967
H        1.90466468      -0.57305618      -0.44408354
H        1.04578230      -2.10631282       0.71557770
13
Frame=16 idx=002864 GeodesicLength=2.181560539143377 rxn_smarts="[C:1]([C@@:2]([C:3]([O:4][H:13])([H:11])[H:12])([C:5]#[N:6])[H:10])([H:7])([H:8])[H:9]>>[C:1]([C:2](=[C:3]([H:11])[H:12])[H:10])([H:7])([H:8])[H:9].[O:4]([N+:6]#[C-:5])[H:13]"
C       -1.10865809       1.02709937       0.50166022
C        0.12788915       0.60578516      -0.25632274
C        1.19408652      -0.17315875       0.27291583
O        0.12954294      -1.86568766       0.50752382
C       -0.66188161      -0.45958877      -1.96251443
N       -0.58666748      -1.59871735      -1.74918231
H       -1.82796446       1.50727642      -0.16530299
H       -1.67650053       0.22997926       0.98026249
H       -0.85751366       1.73739155       1.28825975
H        0.51959225       1.45439450      -0.81926240
H        1.83720916       0.19781751       1.06725825
H        1.88131779      -0.61132775      -0.46303010
H        1.02954802      -2.05126348       0.79773460
