13
Frame=0 idx=003786 GeodesicLength=0.0 rxn_smarts="[C:1]([N:2]1[C:3]([H:10])([H:11])[C@:4]1([C:5]#[C:6][H:13])[H:12])([H:7])([H:8])[H:9]>>[C:1]([N:2]1[C:3]([H:10])([H:11])/[C:4]1=[C:5](/[C:6][H:13])[H:12])([H:7])([H:8])[H:9]"
C       -1.69433296      -0.13977609      -0.54960237
N       -0.76477097      -0.55359894       0.47665315
C       -0.23336159       0.29974213       1.54808417
C        0.55761171      -0.31919363       0.47609534
C        1.66165639      -0.31051639      -0.34391562
C        2.62675758      -0.78818062      -1.05648622
H       -1.55526778      -0.77344315      -1.42410086
H       -1.51536285       0.90587781      -0.83588391
H       -2.71426948      -0.24909567      -0.18561522
H       -0.41877958       1.37057516       1.47635068
H       -0.25797227      -0.12265112       2.54582927
H        1.22236833       0.83147247      -0.31770156
H        3.08572342      -0.15121195      -1.80970689
13
Frame=1 idx=003786 GeodesicLength=0.0489161496771483 rxn_smarts="[C:1]([N:2]1[C:3]([H:10])([H:11])[C@:4]1([C:5]#[C:6][H:13])[H:12])([H:7])([H:8])[H:9]>>[C:1]([N:2]1[C:3]([H:10])([H:11])/[C:4]1=[C:5](/[C:6][H:13])[H:12])([H:7])([H:8])[H:9]"
C       -1.68993579      -0.14207766      -0.55260207
N       -0.75514030      -0.54769665       0.47213107
C       -0.24118127       0.30314625       1.55257851
C        0.56291803      -0.28616653       0.47447814
C        1.67985790      -0.29381656      -0.32799946
C        2.58913730      -0.81272135      -1.08277334
H       -1.53529824      -0.76533697      -1.43204223
H       -1.53234934       0.90957253      -0.82889338
H       -2.70833170      -0.27523471      -0.19197023
H       -0.44576295       1.37118368       1.49312847
H       -0.25256091      -0.13194580       2.54509235
H        1.23648500       0.85941787      -0.30321240
H        3.09216226      -0.18832410      -1.81791543
13
Frame=2 idx=003786 GeodesicLength=0.09743846300095282 rxn_smarts="[C:1]([N:2]1[C:3]([H:10])([H:11])[C@:4]1([C:5]#[C:6][H:13])[H:12])([H:7])([H:8])[H:9]>>[C:1]([N:2]1[C:3]([H:10])([H:11])/[C:4]1=[C:5](/[C:6][H:13])[H:12])([H:7])([H:8])[H:9]"
C       -1.68768059      -0.14380320      -0.55486225
N       -0.74570678      -0.54165465       0.46628687
C       -0.24760520       0.30547789       1.55557881
C        0.56736635      -0.25238670       0.46964872
C        1.69578646      -0.27700774      -0.31671572
C        2.55723392      -0.83264666      -1.10001396
H       -1.51903878      -0.75542956      -1.43995392
H       -1.55248933       0.91356158      -0.82052233
H       -2.70332320      -0.30147693      -0.19608055
H       -0.47185915       1.37016347       1.50971464
H       -0.24362155      -0.14279079       2.54225801
H        1.24929004       0.88810368      -0.29188986
H        3.10164779      -0.23011038      -1.82344845
13
Frame=3 idx=003786 GeodesicLength=0.14592338560024243 rxn_smarts="[C:1]([N:2]1[C:3]([H:10])([H:11])[C@:4]1([C:5]#[C:6][H:13])[H:12])([H:7])([H:8])[H:9]>>[C:1]([N:2]1[C:3]([H:10])([H:11])/[C:4]1=[C:5](/[C:6][H:13])[H:12])([H:7])([H:8])[H:9]"
C       -1.68691094      -0.14535488      -0.55651509
N       -0.73653645      -0.53536346       0.45981071
C       -0.25276121       0.30740634       1.55741683
C        0.57100356      -0.21829383       0.46269300
C        1.70986199      -0.26114683      -0.30849863
C        2.52550417      -0.84998370      -1.11554935
H       -1.50537769      -0.74454460      -1.44761151
H       -1.57483352       0.91727040      -0.81118665
H       -2.69879326      -0.32796950      -0.19866738
H       -0.49686568       1.36816222       1.52575422
H       -0.23188191      -0.15373940       2.53790968
H        1.26161059       0.91669449      -0.28256621
H        3.11598034      -0.27313726      -1.82298962
13
Frame=4 idx=003786 GeodesicLength=0.1942558908567616 rxn_smarts="[C:1]([N:2]1[C:3]([H:10])([H:11])[C@:4]1([C:5]#[C:6][H:13])[H:12])([H:7])([H:8])[H:9]>>[C:1]([N:2]1[C:3]([H:10])([H:11])/[C:4]1=[C:5](/[C:6][H:13])[H:12])([H:7])([H:8])[H:9]"
C       -1.68662638      -0.14660121      -0.55821793
N       -0.72715638      -0.52877340       0.45248663
C       -0.25722393       0.30875423       1.55859427
C        0.57415408      -0.18335937       0.45448664
C        1.72314460      -0.24517008      -0.30135671
C        2.49776856      -0.86479360      -1.12505624
H       -1.49265249      -0.73220022      -1.45578699
H       -1.59851300       0.92091297      -0.80107791
H       -2.69388468      -0.35495931      -0.20111644
H       -0.52164767       1.36491165       1.54200024
H       -0.21852644      -0.16532097       2.53235028
H        1.27391047       0.94599619      -0.27392088
H        3.12725326      -0.31939688      -1.82338497
13
Frame=5 idx=003786 GeodesicLength=0.24254028628938298 rxn_smarts="[C:1]([N:2]1[C:3]([H:10])([H:11])[C@:4]1([C:5]#[C:6][H:13])[H:12])([H:7])([H:8])[H:9]>>[C:1]([N:2]1[C:3]([H:10])([H:11])/[C:4]1=[C:5](/[C:6][H:13])[H:12])([H:7])([H:8])[H:9]"
C       -1.68792351      -0.14756752      -0.55932255
N       -0.71792236      -0.52185887       0.44421679
C       -0.26043164       0.30952813       1.55863220
C        0.57643749      -0.14761179       0.44397936
C        1.73481847      -0.22913265      -0.29693424
C        2.47153688      -0.87784224      -1.13243986
H       -1.48281062      -0.71854519      -1.46388885
H       -1.62464309       0.92434176      -0.78969926
H       -2.68939491      -0.38225795      -0.20201113
H       -0.54558451       1.36034790       1.55818224
H       -0.20236353      -0.17747230       2.52501329
H        1.28533446       0.97590415      -0.26756245
H        3.14294686      -0.36783344      -1.81816552
13
Frame=6 idx=003786 GeodesicLength=0.2907183097501558 rxn_smarts="[C:1]([N:2]1[C:3]([H:10])([H:11])[C@:4]1([C:5]#[C:6][H:13])[H:12])([H:7])([H:8])[H:9]>>[C:1]([N:2]1[C:3]([H:10])([H:11])/[C:4]1=[C:5](/[C:6][H:13])[H:12])([H:7])([H:8])[H:9]"
C       -1.68951856      -0.14830230      -0.56055714
N       -0.70836104      -0.51456415       0.43503056
C       -0.26289948       0.30977530       1.55799525
C        0.57824655      -0.11087867       0.43237702
C        1.74602626      -0.21263599      -0.29286071
C        2.44877067      -0.88936122      -1.13489740
H       -1.47384891      -0.70357718      -1.47249341
H       -1.65182412       0.92746123      -0.77761678
H       -2.68427115      -0.40997793      -0.20295227
H       -0.56924834       1.35441969       1.57462281
H       -0.18469637      -0.19013740       2.51632619
H        1.29665295       1.00667719      -0.26180739
H        3.15497154      -0.41889856      -1.81316672
13
Frame=7 idx=003786 GeodesicLength=0.3387753479174828 rxn_smarts="[C:1]([N:2]1[C:3]([H:10])([H:11])[C@:4]1([C:5]#[C:6][H:13])[H:12])([H:7])([H:8])[H:9]>>[C:1]([N:2]1[C:3]([H:10])([H:11])/[C:4]1=[C:5](/[C:6][H:13])[H:12])([H:7])([H:8])[H:9]"
C       -1.69181237      -0.14887062      -0.56163806
N       -0.69875935      -0.50690123       0.42507702
C       -0.26436192       0.30962414       1.55650625
C        0.57938213      -0.07356162       0.41945134
C        1.75622445      -0.19629867      -0.28982416
C        2.42742595      -0.89977393      -1.13522471
H       -1.46654830      -0.68764341      -1.48120455
H       -1.68017449       0.93008068      -0.76479752
H       -2.67886246      -0.43780689      -0.20341136
H       -0.59208874       1.34726461       1.59099605
H       -0.16521349      -0.20291194       2.50619348
H        1.30769618       1.03784613      -0.25697429
H        3.16709241      -0.47104726      -1.80514949
13
Frame=8 idx=003786 GeodesicLength=0.3867277203858973 rxn_smarts="[C:1]([N:2]1[C:3]([H:10])([H:11])[C@:4]1([C:5]#[C:6][H:13])[H:12])([H:7])([H:8])[H:9]>>[C:1]([N:2]1[C:3]([H:10])([H:11])/[C:4]1=[C:5](/[C:6][H:13])[H:12])([H:7])([H:8])[H:9]"
C       -1.69597534      -0.14924448      -0.56184805
N       -0.68955231      -0.49891538       0.41422384
C       -0.26419090       0.30896769       1.55368300
C        0.57944992      -0.03590294       0.40408934
C        1.76432463      -0.18013137      -0.29008796
C        2.40473249      -0.90778305      -1.13850256
H       -1.46293739      -0.67077066      -1.48946973
H       -1.71081655       0.93218381      -0.75047203
H       -2.67406771      -0.46555480      -0.20191458
H       -0.61327403       1.33875503       1.60715101
H       -0.14271468      -0.21589059       2.49400035
H        1.31751409       1.06942760      -0.25436743
H        3.18750778      -0.52514085      -1.78648520
13
Frame=9 idx=003786 GeodesicLength=0.4346276122689045 rxn_smarts="[C:1]([N:2]1[C:3]([H:10])([H:11])[C@:4]1([C:5]#[C:6][H:13])[H:12])([H:7])([H:8])[H:9]>>[C:1]([N:2]1[C:3]([H:10])([H:11])/[C:4]1=[C:5](/[C:6][H:13])[H:12])([H:7])([H:8])[H:9]"
C       -1.69866445      -0.14968479      -0.56307909
N       -0.67955007      -0.49047802       0.40287158
C       -0.26388315       0.30818339       1.55076157
C        0.57956901       0.00242114       0.38955028
C        1.77315605      -0.16370298      -0.28755347
C        2.38642381      -0.91614427      -1.13396391
H       -1.45765174      -0.65348733      -1.49850635
H       -1.74004738       0.93341890      -0.73685721
H       -2.66729263      -0.49340213      -0.20242820
H       -0.63457038       1.32915580       1.62337594
H       -0.12066978      -0.22855984       2.48126186
H        1.32815736       1.10156114      -0.24998837
H        3.19502335      -0.57928102      -1.77544464
13
Frame=10 idx=003786 GeodesicLength=0.48238340293837606 rxn_smarts="[C:1]([N:2]1[C:3]([H:10])([H:11])[C@:4]1([C:5]#[C:6][H:13])[H:12])([H:7])([H:8])[H:9]>>[C:1]([N:2]1[C:3]([H:10])([H:11])/[C:4]1=[C:5](/[C:6][H:13])[H:12])([H:7])([H:8])[H:9]"
C       -1.70265697      -0.14999118      -0.56367182
N       -0.66985430      -0.48173594       0.39077361
C       -0.26206336       0.30699990       1.54666235
C        0.57882854       0.04068954       0.37325616
C        1.78013115      -0.14754863      -0.28761124
C        2.36659752      -0.92192140      -1.13281663
H       -1.45522064      -0.63541780      -1.50717836
H       -1.77071537       0.93400849      -0.72198288
H       -2.66071017      -0.52108141      -0.20166665
H       -0.65403546       1.31830316       1.63925707
H       -0.09634566      -0.24113937       2.46672079
H        1.33776021       1.13394877      -0.24677395
H        3.20828451      -0.63511415      -1.75496847
13
Frame=11 idx=003786 GeodesicLength=0.5300768896421417 rxn_smarts="[C:1]([N:2]1[C:3]([H:10])([H:11])[C@:4]1([C:5]#[C:6][H:13])[H:12])([H:7])([H:8])[H:9]>>[C:1]([N:2]1[C:3]([H:10])([H:11])/[C:4]1=[C:5](/[C:6][H:13])[H:12])([H:7])([H:8])[H:9]"
C       -1.70659213      -0.15030151      -0.56438725
N       -0.66002065      -0.47264754       0.37815406
C       -0.25937847       0.30564319       1.54191328
C        0.57771150       0.07892924       0.35661124
C        1.78643246      -0.13150443      -0.28772917
C        2.34772865      -0.92673598      -1.13026040
H       -1.45347274      -0.61688006      -1.51594648
H       -1.80126344       0.93378520      -0.70681184
H       -2.65329206      -0.54863572      -0.20122164
H       -0.67235567       1.30641687       1.65483463
H       -0.07125671      -0.25333032       2.45108623
H        1.34695800       1.16656495      -0.24327333
H        3.21880127      -0.69130388      -1.73296931
13
Frame=12 idx=003786 GeodesicLength=0.5778338331735704 rxn_smarts="[C:1]([N:2]1[C:3]([H:10])([H:11])[C@:4]1([C:5]#[C:6][H:13])[H:12])([H:7])([H:8])[H:9]>>[C:1]([N:2]1[C:3]([H:10])([H:11])/[C:4]1=[C:5](/[C:6][H:13])[H:12])([H:7])([H:8])[H:9]"
C       -1.70947448      -0.15074193      -0.56577412
N       -0.64974189      -0.46319761       0.36525646
C       -0.25630420       0.30430509       1.53688264
C        0.57661825       0.11700135       0.34067801
C        1.79290218      -0.11554797      -0.28603635
C        2.33154516      -0.93219969      -1.12238509
H       -1.45087247      -0.59835317      -1.52501711
H       -1.83040188       0.93258121      -0.69230625
H       -2.64435810      -0.57585707      -0.20213362
H       -0.68997326       1.29372666       1.66997459
H       -0.04650208      -0.26485075       2.43493040
H        1.35604566       1.19922895      -0.23855963
H        3.22051712      -0.74609507      -1.71550993
13
Frame=13 idx=003786 GeodesicLength=0.6255251818739491 rxn_smarts="[C:1]([N:2]1[C:3]([H:10])([H:11])[C@:4]1([C:5]#[C:6][H:13])[H:12])([H:7])([H:8])[H:9]>>[C:1]([N:2]1[C:3]([H:10])([H:11])/[C:4]1=[C:5](/[C:6][H:13])[H:12])([H:7])([H:8])[H:9]"
C       -1.71281312      -0.15110923      -0.56688415
N       -0.63963143      -0.45350958       0.35190733
C       -0.25209122       0.30273751       1.53103591
C        0.57508467       0.15449410       0.32407213
C        1.79808818      -0.09978011      -0.28586300
C        2.31446700      -0.93565503      -1.11681193
H       -1.44978733      -0.57921281      -1.53387644
H       -1.85980704       0.93066030      -0.67697383
H       -2.63503922      -0.60282742      -0.20277970
H       -0.70579776       1.28007502       1.68462855
H       -0.02064076      -0.27600417       2.41757134
H        1.36399265       1.23197683      -0.23397179
H        3.22397536      -0.80184542      -1.69205443
13
Frame=14 idx=003786 GeodesicLength=0.6731435587786416 rxn_smarts="[C:1]([N:2]1[C:3]([H:10])([H:11])[C@:4]1([C:5]#[C:6][H:13])[H:12])([H:7])([H:8])[H:9]>>[C:1]([N:2]1[C:3]([H:10])([H:11])/[C:4]1=[C:5](/[C:6][H:13])[H:12])([H:7])([H:8])[H:9]"
C       -1.71617601      -0.15149342      -0.56791157
N       -0.62959378      -0.44364775       0.33827615
C       -0.24697135       0.30099901       1.52459061
C        0.57331761       0.19123279       0.30732334
C        1.80233449      -0.08408180      -0.28665411
C        2.29700801      -0.93719311      -1.11285625
H       -1.44963224      -0.55993242      -1.54249941
H       -1.88871071       0.92794451      -0.66134575
H       -2.62514989      -0.62924047      -0.20348638
H       -0.71998012       1.26559804       1.69876715
H        0.00575810      -0.28672411       2.39933577
H        1.37075219       1.26479295      -0.22904296
H        3.22704368      -0.85825423      -1.66449658
13
Frame=15 idx=003786 GeodesicLength=0.7208493180923273 rxn_smarts="[C:1]([N:2]1[C:3]([H:10])([H:11])[C@:4]1([C:5]#[C:6][H:13])[H:12])([H:7])([H:8])[H:9]>>[C:1]([N:2]1[C:3]([H:10])([H:11])/[C:4]1=[C:5](/[C:6][H:13])[H:12])([H:7])([H:8])[H:9]"
C       -1.71818226      -0.15218152      -0.56961063
N       -0.61931272      -0.43363818       0.32497544
C       -0.24180401       0.29959895       1.51820247
C        0.57185895       0.22691255       0.29203571
C        1.80682008      -0.06906066      -0.28546115
C        2.28137807      -0.93982047      -1.10455202
H       -1.44810220      -0.54157355      -1.55107609
H       -1.91526484       0.92418519      -0.64712125
H       -2.61389497      -0.65480117      -0.20560387
H       -0.73333930       1.25104264       1.71201863
H        0.03090447      -0.29619712       2.38142094
H        1.37713870       1.29699388      -0.22247080
H        3.22180003      -0.91146055      -1.64275737
13
Frame=16 idx=003786 GeodesicLength=0.7684845159649925 rxn_smarts="[C:1]([N:2]1[C:3]([H:10])([H:11])[C@:4]1([C:5]#[C:6][H:13])[H:12])([H:7])([H:8])[H:9]>>[C:1]([N:2]1[C:3]([H:10])([H:11])/[C:4]1=[C:5](/[C:6][H:13])[H:12])([H:7])([H:8])[H:9]"
C       -1.72039274      -0.15279546      -0.57107151
N       -0.60918158      -0.42353624       0.31139174
C       -0.23568443       0.29791627       1.51121813
C        0.57021053       0.26173101       0.27648153
C        1.81027561      -0.05386891      -0.28596225
C        2.26487514      -0.93992440      -1.09949936
H       -1.44771056      -0.52277715      -1.55938087
H       -1.94157344       0.91980829      -0.63222748
H       -2.60223849      -0.67989015      -0.20763447
H       -0.74493439       1.23564939       1.72482737
H        0.05675849      -0.30548747       2.36262210
H        1.38189708       1.32939992      -0.21586485
H        3.21769879      -0.96622510      -1.61490008
