10
Frame=0 idx=004098 GeodesicLength=0.0 rxn_smarts="[C:1]([c:2]1[c:3]([H:10])[n:4][n:5][o:6]1)([H:7])([H:8])[H:9]>>[C:1](=[C:2]1[C:3]([H:10])=[N:4][N:5]([H:9])[O:6]1)([H:7])[H:8]"
C       -1.19258863      -0.46591965      -0.12650498
C        0.08487357      -0.31638405      -0.65667906
C        0.74179524       0.95397011      -0.58661323
N        1.37393586       0.90930620       0.55134879
N        1.24460350      -0.32209437       1.08670069
O        0.91342441      -1.18322998      -0.03008120
H       -1.53595846      -1.46371604       0.12242956
H       -1.95435629       0.28040913      -0.32078924
H       -0.27987974      -0.25043214       1.11711153
H        0.60415054       1.85809080      -1.15692287
10
Frame=1 idx=004098 GeodesicLength=0.06236730312345574 rxn_smarts="[C:1]([c:2]1[c:3]([H:10])[n:4][n:5][o:6]1)([H:7])([H:8])[H:9]>>[C:1](=[C:2]1[C:3]([H:10])=[N:4][N:5]([H:9])[O:6]1)([H:7])[H:8]"
C       -1.19852157      -0.46389269      -0.12178321
C        0.08065997      -0.31355680      -0.65286324
C        0.74558354       0.95205153      -0.58623091
N        1.39630003       0.90380730       0.54301539
N        1.25781069      -0.32221070       1.08253151
O        0.91361540      -1.18101172      -0.03154628
H       -1.54259479      -1.46277403       0.12216302
H       -1.96304736       0.26936559      -0.35166355
H       -0.28295257      -0.24355885       1.14014925
H        0.59314666       1.86178038      -1.14377196
10
Frame=2 idx=004098 GeodesicLength=0.12469591469162339 rxn_smarts="[C:1]([c:2]1[c:3]([H:10])[n:4][n:5][o:6]1)([H:7])([H:8])[H:9]>>[C:1](=[C:2]1[C:3]([H:10])=[N:4][N:5]([H:9])[O:6]1)([H:7])[H:8]"
C       -1.20466079      -0.46155878      -0.11707328
C        0.07631562      -0.31054829      -0.64902600
C        0.74922817       0.95025971      -0.58583002
N        1.41867283       0.89810247       0.53422496
N        1.27094606      -0.32233625       1.07814275
O        0.91360699      -1.17871923      -0.03310838
H       -1.54927478      -1.46154754       0.12201248
H       -1.97138727       0.25718670      -0.38277191
H       -0.28603288      -0.23637571       1.16357035
H        0.58258605       1.86553692      -1.13014094
10
Frame=3 idx=004098 GeodesicLength=0.18698524192176025 rxn_smarts="[C:1]([c:2]1[c:3]([H:10])[n:4][n:5][o:6]1)([H:7])([H:8])[H:9]>>[C:1](=[C:2]1[C:3]([H:10])=[N:4][N:5]([H:9])[O:6]1)([H:7])[H:8]"
C       -1.21100840      -0.45892957      -0.11244595
C        0.07185634      -0.30736260      -0.64518656
C        0.75273714       0.94859359      -0.58541479
N        1.44101280       0.89219310       0.52498034
N        1.28397819      -0.32246168       1.07354098
O        0.91340468      -1.17634792      -0.03476227
H       -1.55598666      -1.46004291       0.12196659
H       -1.97932403       0.24388871      -0.41398732
H       -0.28915815      -0.22888810       1.18735960
H        0.57248809       1.86935739      -1.11605061
10
Frame=4 idx=004098 GeodesicLength=0.24923391553498223 rxn_smarts="[C:1]([c:2]1[c:3]([H:10])[n:4][n:5][o:6]1)([H:7])([H:8])[H:9]>>[C:1](=[C:2]1[C:3]([H:10])=[N:4][N:5]([H:9])[O:6]1)([H:7])[H:8]"
C       -1.21756364      -0.45602084      -0.10796783
C        0.06729894      -0.30400842      -0.64136576
C        0.75612232       0.94704723      -0.58499266
N        1.46328811       0.88607430       0.51528072
N        1.29688012      -0.32258223       1.06873284
O        0.91301530      -1.17389907      -0.03650437
H       -1.56271731      -1.45826603       0.12202634
H       -1.98680830       0.22949580      -0.44520749
H       -0.29236597      -0.22108502       1.21149862
H        0.56285044       1.87324428      -1.10150042
10
Frame=5 idx=004098 GeodesicLength=0.3114491164461596 rxn_smarts="[C:1]([c:2]1[c:3]([H:10])[n:4][n:5][o:6]1)([H:7])([H:8])[H:9]>>[C:1](=[C:2]1[C:3]([H:10])=[N:4][N:5]([H:9])[O:6]1)([H:7])[H:8]"
C       -1.22432759      -0.45285818      -0.10371997
C        0.06266145      -0.30049176      -0.63758488
C        0.75938787       0.94562047      -0.58456690
N        1.48545157       0.87975767       0.50513863
N        1.30962521      -0.32268317       1.06372771
O        0.91244915      -1.17136687      -0.03832765
H       -1.56945208      -1.45624064       0.12217054
H       -1.99379607       0.21406231      -0.47627886
H       -0.29570023      -0.21298538       1.23597350
H        0.55370073       1.87718556      -1.08653211
10
Frame=6 idx=004098 GeodesicLength=0.37362243836100373 rxn_smarts="[C:1]([c:2]1[c:3]([H:10])[n:4][n:5][o:6]1)([H:7])([H:8])[H:9]>>[C:1](=[C:2]1[C:3]([H:10])=[N:4][N:5]([H:9])[O:6]1)([H:7])[H:8]"
C       -1.23129356      -0.44946472      -0.09975123
C        0.05795974      -0.29682533      -0.63386226
C        0.76254519       0.94430522      -0.58414523
N        1.50748217       0.87323329       0.49455035
N        1.32220009      -0.32276501       1.05852952
O        0.91171867      -1.16875732      -0.04023308
H       -1.57617823      -1.45397877       0.12241182
H       -2.00025530       0.19763263      -0.50714152
H       -0.29919623      -0.20456341       1.26076528
H        0.54501745       1.88118340      -1.07112364
10
Frame=7 idx=004098 GeodesicLength=0.4357613020192816 rxn_smarts="[C:1]([c:2]1[c:3]([H:10])[n:4][n:5][o:6]1)([H:7])([H:8])[H:9]>>[C:1](=[C:2]1[C:3]([H:10])=[N:4][N:5]([H:9])[O:6]1)([H:7])[H:8]"
C       -1.23846011      -0.44587273      -0.09613768
C        0.05321169      -0.29301796      -0.63021683
C        0.76559802       0.94310016      -0.58373110
N        1.52933876       0.86651303       0.48352767
N        1.33458771      -0.32281336       1.05314676
O        0.91083721      -1.16606581      -0.04221384
H       -1.58288238      -1.45150979       0.12272912
H       -2.00615670       0.18027973      -0.53765994
H       -0.30289308      -0.19583415       1.28586581
H        0.53681887       1.88522088      -1.05530999
10
Frame=8 idx=004098 GeodesicLength=0.4978606920083365 rxn_smarts="[C:1]([c:2]1[c:3]([H:10])[n:4][n:5][o:6]1)([H:7])([H:8])[H:9]>>[C:1](=[C:2]1[C:3]([H:10])=[N:4][N:5]([H:9])[O:6]1)([H:7])[H:8]"
C       -1.24581994      -0.44211206      -0.09292533
C        0.04843259      -0.28908373      -0.62666614
C        0.76855477       0.94199757      -0.58333033
N        1.55100304       0.85959172       0.47206764
N        1.34678323      -0.32282445       1.04758333
O        0.90981667      -1.16329943      -0.04426628
H       -1.58955301      -1.44885300       0.12312697
H       -2.01147804       0.16206815      -0.56777882
H       -0.30682141      -0.18678068       1.31126551
H        0.52908210       1.88929590      -1.03907654
10
Frame=9 idx=004098 GeodesicLength=0.559955989235029 rxn_smarts="[C:1]([c:2]1[c:3]([H:10])[n:4][n:5][o:6]1)([H:7])([H:8])[H:9]>>[C:1](=[C:2]1[C:3]([H:10])=[N:4][N:5]([H:9])[O:6]1)([H:7])[H:8]"
C       -1.25337082      -0.43824982      -0.09017080
C        0.04363006      -0.28502698      -0.62321559
C        0.77139562       0.94100516      -0.58292361
N        1.57242798       0.85250372       0.46020674
N        1.35879242      -0.32279035       1.04184307
O        0.90867071      -1.16045307      -0.04638920
H       -1.59618244      -1.44605589       0.12358484
H       -2.01619818       0.14316494      -0.59744267
H       -0.31096565      -0.17745911       1.33701519
H        0.52180030       1.89336140      -1.02250799
10
Frame=10 idx=004098 GeodesicLength=0.622013460059586 rxn_smarts="[C:1]([c:2]1[c:3]([H:10])[n:4][n:5][o:6]1)([H:7])([H:8])[H:9]>>[C:1](=[C:2]1[C:3]([H:10])=[N:4][N:5]([H:9])[O:6]1)([H:7])[H:8]"
C       -1.26110146      -0.43427549      -0.08788941
C        0.03881813      -0.28086230      -0.61987699
C        0.77414708       0.94010806      -0.58253043
N        1.59362810       0.84521967       0.44791494
N        1.37062256      -0.32271195       1.03592139
O        0.90741131      -1.15753713      -0.04858168
H       -1.60276939      -1.44311223       0.12411547
H       -2.02033057       0.12353074      -0.62662563
H       -0.31538482      -0.16780696       1.36307531
H        0.51495906       1.89744757      -1.00552298
10
Frame=11 idx=004098 GeodesicLength=0.684045276542727 rxn_smarts="[C:1]([c:2]1[c:3]([H:10])[n:4][n:5][o:6]1)([H:7])([H:8])[H:9]>>[C:1](=[C:2]1[C:3]([H:10])=[N:4][N:5]([H:9])[O:6]1)([H:7])[H:8]"
C       -1.26900800      -0.43021586      -0.08611009
C        0.03400234      -0.27659412      -0.61665382
C        0.77680479       0.93930833      -0.58214518
N        1.61458298       0.83775071       0.43520178
N        1.38228727      -0.32258542       1.02981481
O        0.90604993      -1.15454978      -0.05084380
H       -1.60931027      -1.44004818       0.12470597
H       -2.02387689       0.10323583      -0.65529204
H       -0.32009538      -0.15784056       1.38947092
H        0.50856323       1.90153905      -0.98814855
10
Frame=12 idx=004098 GeodesicLength=0.7460496335551305 rxn_smarts="[C:1]([c:2]1[c:3]([H:10])[n:4][n:5][o:6]1)([H:7])([H:8])[H:9]>>[C:1](=[C:2]1[C:3]([H:10])=[N:4][N:5]([H:9])[O:6]1)([H:7])[H:8]"
C       -1.27708564      -0.42608437      -0.08484025
C        0.02918510      -0.27223061      -0.61354822
C        0.77937307       0.93859914      -0.58177131
N        1.63529387       0.83008707       0.42205286
N        1.39380821      -0.32241383       1.02351167
O        0.90459073      -1.15149905      -0.05317687
H       -1.61580866      -1.43686622       0.12537306
H       -2.02683570       0.08230573      -0.68348267
H       -0.32510270      -0.14753588       1.41621939
H        0.50258173       1.90563801      -0.97033766
10
Frame=13 idx=004098 GeodesicLength=0.8080356562843142 rxn_smarts="[C:1]([c:2]1[c:3]([H:10])[n:4][n:5][o:6]1)([H:7])([H:8])[H:9]>>[C:1](=[C:2]1[C:3]([H:10])=[N:4][N:5]([H:9])[O:6]1)([H:7])[H:8]"
C       -1.28533157      -0.42191036      -0.08410773
C        0.02437251      -0.26777631      -0.61056047
C        0.78184852       0.93798199      -0.58140209
N        1.65573952       0.82224575       0.40848172
N        1.40520078      -0.32219381       1.01700928
O        0.90304578      -1.14838311      -0.05557968
H       -1.62226270      -1.43359833       0.12609217
H       -2.02921707       0.06081931      -0.71115934
H       -0.33041608      -0.13690822       1.44335466
H        0.49702030       1.90972311      -0.95212854
10
Frame=14 idx=004098 GeodesicLength=0.8700033458867902 rxn_smarts="[C:1]([c:2]1[c:3]([H:10])[n:4][n:5][o:6]1)([H:7])([H:8])[H:9]>>[C:1](=[C:2]1[C:3]([H:10])=[N:4][N:5]([H:9])[O:6]1)([H:7])[H:8]"
C       -1.29374463      -0.41769622      -0.08391463
C        0.01956154      -0.26323145      -0.60768962
C        0.78423038       0.93745836      -0.58103096
N        1.67592422       0.81421512       0.39447097
N        1.41649070      -0.32193343       1.01029021
O        0.90141318      -1.14520736      -0.05805736
H       -1.62867931      -1.43023270       0.12688205
H       -2.03101602       0.03877034      -0.73837842
H       -0.33603645      -0.12593796       1.47090622
H        0.49185639       1.91379532      -0.93347844
10
Frame=15 idx=004098 GeodesicLength=0.9319571882125964 rxn_smarts="[C:1]([c:2]1[c:3]([H:10])[n:4][n:5][o:6]1)([H:7])([H:8])[H:9]>>[C:1](=[C:2]1[C:3]([H:10])=[N:4][N:5]([H:9])[O:6]1)([H:7])[H:8]"
C       -1.30232349      -0.41346103      -0.08428107
C        0.01475555      -0.25860024      -0.60493529
C        0.78651855       0.93702745      -0.58065499
N        1.69583542       0.80600472       0.38002150
N        1.42769903      -0.32163351       1.00334506
O        0.89969890      -1.14197338      -0.06060856
H       -1.63506129      -1.42678378       0.12773013
H       -2.03223715       0.01620418      -0.76513418
H       -0.34197012      -0.11462406       1.49890948
H        0.48708460       1.91783965      -0.91439208
10
Frame=16 idx=004098 GeodesicLength=0.9938969414569945 rxn_smarts="[C:1]([c:2]1[c:3]([H:10])[n:4][n:5][o:6]1)([H:7])([H:8])[H:9]>>[C:1](=[C:2]1[C:3]([H:10])=[N:4][N:5]([H:9])[O:6]1)([H:7])[H:8]"
C       -1.31107033      -0.40920622      -0.08521854
C        0.00995234      -0.25388146      -0.60229632
C        0.78871407       0.93669057      -0.58026970
N        1.71547445       0.79760941       0.36511990
N        1.43884960      -0.32130254       0.99615622
O        0.89789971      -1.13868558      -0.06323790
H       -1.64141594      -1.42324128       0.12865078
H       -2.03287623      -0.00688697      -0.79147057
H       -0.34821571      -0.10294870       1.52739894
H        0.48268805       1.92185278      -0.89483281
