11
Frame=0 idx=004756 GeodesicLength=0.0 rxn_smarts="[N:1]([C:2](=[O:3])[C:4]([C:5]#[C:6][H:11])([H:9])[H:10])([H:7])[H:8]>>[N:1]([C:2](=[O:3])[C:4]([C:6](=[C:5])[H:11])([H:9])[H:10])([H:7])[H:8]"
N       -1.17352371       1.01361312       0.76264080
C       -1.04775340      -0.00486848      -0.10535738
O       -1.92876872      -0.38715749      -0.84682433
C        0.28565965      -0.75104401      -0.08366386
C        1.50456105       0.25900523       0.62871132
C        1.87435080      -0.00706531      -0.53392226
H       -2.03897231       1.52130200       0.78638377
H       -0.38132750       1.30543603       1.30990116
H        0.26713067      -1.55413033       0.64952998
H        0.34383451      -1.24657402      -1.05927778
H        2.29480900      -0.14851678      -1.50812147
11
Frame=1 idx=004756 GeodesicLength=0.0481789645829719 rxn_smarts="[N:1]([C:2](=[O:3])[C:4]([C:5]#[C:6][H:11])([H:9])[H:10])([H:7])[H:8]>>[N:1]([C:2](=[O:3])[C:4]([C:6](=[C:5])[H:11])([H:9])[H:10])([H:7])[H:8]"
N       -1.16223420       1.02296216       0.74691814
C       -1.04867855      -0.01075355      -0.10551809
O       -1.94067193      -0.40106586      -0.82971917
C        0.27958937      -0.76679671      -0.08071561
C        1.52104165       0.21364798       0.65381945
C        1.87576990      -0.01327795      -0.52037381
H       -2.03396907       1.51896460       0.78832704
H       -0.35838871       1.34030901       1.26191769
H        0.24411500      -1.57425327       0.64767795
H        0.33550656      -1.26497634      -1.05519609
H        2.28791998      -0.06476008      -1.50713751
11
Frame=2 idx=004756 GeodesicLength=0.09517023971480046 rxn_smarts="[N:1]([C:2](=[O:3])[C:4]([C:5]#[C:6][H:11])([H:9])[H:10])([H:7])[H:8]>>[N:1]([C:2](=[O:3])[C:4]([C:6](=[C:5])[H:11])([H:9])[H:10])([H:7])[H:8]"
N       -1.15073713       1.03053075       0.73222895
C       -1.05071691      -0.01787299      -0.10422145
O       -1.95433598      -0.41596723      -0.80911077
C        0.27307719      -0.78200507      -0.07921253
C        1.53567296       0.16991159       0.67523598
C        1.87512024      -0.01707345      -0.50880231
H       -2.02586716       1.51887788       0.78907426
H       -0.33515014       1.37233232       1.21131860
H        0.22311824      -1.59393747       0.64394240
H        0.32565279      -1.28159315      -1.05285785
H        2.28416589       0.01679681      -1.49759528
11
Frame=3 idx=004756 GeodesicLength=0.14275844869463378 rxn_smarts="[N:1]([C:2](=[O:3])[C:4]([C:5]#[C:6][H:11])([H:9])[H:10])([H:7])[H:8]>>[N:1]([C:2](=[O:3])[C:4]([C:6](=[C:5])[H:11])([H:9])[H:10])([H:7])[H:8]"
N       -1.13877270       1.03764446       0.71744578
C       -1.05375392      -0.02581232      -0.10207761
O       -1.96984447      -0.43181013      -0.78570348
C        0.26623356      -0.79699780      -0.07885452
C        1.54939764       0.12744090       0.69369609
C        1.87365410      -0.01963407      -0.49869144
H       -2.01589833       1.52027861       0.78976380
H       -0.31174206       1.40190286       1.15843619
H        0.20336492      -1.61314138       0.63917451
H        0.31455040      -1.29753989      -1.05198219
H        2.28281085       0.09766876      -1.48120712
11
Frame=4 idx=004756 GeodesicLength=0.19134053572863646 rxn_smarts="[N:1]([C:2](=[O:3])[C:4]([C:5]#[C:6][H:11])([H:9])[H:10])([H:7])[H:8]>>[N:1]([C:2](=[O:3])[C:4]([C:6](=[C:5])[H:11])([H:9])[H:10])([H:7])[H:8]"
N       -1.12640489       1.04449894       0.70225674
C       -1.05767969      -0.03482854      -0.09880483
O       -1.98659084      -0.44832273      -0.76032036
C        0.25938662      -0.81201355      -0.07913863
C        1.56308350       0.08645277       0.70909265
C        1.87151872      -0.02074741      -0.49058006
H       -2.00339905       1.52557002       0.78678658
H       -0.28916784       1.42604566       1.10787356
H        0.18523722      -1.63168291       0.63448528
H        0.30248371      -1.31380465      -1.05185492
H        2.28153254       0.17883240      -1.45979603
11
Frame=5 idx=004756 GeodesicLength=0.2392411000827044 rxn_smarts="[N:1]([C:2](=[O:3])[C:4]([C:5]#[C:6][H:11])([H:9])[H:10])([H:7])[H:8]>>[N:1]([C:2](=[O:3])[C:4]([C:6](=[C:5])[H:11])([H:9])[H:10])([H:7])[H:8]"
N       -1.11340339       1.05101431       0.68618256
C       -1.06180049      -0.04450840      -0.09454339
O       -2.00333499      -0.46487590      -0.73299928
C        0.25261244      -0.82687267      -0.07995134
C        1.57650460       0.04673691       0.72102180
C        1.86789821      -0.02022440      -0.48442187
H       -1.98845126       1.53393826       0.77959863
H       -0.26734988       1.44462466       1.06034501
H        0.16884423      -1.64943643       0.62987004
H        0.28949352      -1.33023086      -1.05178609
H        2.27898701       0.25983453      -1.43331608
11
Frame=6 idx=004756 GeodesicLength=0.28783111640273884 rxn_smarts="[N:1]([C:2](=[O:3])[C:4]([C:5]#[C:6][H:11])([H:9])[H:10])([H:7])[H:8]>>[N:1]([C:2](=[O:3])[C:4]([C:6](=[C:5])[H:11])([H:9])[H:10])([H:7])[H:8]"
N       -1.09988583       1.05735881       0.66922294
C       -1.06612033      -0.05462376      -0.08966916
O       -2.02045060      -0.48160045      -0.70387263
C        0.24594017      -0.84180406      -0.08131542
C        1.59037345       0.00771541       0.72999815
C        1.86375817      -0.01878247      -0.48000452
H       -1.97175883       1.54468062       0.76912273
H       -0.24580901       1.45935379       1.01477466
H        0.15363065      -1.66660885       0.62544617
H        0.27568146      -1.34722611      -1.05206580
H        2.27464070       0.34153709      -1.40163712
11
Frame=7 idx=004756 GeodesicLength=0.3369681348350546 rxn_smarts="[N:1]([C:2](=[O:3])[C:4]([C:5]#[C:6][H:11])([H:9])[H:10])([H:7])[H:8]>>[N:1]([C:2](=[O:3])[C:4]([C:6](=[C:5])[H:11])([H:9])[H:10])([H:7])[H:8]"
N       -1.08710406       1.06340058       0.65212912
C       -1.07117418      -0.06453617      -0.08432066
O       -2.03851165      -0.49838528      -0.67255447
C        0.23919044      -0.85558410      -0.08381306
C        1.60434525      -0.02901225       0.73565953
C        1.85880902      -0.01485237      -0.47762959
H       -1.95573381       1.55506778       0.75906045
H       -0.22562191       1.47200216       0.97018110
H        0.13987316      -1.68236210       0.62041836
H        0.26080539      -1.36323603      -1.05342568
H        2.27512235       0.41749777      -1.36570509
11
Frame=8 idx=004756 GeodesicLength=0.38611798851898266 rxn_smarts="[N:1]([C:2](=[O:3])[C:4]([C:5]#[C:6][H:11])([H:9])[H:10])([H:7])[H:8]>>[N:1]([C:2](=[O:3])[C:4]([C:6](=[C:5])[H:11])([H:9])[H:10])([H:7])[H:8]"
N       -1.07470681       1.06926723       0.63445291
C       -1.07654957      -0.07435667      -0.07846740
O       -2.05684230      -0.51538175      -0.63881146
C        0.23236839      -0.86844669      -0.08734101
C        1.61820402      -0.06395334       0.73824736
C        1.85280370      -0.00879971      -0.47672926
H       -1.93989688       1.56535026       0.74874092
H       -0.20653604       1.48274381       0.92653611
H        0.12740086      -1.69695418       0.61459815
H        0.24494528      -1.37847896      -1.05559961
H        2.27880935       0.48900999      -1.32562671
11
Frame=9 idx=004756 GeodesicLength=0.4359686380864991 rxn_smarts="[N:1]([C:2](=[O:3])[C:4]([C:5]#[C:6][H:11])([H:9])[H:10])([H:7])[H:8]>>[N:1]([C:2](=[O:3])[C:4]([C:6](=[C:5])[H:11])([H:9])[H:10])([H:7])[H:8]"
N       -1.06286026       1.07443709       0.61707375
C       -1.08219918      -0.08416505      -0.07194274
O       -2.07532442      -0.53223336      -0.60307687
C        0.22569560      -0.88081030      -0.09155674
C        1.63284013      -0.09789853       0.73802211
C        1.84628776      -0.00085268      -0.47726535
H       -1.92374788       1.57706851       0.73535566
H       -0.18860124       1.49096461       0.88539036
H        0.11626911      -1.71091117       0.60857821
H        0.22829887      -1.39338515      -1.05832825
H        2.28334149       0.55778603      -1.28225014
11
Frame=10 idx=004756 GeodesicLength=0.4856553975018883 rxn_smarts="[N:1]([C:2](=[O:3])[C:4]([C:5]#[C:6][H:11])([H:9])[H:10])([H:7])[H:8]>>[N:1]([C:2](=[O:3])[C:4]([C:6](=[C:5])[H:11])([H:9])[H:10])([H:7])[H:8]"
N       -1.05182678       1.07922632       0.59956246
C       -1.08804799      -0.09373365      -0.06490803
O       -2.09359080      -0.54894507      -0.56521801
C        0.21906545      -0.89214544      -0.09665974
C        1.64760723      -0.13023193       0.73496205
C        1.83887976       0.00933985      -0.47893710
H       -1.90830431       1.58852809       0.72118452
H       -0.17219713       1.49760492       0.84595034
H        0.10639874      -1.72361906       0.60195018
H        0.21095769      -1.40740149      -1.06174126
H        2.29105814       0.62137745      -1.23614540
11
Frame=11 idx=004756 GeodesicLength=0.5359445384552535 rxn_smarts="[N:1]([C:2](=[O:3])[C:4]([C:5]#[C:6][H:11])([H:9])[H:10])([H:7])[H:8]>>[N:1]([C:2](=[O:3])[C:4]([C:6](=[C:5])[H:11])([H:9])[H:10])([H:7])[H:8]"
N       -1.04178478       1.08359828       0.58222877
C       -1.09414001      -0.10297637      -0.05752272
O       -2.11173543      -0.56540301      -0.52556041
C        0.21256237      -0.90261750      -0.10252947
C        1.66301451      -0.16123148       0.72932941
C        1.83107608       0.02177088      -0.48138986
H       -1.89379176       1.59996391       0.70581981
H       -0.15731996       1.50297321       0.80851301
H        0.09770077      -1.73549332       0.59488206
H        0.19300336      -1.42068144      -1.06571093
H        2.30141485       0.68009683      -1.18805968
11
Frame=12 idx=004756 GeodesicLength=0.5859362648025026 rxn_smarts="[N:1]([C:2](=[O:3])[C:4]([C:5]#[C:6][H:11])([H:9])[H:10])([H:7])[H:8]>>[N:1]([C:2](=[O:3])[C:4]([C:6](=[C:5])[H:11])([H:9])[H:10])([H:7])[H:8]"
N       -1.03236626       1.08727700       0.56556964
C       -1.09993550      -0.11192799      -0.04972718
O       -2.12880882      -0.58146870      -0.48428020
C        0.20629534      -0.91235850      -0.10904399
C        1.67894320      -0.19136017       0.72122908
C        1.82269866       0.03599449      -0.48422933
H       -1.87948887       1.61206486       0.68743001
H       -0.14375844       1.50671078       0.77398019
H        0.09010974      -1.74643252       0.58734909
H        0.17463977      -1.43340516      -1.07007063
H        2.31167118       0.73490591      -1.13820667
11
Frame=13 idx=004756 GeodesicLength=0.636055351671572 rxn_smarts="[N:1]([C:2](=[O:3])[C:4]([C:5]#[C:6][H:11])([H:9])[H:10])([H:7])[H:8]>>[N:1]([C:2](=[O:3])[C:4]([C:6](=[C:5])[H:11])([H:9])[H:10])([H:7])[H:8]"
N       -1.02413745       1.09083056       0.54869499
C       -1.10581563      -0.12033972      -0.04196795
O       -2.14520149      -0.59697095      -0.44193977
C        0.20017507      -0.92101655      -0.11623108
C        1.69523091      -0.21996403       0.71091517
C        1.81407504       0.05237496      -0.48712302
H       -1.86684777       1.62293147       0.66950550
H       -0.13196665       1.50994551       0.74118831
H        0.08344226      -1.75619021       0.57951333
H        0.15601114      -1.44531247      -1.07476434
H        2.32503457       0.78371143      -1.08779114
11
Frame=14 idx=004756 GeodesicLength=0.6861912998130122 rxn_smarts="[N:1]([C:2](=[O:3])[C:4]([C:5]#[C:6][H:11])([H:9])[H:10])([H:7])[H:8]>>[N:1]([C:2](=[O:3])[C:4]([C:6](=[C:5])[H:11])([H:9])[H:10])([H:7])[H:8]"
N       -1.01730527       1.09388081       0.53264719
C       -1.11176600      -0.12833072      -0.03398353
O       -2.16073985      -0.61225231      -0.39816286
C        0.19422001      -0.92855368      -0.12410941
C        1.71195694      -0.24716238       0.69843761
C        1.80496208       0.07118206      -0.48974712
H       -1.85576212       1.63347898       0.65008167
H       -0.12216069       1.51246386       0.71129079
H        0.07787834      -1.76492046       0.57106308
H        0.13708568      -1.45614092      -1.07993611
H        2.34163087       0.82635476      -1.03758131
11
Frame=15 idx=004756 GeodesicLength=0.7361692866949744 rxn_smarts="[N:1]([C:2](=[O:3])[C:4]([C:5]#[C:6][H:11])([H:9])[H:10])([H:7])[H:8]>>[N:1]([C:2](=[O:3])[C:4]([C:6](=[C:5])[H:11])([H:9])[H:10])([H:7])[H:8]"
N       -1.01131328       1.09664657       0.51679959
C       -1.11745715      -0.13591074      -0.02590633
O       -2.17502116      -0.62693648      -0.35327737
C        0.18849242      -0.93527605      -0.13254193
C        1.72904855      -0.27357890       0.68407512
C        1.79581753       0.09153110      -0.49161903
H       -1.84568406       1.64360791       0.62925986
H       -0.11372149       1.51440086       0.68369774
H        0.07308702      -1.77277045       0.56219045
H        0.11806144      -1.46626598      -1.08537576
H        2.35869019       0.86455216      -0.98730234
11
Frame=16 idx=004756 GeodesicLength=0.7860727017509016 rxn_smarts="[N:1]([C:2](=[O:3])[C:4]([C:5]#[C:6][H:11])([H:9])[H:10])([H:7])[H:8]>>[N:1]([C:2](=[O:3])[C:4]([C:6](=[C:5])[H:11])([H:9])[H:10])([H:7])[H:8]"
N       -1.00705260       1.09916072       0.50154484
C       -1.12326967      -0.14298688      -0.01788094
O       -2.18818418      -0.64135878      -0.30758654
C        0.18293757      -0.94066830      -0.14158853
C        1.74629914      -0.29829241       0.66800062
C        1.78630581       0.11444470      -0.49232766
H       -1.83791474       1.65261661       0.60832449
H       -0.10762004       1.51625354       0.65888604
H        0.06926118      -1.77943274       0.55271606
H        0.09908070      -1.47512696      -1.09117678
H        2.38015683       0.89539051      -0.93891159
