17
Frame=0 idx=006899 GeodesicLength=0.0 rxn_smarts="[C:1]([C@@:2]1([H:11])[O:3][C:4]([H:12])([H:13])[C@@:5]2([H:14])[C:6]([H:15])([H:16])[C@@:7]12[H:17])([H:8])([H:9])[H:10]>>[C:1]1([H:9])([H:10])[C@@:2]2([H:11])[O:3][C:4]([H:12])([H:13])[C@:5]([C:6]([H:8])([H:15])[H:16])([H:14])[C@@:7]12[H:17]"
C       -1.84225386      -0.67667622       0.19862932
C       -0.89916333      -0.11411258      -0.82086907
O       -0.68409904       1.29017726      -0.64388254
C        0.69876615       1.53207174      -0.43954648
C        1.29175142       0.18784170      -0.03492931
C        0.70396716      -0.32226816       1.27434931
C        0.40108110      -0.73872857      -0.74787071
H       -0.52114678      -0.52100732       1.16828666
H       -1.73818885      -1.75195177       0.35466372
H       -2.88784471      -0.38438100       0.07534724
H       -1.32195674      -0.30550234      -1.82498541
H        1.16940468       1.89862333      -1.36024412
H        0.80741248       2.29056144       0.33906319
H        2.36698278       0.09455416      -0.16670831
H        0.60067508       0.45501622       2.03460318
H        1.23734866      -1.18539886       1.65823297
H        0.61726388      -1.74881907      -1.06413972
17
Frame=1 idx=006899 GeodesicLength=0.10399639420254286 rxn_smarts="[C:1]([C@@:2]1([H:11])[O:3][C:4]([H:12])([H:13])[C@@:5]2([H:14])[C:6]([H:15])([H:16])[C@@:7]12[H:17])([H:8])([H:9])[H:10]>>[C:1]1([H:9])([H:10])[C@@:2]2([H:11])[O:3][C:4]([H:12])([H:13])[C@:5]([C:6]([H:8])([H:15])[H:16])([H:14])[C@@:7]12[H:17]"
C       -1.83569367      -0.68494790       0.18564828
C       -0.90620166      -0.09627086      -0.82873625
O       -0.68422012       1.30178721      -0.62889134
C        0.70259227       1.53329804      -0.43903142
C        1.28916303       0.18590047      -0.03549074
C        0.70828365      -0.32199690       1.27689754
C        0.38375863      -0.74296203      -0.73030300
H       -0.55005020      -0.49755650       1.19623810
H       -1.71982284      -1.74943815       0.39265107
H       -2.88936990      -0.44336860       0.02629197
H       -1.31899845      -0.27436709      -1.83847440
H        1.16796684       1.89429097      -1.36464569
H        0.82295202       2.29315133       0.33668393
H        2.36161768       0.08134698      -0.17934565
H        0.62701038       0.45596767       2.03893146
H        1.23892709      -1.18875292       1.65751234
H        0.60208526      -1.74608172      -1.06593619
17
Frame=2 idx=006899 GeodesicLength=0.2078295583038754 rxn_smarts="[C:1]([C@@:2]1([H:11])[O:3][C:4]([H:12])([H:13])[C@@:5]2([H:14])[C:6]([H:15])([H:16])[C@@:7]12[H:17])([H:8])([H:9])[H:10]>>[C:1]1([H:9])([H:10])[C@@:2]2([H:11])[O:3][C:4]([H:12])([H:13])[C@:5]([C:6]([H:8])([H:15])[H:16])([H:14])[C@@:7]12[H:17]"
C       -1.82839965      -0.69277536       0.17316690
C       -0.91294297      -0.07891266      -0.83662251
O       -0.68429987       1.31281137      -0.61491274
C        0.70604859       1.53441544      -0.43846775
C        1.28636790       0.18387950      -0.03614385
C        0.71231851      -0.32218935       1.27917725
C        0.36651468      -0.74691164      -0.71317397
H       -0.57947841      -0.47367293       1.22375566
H       -1.70343579      -1.74407258       0.43165682
H       -2.88671609      -0.50294981      -0.02207987
H       -1.31580532      -0.24426641      -1.85154939
H        1.16648201       1.89031244      -1.36858100
H        0.83735559       2.29534748       0.33457820
H        2.35583240       0.06826690      -0.19190138
H        0.65254054       0.45588971       2.04287592
H        1.24031704      -1.19254307       1.65638117
H        0.58730084      -1.74262904      -1.06815944
17
Frame=3 idx=006899 GeodesicLength=0.3115068732382137 rxn_smarts="[C:1]([C@@:2]1([H:11])[O:3][C:4]([H:12])([H:13])[C@@:5]2([H:14])[C:6]([H:15])([H:16])[C@@:7]12[H:17])([H:8])([H:9])[H:10]>>[C:1]1([H:9])([H:10])[C@@:2]2([H:11])[O:3][C:4]([H:12])([H:13])[C@:5]([C:6]([H:8])([H:15])[H:16])([H:14])[C@@:7]12[H:17]"
C       -1.82042797      -0.70015709       0.16127969
C       -0.91940594      -0.06206483      -0.84446654
O       -0.68435242       1.32326703      -0.60190483
C        0.70916226       1.53543455      -0.43786165
C        1.28340645       0.18179811      -0.03689888
C        0.71614825      -0.32283537       1.28118104
C        0.34940585      -0.75058528      -0.69651196
H       -0.60945095      -0.44951427       1.25076987
H       -1.68915354      -1.73587973       0.47132149
H       -2.87982648      -0.56301885      -0.06958981
H       -1.31247633      -0.21520904      -1.86415502
H        1.16496177       1.88668095      -1.37208640
H        0.85068293       2.29718563       0.33274023
H        2.34967750       0.05535824      -0.20440400
H        0.67715174       0.45482639       2.04643341
H        1.24159897      -1.19675064       1.65483349
H        0.57289791      -1.73853582      -1.07068012
17
Frame=4 idx=006899 GeodesicLength=0.4151101223319776 rxn_smarts="[C:1]([C@@:2]1([H:11])[O:3][C:4]([H:12])([H:13])[C@@:5]2([H:14])[C:6]([H:15])([H:16])[C@@:7]12[H:17])([H:8])([H:9])[H:10]>>[C:1]1([H:9])([H:10])[C@@:2]2([H:11])[O:3][C:4]([H:12])([H:13])[C@:5]([C:6]([H:8])([H:15])[H:16])([H:14])[C@@:7]12[H:17]"
C       -1.81186180      -0.70705944       0.15006823
C       -0.92561112      -0.04573453      -0.85220976
O       -0.68438284       1.33318555      -0.58981011
C        0.71197092       1.53636578      -0.43721974
C        1.28032231       0.17967156      -0.03776805
C        0.71986524      -0.32392251       1.28290144
C        0.33247583      -0.75399413      -0.68032441
H       -0.64003984      -0.42515678       1.27724772
H       -1.67706949      -1.72490401       0.51126797
H       -2.86867398      -0.62358834      -0.11606623
H       -1.30909685      -0.18717412      -1.87624519
H        1.16341948       1.88338584      -1.37520304
H        0.86302176       2.29869840       0.33116142
H        2.34320195       0.04264826      -0.21689255
H        0.70077155       0.45283380       2.04961121
H        1.24283939      -1.20137384       1.65285903
H        0.55884747      -1.73388150      -1.07337794
17
Frame=5 idx=006899 GeodesicLength=0.5186844532543916 rxn_smarts="[C:1]([C@@:2]1([H:11])[O:3][C:4]([H:12])([H:13])[C@@:5]2([H:14])[C:6]([H:15])([H:16])[C@@:7]12[H:17])([H:8])([H:9])[H:10]>>[C:1]1([H:9])([H:10])[C@@:2]2([H:11])[O:3][C:4]([H:12])([H:13])[C@:5]([C:6]([H:8])([H:15])[H:16])([H:14])[C@@:7]12[H:17]"
C       -1.80282865      -0.71353348       0.13946516
C       -0.93155751      -0.02996323      -0.85982331
O       -0.68441385       1.34255134      -0.57857002
C        0.71447283       1.53720206      -0.43653708
C        1.27715064       0.17751342      -0.03875655
C        0.72358198      -0.32544236       1.28433734
C        0.31576528      -0.75717770      -0.66458076
H       -0.67130212      -0.40057672       1.30322101
H       -1.66714445      -1.71120401       0.55114767
H       -2.85342695      -0.68444211      -0.16130232
H       -1.30567764      -0.16015888      -1.88782143
H        1.16181589       1.88041179      -1.37795126
H        0.87439553       2.29988798       0.32984639
H        2.33645061       0.03018541      -0.22939849
H        0.72342908       0.44992068       2.05242477
H        1.24412718      -1.20641754       1.65044128
H        0.54516215      -1.72875663      -1.07614239
17
Frame=6 idx=006899 GeodesicLength=0.6222484804391862 rxn_smarts="[C:1]([C@@:2]1([H:11])[O:3][C:4]([H:12])([H:13])[C@@:5]2([H:14])[C:6]([H:15])([H:16])[C@@:7]12[H:17])([H:8])([H:9])[H:10]>>[C:1]1([H:9])([H:10])[C@@:2]2([H:11])[O:3][C:4]([H:12])([H:13])[C@:5]([C:6]([H:8])([H:15])[H:16])([H:14])[C@@:7]12[H:17]"
C       -1.79338896      -0.71948549       0.12962980
C       -0.93729227      -0.01472928      -0.86724282
O       -0.68443666       1.35141910      -0.56813412
C        0.71671739       1.53796016      -0.43582853
C        1.27392924       0.17533167      -0.03987178
C        0.72735207      -0.32740127       1.28549141
C        0.29930584      -0.76013647      -0.64929038
H       -0.70336189      -0.37579026       1.32863892
H       -1.65944221      -1.69493554       0.59056147
H       -2.83392523      -0.74564897      -0.20515203
H       -1.30236136      -0.13413816      -1.89881668
H        1.16018561       1.87774438      -1.38038186
H        0.88490913       2.30080342       0.32876862
H        2.32946645       0.01796353      -0.24195812
H        0.74506269       0.44617074       2.05489930
H        1.24548189      -1.21190601       1.64759061
H        0.53179828      -1.72322154      -1.07890380
17
Frame=7 idx=006899 GeodesicLength=0.7258427350752565 rxn_smarts="[C:1]([C@@:2]1([H:11])[O:3][C:4]([H:12])([H:13])[C@@:5]2([H:14])[C:6]([H:15])([H:16])[C@@:7]12[H:17])([H:8])([H:9])[H:10]>>[C:1]1([H:9])([H:10])[C@@:2]2([H:11])[O:3][C:4]([H:12])([H:13])[C@:5]([C:6]([H:8])([H:15])[H:16])([H:14])[C@@:7]12[H:17]"
C       -1.78362931      -0.72486842       0.12059747
C       -0.94283521      -0.00003363      -0.87444620
O       -0.68445480       1.35981554      -0.55846563
C        0.71873314       1.53864306      -0.43509753
C        1.27068649       0.17313202      -0.04111696
C        0.73124047      -0.32980567       1.28635176
C        0.28312422      -0.76288726      -0.63444162
H       -0.73636080      -0.35073160       1.35349998
H       -1.65389067      -1.67628818       0.62917676
H       -2.81017960      -0.80712010      -0.24738913
H       -1.29921304      -0.10909882      -1.90922413
H        1.15854128       1.87536804      -1.38252228
H        0.89462726       2.30146057       0.32792821
H        2.32227935       0.00599178      -0.25459711
H        0.76565876       0.44162435       2.05705680
H        1.24692916      -1.21786224       1.64429158
H        0.51874329      -1.71733945      -1.08160194
17
Frame=8 idx=006899 GeodesicLength=0.829540083451255 rxn_smarts="[C:1]([C@@:2]1([H:11])[O:3][C:4]([H:12])([H:13])[C@@:5]2([H:14])[C:6]([H:15])([H:16])[C@@:7]12[H:17])([H:8])([H:9])[H:10]>>[C:1]1([H:9])([H:10])[C@@:2]2([H:11])[O:3][C:4]([H:12])([H:13])[C@:5]([C:6]([H:8])([H:15])[H:16])([H:14])[C@@:7]12[H:17]"
C       -1.77362822      -0.72965614       0.11237702
C       -0.94821098       0.01412344      -0.88142996
O       -0.68446898       1.36777649      -0.54953740
C        0.72054692       1.53925447      -0.43434500
C        1.26744984       0.17091855      -0.04249454
C        0.73529923      -0.33267548       1.28690898
C        0.26724280      -0.76544952      -0.62001859
H       -0.77047864      -0.32528841       1.37778852
H       -1.65040784      -1.65545256       0.66666957
H       -2.78214348      -0.86876877      -0.28771245
H       -1.29630782      -0.08502543      -1.91905461
H        1.15690726       1.87326487      -1.38438816
H        0.90360738       2.30188349       0.32732344
H        2.31492309      -0.00572065      -0.26733545
H        0.78520337       0.43631057       2.05891946
H        1.24848024      -1.22432734       1.64053322
H        0.50598585      -1.71116756      -1.08420405
17
Frame=9 idx=006899 GeodesicLength=0.933463160823597 rxn_smarts="[C:1]([C@@:2]1([H:11])[O:3][C:4]([H:12])([H:13])[C@@:5]2([H:14])[C:6]([H:15])([H:16])[C@@:7]12[H:17])([H:8])([H:9])[H:10]>>[C:1]1([H:9])([H:10])[C@@:2]2([H:11])[O:3][C:4]([H:12])([H:13])[C@:5]([C:6]([H:8])([H:15])[H:16])([H:14])[C@@:7]12[H:17]"
C       -1.76352402      -0.73392364       0.10478960
C       -0.95337273       0.02771291      -0.88822543
O       -0.68446534       1.37523858      -0.54134574
C        0.72214185       1.53977208      -0.43356550
C        1.26424769       0.16869736      -0.04399574
C        0.73961412      -0.33602310       1.28717327
C        0.25171878      -0.76786021      -0.60600050
H       -0.80598455      -0.29929417       1.40138034
H       -1.64878299      -1.63265692       0.70274755
H       -2.75000755      -0.93018086      -0.32553829
H       -1.29356777      -0.06192660      -1.92835460
H        1.15523780       1.87145053      -1.38597764
H        0.91181256       2.30202021       0.32695949
H        2.30743948      -0.01714179      -0.28017117
H        0.80369319       0.43017979       2.06051104
H        1.25021236      -1.23131284       1.63633010
H        0.49358713      -1.70475133      -1.08671677
17
Frame=10 idx=006899 GeodesicLength=1.0374962429864245 rxn_smarts="[C:1]([C@@:2]1([H:11])[O:3][C:4]([H:12])([H:13])[C@@:5]2([H:14])[C:6]([H:15])([H:16])[C@@:7]12[H:17])([H:8])([H:9])[H:10]>>[C:1]1([H:9])([H:10])[C@@:2]2([H:11])[O:3][C:4]([H:12])([H:13])[C@:5]([C:6]([H:8])([H:15])[H:16])([H:14])[C@@:7]12[H:17]"
C       -1.75325028      -0.73761604       0.09797338
C       -0.95836342       0.04072030      -0.89484201
O       -0.68447119       1.38227048      -0.53387965
C        0.72355993       1.54021853      -0.43276478
C        1.26110614       0.16647935      -0.04562353
C        0.74419200      -0.33987568       1.28710752
C        0.23658072      -0.77013080      -0.59239531
H       -0.84298180      -0.27280314       1.42432552
H       -1.64893555      -1.60823053       0.73716025
H       -2.71379320      -0.99109402      -0.36073380
H       -1.29116394      -0.03985077      -1.93714105
H        1.15360574       1.86989588      -1.38731499
H        0.91931339       2.30194599       0.32684348
H        2.29985576      -0.02825124      -0.29311546
H        0.82108708       0.42331858       2.06185328
H        1.25210093      -1.23885290       1.63164817
H        0.48155770      -1.69814401      -1.08910101
17
Frame=11 idx=006899 GeodesicLength=1.1416593324566946 rxn_smarts="[C:1]([C@@:2]1([H:11])[O:3][C:4]([H:12])([H:13])[C@@:5]2([H:14])[C:6]([H:15])([H:16])[C@@:7]12[H:17])([H:8])([H:9])[H:10]>>[C:1]1([H:9])([H:10])[C@@:2]2([H:11])[O:3][C:4]([H:12])([H:13])[C@:5]([C:6]([H:8])([H:15])[H:16])([H:14])[C@@:7]12[H:17]"
C       -1.74282226      -0.74078349       0.09187817
C       -0.96316166       0.05310743      -0.90132201
O       -0.68448743       1.38885549      -0.52713910
C        0.72480421       1.54058833      -0.43194426
C        1.25805951       0.16427708      -0.04737178
C        0.74907969      -0.34424921       1.28670162
C        0.22189250      -0.77229265      -0.57919951
H       -0.88171280      -0.24580450       1.44654608
H       -1.65066387      -1.58252792       0.76966859
H       -2.67373099      -1.05098558      -0.39285417
H       -1.28910651      -0.01883800      -1.94546347
H        1.15201056       1.86859812      -1.38840620
H        0.92610610       2.30166277       0.32697562
H        2.29221899      -0.03900787      -0.30616240
H        0.83735378       0.41574604       2.06296931
H        1.25419434      -1.24695298       1.62648781
H        0.46996586      -1.69139305      -1.09136429
17
Frame=12 idx=006899 GeodesicLength=1.2459300932993902 rxn_smarts="[C:1]([C@@:2]1([H:11])[O:3][C:4]([H:12])([H:13])[C@@:5]2([H:14])[C:6]([H:15])([H:16])[C@@:7]12[H:17])([H:8])([H:9])[H:10]>>[C:1]1([H:9])([H:10])[C@@:2]2([H:11])[O:3][C:4]([H:12])([H:13])[C@:5]([C:6]([H:8])([H:15])[H:16])([H:14])[C@@:7]12[H:17]"
C       -1.73223684      -0.74348463       0.08645025
C       -0.96774035       0.06483387      -0.90771134
O       -0.68451360       1.39497106      -0.52112451
C        0.72587874       1.54088267      -0.43109816
C        1.25515328       0.16210277      -0.04923210
C        0.75433837      -0.34916876       1.28595208
C        0.20772516      -0.77438044      -0.56641169
H       -0.92242570      -0.21827681       1.46791401
H       -1.65373495      -1.55588858       0.80008588
H       -2.63021452      -1.10933816      -0.42147422
H       -1.28738176       0.00106586      -1.95338203
H        1.15045333       1.86756916      -1.38924246
H        0.93217563       2.30117953       0.32736321
H        2.28459567      -0.04937004      -0.31930592
H        0.85246865       0.40747471       2.06388344
H        1.25657586      -1.25562240       1.62085546
H        0.45888303      -1.68454981      -1.09352189
17
Frame=13 idx=006899 GeodesicLength=1.3503544342089056 rxn_smarts="[C:1]([C@@:2]1([H:11])[O:3][C:4]([H:12])([H:13])[C@@:5]2([H:14])[C:6]([H:15])([H:16])[C@@:7]12[H:17])([H:8])([H:9])[H:10]>>[C:1]1([H:9])([H:10])[C@@:2]2([H:11])[O:3][C:4]([H:12])([H:13])[C@:5]([C:6]([H:8])([H:15])[H:16])([H:14])[C@@:7]12[H:17]"
C       -1.72147476      -0.74584606       0.08157514
C       -0.97202220       0.07584115      -0.91404170
O       -0.68455326       1.40053718      -0.51580704
C        0.72676806       1.54108715      -0.43020814
C        1.25243648       0.15997434      -0.05120562
C        0.76008602      -0.35464499       1.28485364
C        0.19416525      -0.77643485      -0.55400754
H       -0.96543141      -0.19013904       1.48830378
H       -1.65782844      -1.52860232       0.82837214
H       -2.58392740      -1.16555582      -0.44632387
H       -1.28589844       0.01979855      -1.96094780
H        1.14889802       1.86683576      -1.38981946
H        0.93748027       2.30046874       0.32804363
H        2.27703837      -0.05927744      -0.33257258
H        0.86645216       0.39846272       2.06461740
H        1.25939088      -1.26484982       1.61474019
H        0.44842041      -1.67765524      -1.09557216
17
Frame=14 idx=006899 GeodesicLength=1.4547726778548327 rxn_smarts="[C:1]([C@@:2]1([H:11])[O:3][C:4]([H:12])([H:13])[C@@:5]2([H:14])[C:6]([H:15])([H:16])[C@@:7]12[H:17])([H:8])([H:9])[H:10]>>[C:1]1([H:9])([H:10])[C@@:2]2([H:11])[O:3][C:4]([H:12])([H:13])[C@:5]([C:6]([H:8])([H:15])[H:16])([H:14])[C@@:7]12[H:17]"
C       -1.71046930      -0.74785772       0.07731298
C       -0.97599753       0.08610688      -0.92035006
O       -0.68459750       1.40557420      -0.51117866
C        0.72750293       1.54121709      -0.42927728
C        1.24996000       0.15790643      -0.05328723
C        0.76636110      -0.36068951       1.28339828
C        0.18127391      -0.77847649      -0.54198652
H       -1.01097218      -0.16154047       1.50757348
H       -1.66270998      -1.50106801       0.85443235
H       -2.53533560      -1.21919488      -0.46715623
H       -1.28466874       0.03733641      -1.96821139
H        1.14737973       1.86639748      -1.39013758
H        0.94205392       2.29957475       0.32900356
H        2.26961337      -0.06869914      -0.34596538
H        0.87928225       0.38878987       2.06519161
H        1.26271175      -1.27462170       1.60814786
H        0.43861187      -1.67075518      -1.09750979
17
Frame=15 idx=006899 GeodesicLength=1.5591258245026376 rxn_smarts="[C:1]([C@@:2]1([H:11])[O:3][C:4]([H:12])([H:13])[C@@:5]2([H:14])[C:6]([H:15])([H:16])[C@@:7]12[H:17])([H:8])([H:9])[H:10]>>[C:1]1([H:9])([H:10])[C@@:2]2([H:11])[O:3][C:4]([H:12])([H:13])[C@:5]([C:6]([H:8])([H:15])[H:16])([H:14])[C@@:7]12[H:17]"
C       -1.69914169      -0.74961938       0.07364285
C       -0.97961309       0.09557551      -0.92666157
O       -0.68465581       1.41004390      -0.50719523
C        0.72808702       1.54127454      -0.42828732
C        1.24778291       0.15591559      -0.05547981
C        0.77327379      -0.36730916       1.28157661
C        0.16912948      -0.78054582      -0.53032373
H       -1.05935632      -0.13249088       1.52559349
H       -1.66804820      -1.47358143       0.87832994
H       -2.48521439      -1.26974768      -0.48391457
H       -1.28362313       0.05364257      -1.97522008
H        1.14588111       1.86627035      -1.39018949
H        0.94589153       2.29850805       0.33026754
H        2.26238564      -0.07758157      -0.35951548
H        0.89099590       0.37847581       2.06562645
H        1.26669062      -1.28491996       1.60106734
H        0.42953463      -1.66391044      -1.09931692
17
Frame=16 idx=006899 GeodesicLength=1.6633243856813564 rxn_smarts="[C:1]([C@@:2]1([H:11])[O:3][C:4]([H:12])([H:13])[C@@:5]2([H:14])[C:6]([H:15])([H:16])[C@@:7]12[H:17])([H:8])([H:9])[H:10]>>[C:1]1([H:9])([H:10])[C@@:2]2([H:11])[O:3][C:4]([H:12])([H:13])[C@:5]([C:6]([H:8])([H:15])[H:16])([H:14])[C@@:7]12[H:17]"
C       -1.68742348      -0.75119626       0.07056348
C       -0.98282814       0.10421835      -0.93298617
O       -0.68473022       1.41392657      -0.50379560
C        0.72853419       1.54126355      -0.42721526
C        1.24596112       0.15401277      -0.05779112
C        0.78093454      -0.37450825       1.27937853
C        0.15779049      -0.78267493      -0.51898917
H       -1.11090944      -0.10297665       1.54221480
H       -1.67353642      -1.44636118       0.90018669
H       -2.43428242      -1.31691746      -0.49663445
H       -1.28269809       0.06871199      -1.98201603
H        1.14439711       1.86647136      -1.38996630
H        0.94901319       2.29728233       0.33187101
H        2.25540989      -0.08589100      -0.37326970
H        0.90165895       0.36754171       2.06594369
H        1.27147752      -1.29572835       1.59347875
H        0.42123122      -1.65717454      -1.10097315
