14
Frame=0 idx=000574 GeodesicLength=0.0 rxn_smarts="[C:1]1([H:7])([H:8])[C@@:2]2([H:9])[C:3]([H:10])([H:11])[C:4]([H:12])([H:13])[O:5][C@@:6]12[H:14]>>[C:1]1([H:7])([H:8])[C:2]([H:9])=[C:6]1[H:14].[C:3]1([H:10])([H:11])[C:4]([H:12])([H:13])[O:5]1"
C        1.88352732       0.06497694      -0.09847010
C        0.92067099       0.10935257       1.05930664
C       -1.31861988       1.09717710      -0.14103128
C       -1.73394552      -0.27750396      -0.30692318
O       -0.43312881      -0.29512910      -0.95099096
C        0.64634578      -0.75738602      -0.05462721
H        1.90442964       0.90177785      -0.79188871
H        2.83172092      -0.46584741      -0.04008596
H        1.20605021      -0.31253098       2.01770873
H       -1.40855932       1.75259264      -0.99578213
H       -0.85383449       1.42760924       0.77900375
H       -2.51753840      -0.51714505      -1.01869826
H       -1.75505774      -0.88544862       0.59353930
H        0.62793926      -1.84249518      -0.05106057
14
Frame=1 idx=000574 GeodesicLength=0.08093460851244591 rxn_smarts="[C:1]1([H:7])([H:8])[C@@:2]2([H:9])[C:3]([H:10])([H:11])[C:4]([H:12])([H:13])[O:5][C@@:6]12[H:14]>>[C:1]1([H:7])([H:8])[C:2]([H:9])=[C:6]1[H:14].[C:3]1([H:10])([H:11])[C:4]([H:12])([H:13])[O:5]1"
C        1.88579828       0.06843837      -0.09887043
C        0.92040368       0.09943365       1.05675325
C       -1.29732249       1.09075559      -0.14914579
C       -1.74077639      -0.27832111      -0.30517871
O       -0.45039091      -0.31827240      -0.96362604
C        0.65703328      -0.76740366      -0.05525660
H        1.90468512       0.91593416      -0.77910340
H        2.84037014      -0.45045266      -0.04029238
H        1.20595203      -0.30689951       2.02138938
H       -1.39279206       1.75132565      -0.99974108
H       -0.86415142       1.43356519       0.78123000
H       -2.53769449      -0.50215489      -1.00750157
H       -1.76612898      -0.88402517       0.59682250
H        0.63501421      -1.85192321      -0.05747915
14
Frame=2 idx=000574 GeodesicLength=0.1619098221965538 rxn_smarts="[C:1]1([H:7])([H:8])[C@@:2]2([H:9])[C:3]([H:10])([H:11])[C:4]([H:12])([H:13])[O:5][C@@:6]12[H:14]>>[C:1]1([H:7])([H:8])[C:2]([H:9])=[C:6]1[H:14].[C:3]1([H:10])([H:11])[C:4]([H:12])([H:13])[O:5]1"
C        1.88813178       0.07199234      -0.09922401
C        0.92027647       0.08929571       1.05416227
C       -1.27581383       1.08368839      -0.15706748
C       -1.74761638      -0.27910815      -0.30321961
O       -0.46825983      -0.34155599      -0.97599008
C        0.66806610      -0.77743242      -0.05606631
H        1.90504328       0.93017461      -0.76584743
H        2.84895786      -0.43484046      -0.04033246
H        1.20542163      -0.30133891       2.02497064
H       -1.37694716       1.74948062      -1.00340242
H       -0.87461634       1.43996489       0.78213403
H       -2.55757673      -0.48649163      -0.99586906
H       -1.77721599      -0.88252850       0.60032443
H        0.64214916      -1.86130050      -0.06457250
14
Frame=3 idx=000574 GeodesicLength=0.24292308725090117 rxn_smarts="[C:1]1([H:7])([H:8])[C@@:2]2([H:9])[C:3]([H:10])([H:11])[C:4]([H:12])([H:13])[O:5][C@@:6]12[H:14]>>[C:1]1([H:7])([H:8])[C:2]([H:9])=[C:6]1[H:14].[C:3]1([H:10])([H:11])[C:4]([H:12])([H:13])[O:5]1"
C        1.89054472       0.07564113      -0.09951227
C        0.92029938       0.07891597       1.05153822
C       -1.25415613       1.07597657      -0.16480242
C       -1.75447108      -0.27986789      -0.30101763
O       -0.48676730      -0.36492828      -0.98806608
C        0.67946093      -0.78746112      -0.05707398
H        1.90553293       0.94452264      -0.75205132
H        2.85749090      -0.41902490      -0.04018848
H        1.20443661      -0.29589661       2.02845165
H       -1.36107546       1.74702875      -1.00679754
H       -0.88516094       1.44683664       0.78160863
H       -2.57715780      -0.47019661      -0.98376260
H       -1.78830497      -0.88094230       0.60408774
H        0.64932822      -1.87060399      -0.07241393
14
Frame=4 idx=000574 GeodesicLength=0.3239892164897804 rxn_smarts="[C:1]1([H:7])([H:8])[C@@:2]2([H:9])[C:3]([H:10])([H:11])[C:4]([H:12])([H:13])[O:5][C@@:6]12[H:14]>>[C:1]1([H:7])([H:8])[C:2]([H:9])=[C:6]1[H:14].[C:3]1([H:10])([H:11])[C:4]([H:12])([H:13])[O:5]1"
C        1.89305952       0.07938951      -0.09972388
C        0.92047635       0.06826687       1.04889025
C       -1.23241929       1.06763623      -0.17236290
C       -1.76135254      -0.28060135      -0.29853931
O       -0.50594019      -0.38834801      -0.99984413
C        0.69124525      -0.79748969      -0.05829840
H        1.90618113       0.95901393      -0.73765417
H        2.86599362      -0.40301745      -0.03984835
H        1.20296452      -0.29063046       2.03184519
H       -1.34521821       1.74395902      -1.00998104
H       -0.89573543       1.45421184       0.77955977
H       -2.59641985      -0.45330530      -0.97113892
H       -1.79938987      -0.87925543       0.60817022
H        0.65655498      -1.87982970      -0.08107433
14
Frame=5 idx=000574 GeodesicLength=0.4050557839540711 rxn_smarts="[C:1]1([H:7])([H:8])[C@@:2]2([H:9])[C:3]([H:10])([H:11])[C:4]([H:12])([H:13])[O:5][C@@:6]12[H:14]>>[C:1]1([H:7])([H:8])[C:2]([H:9])=[C:6]1[H:14].[C:3]1([H:10])([H:11])[C:4]([H:12])([H:13])[O:5]1"
C        1.89565937       0.08324539      -0.09982274
C        0.92082981       0.05733301       1.04619584
C       -1.21061993       1.05862770      -0.17975379
C       -1.76825459      -0.28130402      -0.29577201
O       -0.52583749      -0.41176496      -1.01129092
C        0.70340810      -0.80747952      -0.05975026
H        1.90696699       0.97363153      -0.72254495
H        2.87442308      -0.38679867      -0.03928147
H        1.20102619      -0.28553283       2.03509776
H       -1.32934023       1.74016266      -1.01296430
H       -0.90624725       1.46202890       0.77590753
H       -2.61533866      -0.43585042      -0.95796184
H       -1.81043916      -0.87741803       0.61256652
H        0.66376375      -1.88888073      -0.09062537
14
Frame=6 idx=000574 GeodesicLength=0.48615842700587236 rxn_smarts="[C:1]1([H:7])([H:8])[C@@:2]2([H:9])[C:3]([H:10])([H:11])[C:4]([H:12])([H:13])[O:5][C@@:6]12[H:14]>>[C:1]1([H:7])([H:8])[C:2]([H:9])=[C:6]1[H:14].[C:3]1([H:10])([H:11])[C:4]([H:12])([H:13])[O:5]1"
C        1.89835939       0.08724220      -0.09979709
C        0.92134530       0.04607046       1.04347807
C       -1.18883617       1.04898003      -0.18700173
C       -1.77520483      -0.28197948      -0.29265573
O       -0.54649871      -0.43517299      -1.02239679
C        0.71599009      -0.81744117      -0.06146042
H        1.90789685       0.98844829      -0.70665996
H        2.88281545      -0.37033302      -0.03846324
H        1.19855323      -0.28073619       2.03823361
H       -1.31341005       1.73562430      -1.01587730
H       -0.91662076       1.47034819       0.77053827
H       -2.63393566      -0.41785100      -0.94414098
H       -1.82145053      -0.87542890       0.61737359
H        0.67099640      -1.89777072      -0.10117029
14
Frame=7 idx=000574 GeodesicLength=0.5672861006991582 rxn_smarts="[C:1]1([H:7])([H:8])[C@@:2]2([H:9])[C:3]([H:10])([H:11])[C:4]([H:12])([H:13])[O:5][C@@:6]12[H:14]>>[C:1]1([H:7])([H:8])[C:2]([H:9])=[C:6]1[H:14].[C:3]1([H:10])([H:11])[C:4]([H:12])([H:13])[O:5]1"
C        1.90117515       0.09138242      -0.09963216
C        0.92203766       0.03448018       1.04072938
C       -1.16711866       1.03870030      -0.19410144
C       -1.78220611      -0.28262435      -0.28917348
O       -0.56795502      -0.45851520      -1.03315135
C        0.72900668      -0.82735738      -0.06343749
H        1.90898319       1.00345488      -0.68994781
H        2.89117142      -0.35364547      -0.03738378
H        1.19553475      -0.27623255       2.04124750
H       -1.29744175       1.73030909      -1.01875672
H       -0.92681814       1.47912787       0.76341606
H       -2.65217614      -0.39934761      -0.92966305
H       -1.83240811      -0.87327849       0.62261134
H        0.67821509      -1.90645369      -0.11275698
14
Frame=8 idx=000574 GeodesicLength=0.6484401196040953 rxn_smarts="[C:1]1([H:7])([H:8])[C@@:2]2([H:9])[C:3]([H:10])([H:11])[C:4]([H:12])([H:13])[O:5][C@@:6]12[H:14]>>[C:1]1([H:7])([H:8])[C:2]([H:9])=[C:6]1[H:14].[C:3]1([H:10])([H:11])[C:4]([H:12])([H:13])[O:5]1"
C        1.90410918       0.09568774      -0.09931048
C        0.92291084       0.02254270       1.03795001
C       -1.14551243       1.02779592      -0.20106251
C       -1.78926948      -0.28323575      -0.28529271
O       -0.59025011      -0.48176464      -1.04354125
C        0.74247868      -0.83721854      -0.06569736
H        1.91020932       1.01866924      -0.67234235
H        2.89949292      -0.33671587      -0.03602535
H        1.19194702      -0.27206088       2.04413584
H       -1.28137726       1.72416405      -1.02169417
H       -0.93678744       1.48833907       0.75449292
H       -2.67005711      -0.38036094      -0.91447629
H       -1.84329968      -0.87095330       0.62832417
H        0.68540556      -1.91488882      -0.12546048
14
Frame=9 idx=000574 GeodesicLength=0.7296117078205007 rxn_smarts="[C:1]1([H:7])([H:8])[C@@:2]2([H:9])[C:3]([H:10])([H:11])[C:4]([H:12])([H:13])[O:5][C@@:6]12[H:14]>>[C:1]1([H:7])([H:8])[C:2]([H:9])=[C:6]1[H:14].[C:3]1([H:10])([H:11])[C:4]([H:12])([H:13])[O:5]1"
C        1.90715662       0.10018365      -0.09881228
C        0.92396974       0.01024081       1.03513201
C       -1.12405464       1.01626348      -0.20789082
C       -1.79640676      -0.28380644      -0.28098049
O       -0.61343540      -0.50489866      -1.05354142
C        0.75642637      -0.84700812      -0.06825537
H        1.91154556       1.03409742      -0.65377469
H        2.90777540      -0.31951109      -0.03436433
H        1.18776391      -0.26825486       2.04688076
H       -1.26513721       1.71711105      -1.02478245
H       -0.94646766       1.49792718       0.74372508
H       -2.68757485      -0.36089598      -0.89852900
H       -1.85411112      -0.86843322       0.63454746
H        0.69255004      -1.92301523      -0.13935448
14
Frame=10 idx=000574 GeodesicLength=0.810805197049127 rxn_smarts="[C:1]1([H:7])([H:8])[C@@:2]2([H:9])[C:3]([H:10])([H:11])[C:4]([H:12])([H:13])[O:5][C@@:6]12[H:14]>>[C:1]1([H:7])([H:8])[C:2]([H:9])=[C:6]1[H:14].[C:3]1([H:10])([H:11])[C:4]([H:12])([H:13])[O:5]1"
C        1.91030775       0.10490452      -0.09811301
C        0.92521359      -0.00245539       1.03227821
C       -1.10277915       1.00410635      -0.21460100
C       -1.80363072      -0.28432915      -0.27619347
O       -0.63756852      -0.52790395      -1.06312931
C        0.77087321      -0.85671633      -0.07113123
H        1.91294991       1.04976685      -0.63415721
H        2.91601297      -0.30198481      -0.03237650
H        1.18295344      -0.26487779       2.04947605
H       -1.24863963       1.70907043      -1.02815092
H       -0.95576895       1.50785622       0.73104953
H       -2.70473212      -0.34096430      -0.88175383
H       -1.86482766      -0.86569527       0.64133784
H        0.69963589      -1.93077739      -0.15453516
14
Frame=11 idx=000574 GeodesicLength=0.8920221704427601 rxn_smarts="[C:1]1([H:7])([H:8])[C@@:2]2([H:9])[C:3]([H:10])([H:11])[C:4]([H:12])([H:13])[O:5][C@@:6]12[H:14]>>[C:1]1([H:7])([H:8])[C:2]([H:9])=[C:6]1[H:14].[C:3]1([H:10])([H:11])[C:4]([H:12])([H:13])[O:5]1"
C        1.91355075       0.10988574      -0.09718716
C        0.92664205      -0.01557286       1.02938634
C       -1.08171481       0.99132298      -0.22120563
C       -1.81095329      -0.28479334      -0.27088896
O       -0.66270864      -0.55077032      -1.07227527
C        0.78584606      -0.86633045      -0.07434366
H        1.91437225       1.06569120      -0.61341039
H        2.92419803      -0.28408638      -0.03003393
H        1.17747889      -0.26198618       2.05191017
H       -1.23179261       1.69995064      -1.03193162
H       -0.96460767       1.51807406       0.71641616
H       -2.72152775      -0.32056390      -0.86408526
H       -1.87543457      -0.86271464       0.64874769
H        0.70665130      -1.93810654      -0.17109849
14
Frame=12 idx=000574 GeodesicLength=0.9732668949028971 rxn_smarts="[C:1]1([H:7])([H:8])[C@@:2]2([H:9])[C:3]([H:10])([H:11])[C:4]([H:12])([H:13])[O:5][C@@:6]12[H:14]>>[C:1]1([H:7])([H:8])[C:2]([H:9])=[C:6]1[H:14].[C:3]1([H:10])([H:11])[C:4]([H:12])([H:13])[O:5]1"
C        1.91687155       0.11516487      -0.09600684
C        0.92825535      -0.02913922       1.02645311
C       -1.06088436       0.97790863      -0.22771924
C       -1.81838504      -0.28518637      -0.26502272
O       -0.68891825      -0.57349172      -1.08094464
C        0.80137516      -0.87583728      -0.07791148
H        1.91575505       1.08187918      -0.59145511
H        2.93232085      -0.26575952      -0.02730396
H        1.17129923      -0.25963950       2.05417059
H       -1.21450515       1.68965208      -1.03626464
H       -0.97289366       1.52852157       0.69977566
H       -2.73795781      -0.29968539      -0.84545656
H       -1.88591593      -0.85946399       0.65683161
H        0.71358302      -1.94492333      -0.18914578
14
Frame=13 idx=000574 GeodesicLength=1.0545466773518173 rxn_smarts="[C:1]1([H:7])([H:8])[C@@:2]2([H:9])[C:3]([H:10])([H:11])[C:4]([H:12])([H:13])[O:5][C@@:6]12[H:14]>>[C:1]1([H:7])([H:8])[C:2]([H:9])=[C:6]1[H:14].[C:3]1([H:10])([H:11])[C:4]([H:12])([H:13])[O:5]1"
C        1.92025317       0.12078178      -0.09453984
C        0.93005330      -0.04318572       1.02347486
C       -1.04030362       0.96385450      -0.23416229
C       -1.82593424      -0.28549281      -0.25854759
O       -0.71626393      -0.59606759      -1.08909697
C        0.81749495      -0.88522359      -0.08185436
H        1.91703216       1.09833629      -0.56820674
H        2.94036905      -0.24694113      -0.02414782
H        1.16436783      -0.25790506       2.05624347
H       -1.19669321       1.67806522      -1.04129921
H       -0.98052428       1.53913603       0.68107151
H       -2.75401562      -0.27831276      -0.82579549
H       -1.89625322      -0.85590964       0.66564908
H        0.72041765      -1.95113551      -0.20878862
14
Frame=14 idx=000574 GeodesicLength=1.135871040094485 rxn_smarts="[C:1]1([H:7])([H:8])[C@@:2]2([H:9])[C:3]([H:10])([H:11])[C:4]([H:12])([H:13])[O:5][C@@:6]12[H:14]>>[C:1]1([H:7])([H:8])[C:2]([H:9])=[C:6]1[H:14].[C:3]1([H:10])([H:11])[C:4]([H:12])([H:13])[O:5]1"
C        1.92367717       0.12677706      -0.09275035
C        0.93203659      -0.05774515       1.02044542
C       -1.01998127       0.94914634      -0.24056111
C       -1.83360637      -0.28569420      -0.25141438
O       -0.74481584      -0.61850303      -1.09668385
C        0.83424523      -0.89447556      -0.08619258
H        1.91813180       1.11506123      -0.54357905
H        2.94832839      -0.22756333      -0.02051842
H        1.15663126      -0.25685515       2.05811170
H       -1.17828601       1.66507140      -1.04718684
H       -0.98738731       1.54984814       0.66024062
H       -2.76968855      -0.25642127      -0.80502795
H       -1.90642526      -0.85201153       0.67526322
H        0.72714017      -1.95663495      -0.23014643
14
Frame=15 idx=000574 GeodesicLength=1.217252113446795 rxn_smarts="[C:1]1([H:7])([H:8])[C@@:2]2([H:9])[C:3]([H:10])([H:11])[C:4]([H:12])([H:13])[O:5][C@@:6]12[H:14]>>[C:1]1([H:7])([H:8])[C:2]([H:9])=[C:6]1[H:14].[C:3]1([H:10])([H:11])[C:4]([H:12])([H:13])[O:5]1"
C        1.92712469       0.13318997      -0.09059855
C        0.93420779      -0.07285032       1.01735636
C       -0.99991897       0.93376403      -0.24694776
C       -1.84140252      -0.28576878      -0.24357332
O       -0.77464616      -0.64080597      -1.10364936
C        0.85167138      -0.90357905      -0.09094459
H        1.91897637       1.13204147      -0.51748919
H        2.95618286      -0.20755709      -0.01636053
H        1.14802980      -0.25656241       2.05975528
H       -1.15922962       1.65054480      -1.05407534
H       -0.99336563       1.56057894       0.63721449
H       -2.78495520      -0.23397849      -0.78308051
H       -1.91640710      -0.84772311       0.68573887
H        0.73373229      -1.96129399      -0.25334586
14
Frame=16 idx=000574 GeodesicLength=1.2987061084979803 rxn_smarts="[C:1]1([H:7])([H:8])[C@@:2]2([H:9])[C:3]([H:10])([H:11])[C:4]([H:12])([H:13])[O:5][C@@:6]12[H:14]>>[C:1]1([H:7])([H:8])[C:2]([H:9])=[C:6]1[H:14].[C:3]1([H:10])([H:11])[C:4]([H:12])([H:13])[O:5]1"
C        1.93057515       0.14005998      -0.08803950
C        0.93657061      -0.08853720       1.01419664
C       -0.98011070       0.91767961      -0.25336431
C       -1.84931995      -0.28569070      -0.23497138
O       -0.80583239      -0.66299231      -1.10992645
C        0.86982597      -0.91251971      -0.09612934
H        1.91948171       1.14925786      -0.48985028
H        2.96391409      -0.18684782      -0.01160785
H        1.13849528      -0.25710811       2.06114938
H       -1.13948752       1.63434722      -1.06211251
H       -0.99833041       1.57124132       0.61191059
H       -2.79978617      -0.21094199      -0.75987630
H       -1.92616960      -0.84298674       0.69714740
H        0.74017393      -1.96496142      -0.27852610
