13
Frame=0 idx=005012 GeodesicLength=0.0 rxn_smarts="[O:1]([C@@:2]1([H:8])[C:3]([H:9])([H:10])[N:4]2[C:5]([H:11])([H:12])[C@@:6]12[H:13])[H:7]>>[O:1]([C:2][C@@:6]1([H:13])[N:4]([C:3]([H:8])([H:9])[H:10])[C:5]1([H:11])[H:12])[H:7]"
O       -1.65866127      -1.31678366       0.75513403
C       -1.28164884      -0.42071189      -0.15756064
C       -0.10646830       1.47649324       0.12946312
N        0.74443799       0.71843619      -0.73155968
C        1.29407664      -0.40874717      -0.01256285
C        0.04254973      -0.59256843      -0.79220619
H       -0.91729819      -1.86624190       1.04289462
H       -1.38703706       0.75189334       0.09713693
H        0.31827284       1.74706071       1.09349484
H       -0.58747455       2.31296142      -0.37549551
H        1.24918673      -0.38930964       1.07393107
H        2.20786357      -0.81279677      -0.43046187
H        0.08220066      -1.19968544      -1.69220790
13
Frame=1 idx=005012 GeodesicLength=0.0687946427095544 rxn_smarts="[O:1]([C@@:2]1([H:8])[C:3]([H:9])([H:10])[N:4]2[C:5]([H:11])([H:12])[C@@:6]12[H:13])[H:7]>>[O:1]([C:2][C@@:6]1([H:13])[N:4]([C:3]([H:8])([H:9])[H:10])[C:5]1([H:11])[H:12])[H:7]"
O       -1.65346014      -1.31611602       0.76909255
C       -1.27235259      -0.41740648      -0.13973823
C       -0.11400890       1.47377073       0.12711446
N        0.74227230       0.71700939      -0.73454967
C        1.29953325      -0.40546748      -0.01535821
C        0.04435008      -0.59598029      -0.78761403
H       -0.91814232      -1.88427747       1.03595031
H       -1.40848313       0.77882022       0.06835353
H        0.29528270       1.72479211       1.10330797
H       -0.56366775       2.32838460      -0.37604996
H        1.25916351      -0.38687114       1.07127252
H        2.21187948      -0.80893885      -0.43697955
H        0.07763350      -1.20771934      -1.68480170
13
Frame=2 idx=005012 GeodesicLength=0.13752423184149276 rxn_smarts="[O:1]([C@@:2]1([H:8])[C:3]([H:9])([H:10])[N:4]2[C:5]([H:11])([H:12])[C@@:6]12[H:13])[H:7]>>[O:1]([C:2][C@@:6]1([H:13])[N:4]([C:3]([H:8])([H:9])[H:10])[C:5]1([H:11])[H:12])[H:7]"
O       -1.64858559      -1.31615683       0.78213839
C       -1.26293177      -0.41350231      -0.12137730
C       -0.12169432       1.47115763       0.12467512
N        0.74000995       0.71557445      -0.73757468
C        1.30495505      -0.40203756      -0.01807739
C        0.04606507      -0.59941586      -0.78269419
H       -0.91982582      -1.90203149       1.02862822
H       -1.42837426       0.80458741       0.03965828
H        0.27272244       1.70339455       1.11186668
H       -0.54014912       2.34306922      -0.37543632
H        1.26925013      -0.38385594       1.06867166
H        2.21576940      -0.80505562      -0.44345459
H        0.07278884      -1.21572765      -1.67702389
13
Frame=3 idx=005012 GeodesicLength=0.20619348107435734 rxn_smarts="[O:1]([C@@:2]1([H:8])[C:3]([H:9])([H:10])[N:4]2[C:5]([H:11])([H:12])[C@@:6]12[H:13])[H:7]>>[O:1]([C:2][C@@:6]1([H:13])[N:4]([C:3]([H:8])([H:9])[H:10])[C:5]1([H:11])[H:12])[H:7]"
O       -1.64410458      -1.31693044       0.79419722
C       -1.25339688      -0.40911111      -0.10256797
C       -0.12948541       1.46867585       0.12212606
N        0.73765129       0.71412179      -0.74065072
C        1.31031964      -0.39846142      -0.02071415
C        0.04769479      -0.60286402      -0.77746814
H       -0.92229725      -1.91948299       1.02092190
H       -1.44678266       0.82923696       0.01135643
H        0.25073834       1.68295258       1.11920485
H       -0.51698596       2.35697950      -0.37379003
H        1.27940693      -0.38025856       1.06613284
H        2.21952011      -0.80116181      -0.44985149
H        0.06772164      -1.22369633      -1.66889679
13
Frame=4 idx=005012 GeodesicLength=0.27480972151721206 rxn_smarts="[O:1]([C@@:2]1([H:8])[C:3]([H:9])([H:10])[N:4]2[C:5]([H:11])([H:12])[C@@:6]12[H:13])[H:7]>>[O:1]([C:2][C@@:6]1([H:13])[N:4]([C:3]([H:8])([H:9])[H:10])[C:5]1([H:11])[H:12])[H:7]"
O       -1.64005771      -1.31840836       0.80525588
C       -1.24375212      -0.40434874      -0.08339444
C       -0.13735895       1.46632837       0.11946183
N        0.73519363       0.71264249      -0.74378781
C        1.31561488      -0.39474578      -0.02327106
C        0.04924646      -0.60632107      -0.77196096
H       -0.92550010      -1.93661080       1.01284118
H       -1.46382751       0.85284103      -0.01636395
H        0.22942739       1.66349752       1.12538987
H       -0.49421415       2.37009904      -0.37122311
H        1.28960795      -0.37609175       1.06365148
H        2.22313087      -0.79726254      -0.45615232
H        0.06248936      -1.23161943      -1.66044658
13
Frame=5 idx=005012 GeodesicLength=0.343374689243133 rxn_smarts="[O:1]([C@@:2]1([H:8])[C:3]([H:9])([H:10])[N:4]2[C:5]([H:11])([H:12])[C@@:6]12[H:13])[H:7]>>[O:1]([C:2][C@@:6]1([H:13])[N:4]([C:3]([H:8])([H:9])[H:10])[C:5]1([H:11])[H:12])[H:7]"
O       -1.63645927      -1.32052187       0.81534282
C       -1.23399677      -0.39932801      -0.06393468
C       -0.14530682       1.46409926       0.11668792
N        0.73262827       0.71112643      -0.74698858
C        1.32083434      -0.39089700      -0.02575640
C        0.05072917      -0.60978971      -0.76619864
H       -0.92937125      -1.95338423       1.00440421
H       -1.47965121       0.87548422      -0.04341912
H        0.20884622       1.64501774       1.13050952
H       -0.47183942       2.38242446      -0.36781395
H        1.29983915      -0.37137693       1.06121559
H        2.22660517      -0.79335281      -0.46235095
H        0.05714242      -1.23950156      -1.65169775
13
Frame=6 idx=005012 GeodesicLength=0.41188370778245414 rxn_smarts="[O:1]([C@@:2]1([H:8])[C:3]([H:9])([H:10])[N:4]2[C:5]([H:11])([H:12])[C@@:6]12[H:13])[H:7]>>[O:1]([C:2][C@@:6]1([H:13])[N:4]([C:3]([H:8])([H:9])[H:10])[C:5]1([H:11])[H:12])[H:7]"
O       -1.63331539      -1.32319008       0.82449973
C       -1.22412521      -0.39415258      -0.04426501
C       -0.15332433       1.46196789       0.11381195
N        0.72995453       0.70956465      -0.75025507
C        1.32597483      -0.38692590      -0.02818074
C        0.05216233      -0.61327109      -0.76021374
H       -0.93386199      -1.96976734       0.99565435
H       -1.49439093       0.89726004      -0.06973187
H        0.18903792       1.62749018       1.13465080
H       -0.44988548       2.39393566      -0.36364482
H        1.31007642      -0.36615198       1.05881331
H        2.22995278      -0.78943163      -0.46844447
H        0.05174451      -1.24732783      -1.64269441
13
Frame=7 idx=005012 GeodesicLength=0.480352833916701 rxn_smarts="[O:1]([C@@:2]1([H:8])[C:3]([H:9])([H:10])[N:4]2[C:5]([H:11])([H:12])[C@@:6]12[H:13])[H:7]>>[O:1]([C:2][C@@:6]1([H:13])[N:4]([C:3]([H:8])([H:9])[H:10])[C:5]1([H:11])[H:12])[H:7]"
O       -1.63061252      -1.32631356       0.83280537
C       -1.21413507      -0.38891490      -0.02444515
C       -0.16142102       1.45991113       0.11084731
N        0.72716408       0.70795123      -0.75358621
C        1.33104274      -0.38284197      -0.03055862
C        0.05356063      -0.61677539      -0.75403292
H       -0.93892266      -1.98574474       0.98662050
H       -1.50819329       0.91827313      -0.09532818
H        0.16999976       1.61086286       1.13791682
H       -0.42833654       2.40464927      -0.35875978
H        1.32032132      -0.36045182       1.05642899
H        2.23319258      -0.78549047      -0.47444432
H        0.04634000      -1.25511477      -1.63346382
13
Frame=8 idx=005012 GeodesicLength=0.5487707679796746 rxn_smarts="[O:1]([C@@:2]1([H:8])[C:3]([H:9])([H:10])[N:4]2[C:5]([H:11])([H:12])[C@@:6]12[H:13])[H:7]>>[O:1]([C:2][C@@:6]1([H:13])[N:4]([C:3]([H:8])([H:9])[H:10])[C:5]1([H:11])[H:12])[H:7]"
O       -1.62832500      -1.32978654       0.84034883
C       -1.20401836      -0.38369478      -0.00452533
C       -0.16960179       1.45790006       0.10780465
N        0.72424979       0.70627938      -0.75697705
C        1.33604267      -0.37864648      -0.03290169
C        0.05493831      -0.62030884      -0.74767649
H       -0.94452765      -2.00131625       0.97731333
H       -1.52118240       0.93862214      -0.12024002
H        0.15172586       1.59507208       1.14039849
H       -0.40717742       2.41455650      -0.35320627
H        1.33057427      -0.35430258       1.05404599
H        2.23633700      -0.78150639      -0.48035853
H        0.04096471      -1.26286832      -1.62402591
13
Frame=9 idx=005012 GeodesicLength=0.6171883865529995 rxn_smarts="[O:1]([C@@:2]1([H:8])[C:3]([H:9])([H:10])[N:4]2[C:5]([H:11])([H:12])[C@@:6]12[H:13])[H:7]>>[O:1]([C:2][C@@:6]1([H:13])[N:4]([C:3]([H:8])([H:9])[H:10])[C:5]1([H:11])[H:12])[H:7]"
O       -1.62644718      -1.33354098       0.84722259
C       -1.19378412      -0.37856536       0.01545521
C       -0.17788259       1.45592640       0.10469286
N        0.72121125       0.70455852      -0.76043077
C        1.34100313      -0.37435038      -0.03522365
C        0.05630940      -0.62388509      -0.74116574
H       -0.95066135      -2.01650402       0.96777000
H       -1.53349863       0.95842768      -0.14454182
H        0.13420084       1.58006264       1.14218508
H       -0.38639851       2.42370248      -0.34701179
H        1.34086423      -0.34774910       1.05165340
H        2.23943563      -0.77747252      -0.48620219
H        0.03564789      -1.27061027      -1.61440317
13
Frame=10 idx=005012 GeodesicLength=0.6855210433548607 rxn_smarts="[O:1]([C@@:2]1([H:8])[C:3]([H:9])([H:10])[N:4]2[C:5]([H:11])([H:12])[C@@:6]12[H:13])[H:7]>>[O:1]([C:2][C@@:6]1([H:13])[N:4]([C:3]([H:8])([H:9])[H:10])[C:5]1([H:11])[H:12])[H:7]"
O       -1.62490469      -1.33743923       0.85348407
C       -1.18337892      -0.37355385       0.03547378
C       -0.18627517       1.45391795       0.10154155
N        0.71802975       0.70274542      -0.76393051
C        1.34588562      -0.36995417      -0.03754674
C        0.05770015      -0.62750062      -0.73451639
H       -0.95725974      -2.03121399       0.95800358
H       -1.54518268       0.97776589      -0.16829669
H        0.11736196       1.56574403       1.14335791
H       -0.36598901       2.43199843      -0.34017608
H        1.35113293      -0.34079687       1.04921700
H        2.24243253      -0.77337554      -0.49200446
H        0.03044727      -1.27833745      -1.60460700
13
Frame=11 idx=005012 GeodesicLength=0.7538230699144349 rxn_smarts="[O:1]([C@@:2]1([H:8])[C:3]([H:9])([H:10])[N:4]2[C:5]([H:11])([H:12])[C@@:6]12[H:13])[H:7]>>[O:1]([C:2][C@@:6]1([H:13])[N:4]([C:3]([H:8])([H:9])[H:10])[C:5]1([H:11])[H:12])[H:7]"
O       -1.62366059      -1.34138264       0.85926918
C       -1.17280793      -0.36873010       0.05549837
C       -0.19480234       1.45185253       0.09835086
N        0.71469625       0.70083867      -0.76748315
C        1.35071171      -0.36545592      -0.03988830
C        0.05912897      -0.63117297      -0.72774011
H       -0.96435314      -2.04546349       0.94800770
H       -1.55633360       0.99674581      -0.19160258
H        0.10116356       1.55202326       1.14399609
H       -0.34591157       2.43945972      -0.33269450
H        1.36140496      -0.33346197       1.04671863
H        2.24536825      -0.76917534      -0.49779020
H        0.02539547      -1.28607756      -1.59464200
13
Frame=12 idx=005012 GeodesicLength=0.8221276363684846 rxn_smarts="[O:1]([C@@:2]1([H:8])[C:3]([H:9])([H:10])[N:4]2[C:5]([H:11])([H:12])[C@@:6]12[H:13])[H:7]>>[O:1]([C:2][C@@:6]1([H:13])[N:4]([C:3]([H:8])([H:9])[H:10])[C:5]1([H:11])[H:12])[H:7]"
O       -1.62272534      -1.34537388       0.86463486
C       -1.16208920      -0.36413409       0.07551553
C       -0.20347325       1.44973968       0.09513260
N        0.71121509       0.69886330      -0.77108213
C        1.35551897      -0.36086570      -0.04225190
C        0.06059286      -0.63491287      -0.72084833
H       -0.97192715      -2.05931249       0.93782430
H       -1.56705243       1.01549049      -0.21457418
H        0.08560196       1.53887337       1.14416580
H       -0.32617214       2.44614360      -0.32458874
H        1.37173946      -0.32577979       1.04415667
H        2.24829478      -0.76487631      -0.50356510
H        0.02047639      -1.29385530      -1.58451939
13
Frame=13 idx=005012 GeodesicLength=0.8904176628043107 rxn_smarts="[O:1]([C@@:2]1([H:8])[C:3]([H:9])([H:10])[N:4]2[C:5]([H:11])([H:12])[C@@:6]12[H:13])[H:7]>>[O:1]([C:2][C@@:6]1([H:13])[N:4]([C:3]([H:8])([H:9])[H:10])[C:5]1([H:11])[H:12])[H:7]"
O       -1.62205337      -1.34934230       0.86964976
C       -1.15119307      -0.35979230       0.09552532
C       -0.21230247       1.44754233       0.09190352
N        0.70757476       0.69680136      -0.77472030
C        1.36029918      -0.35618232      -0.04465150
C        0.06210971      -0.63872604      -0.71384717
H       -0.97997319      -2.07274038       0.92745603
H       -1.57737075       1.03409474      -0.23729762
H        0.07063555       1.52622973       1.14392892
H       -0.30676871       2.45200718      -0.31586065
H        1.38212405      -0.31775487       1.04151355
H        2.25119969      -0.76046051      -0.50935300
H        0.01571860      -1.30167663      -1.57424684
13
Frame=14 idx=005012 GeodesicLength=0.9586941118386892 rxn_smarts="[O:1]([C@@:2]1([H:8])[C:3]([H:9])([H:10])[N:4]2[C:5]([H:11])([H:12])[C@@:6]12[H:13])[H:7]>>[O:1]([C:2][C@@:6]1([H:13])[N:4]([C:3]([H:8])([H:9])[H:10])[C:5]1([H:11])[H:12])[H:7]"
O       -1.62162344      -1.35325039       0.87436651
C       -1.14010398      -0.35573036       0.11553229
C       -0.22130476       1.44523586       0.08867869
N        0.70376898       0.69464620      -0.77838948
C        1.36505895      -0.35140782      -0.04709856
C        0.06369142      -0.64261921      -0.70673984
H       -0.98848474      -2.08574203       0.91691936
H       -1.58732540       1.05266269      -0.25986653
H        0.05623452       1.51403870       1.14333953
H       -0.28770936       2.45702969      -0.30651392
H        1.39256954      -0.30939832       1.03877339
H        2.25409217      -0.75591513      -0.51517413
H        0.01113610      -1.30954987      -1.56382729
13
Frame=15 idx=005012 GeodesicLength=1.0269583787946823 rxn_smarts="[O:1]([C@@:2]1([H:8])[C:3]([H:9])([H:10])[N:4]2[C:5]([H:11])([H:12])[C@@:6]12[H:13])[H:7]>>[O:1]([C:2][C@@:6]1([H:13])[N:4]([C:3]([H:8])([H:9])[H:10])[C:5]1([H:11])[H:12])[H:7]"
O       -1.62142156      -1.35707472       0.87882446
C       -1.12880470      -0.35197053       0.13554866
C       -0.23049404       1.44279764       0.08547441
N        0.69979128       0.69239235      -0.78208067
C        1.36980518      -0.34654408      -0.04960322
C        0.06534794      -0.64659915      -0.69952699
H       -0.99745531      -2.09831452       0.90623357
H       -1.59694027       1.07130053      -0.28237510
H        0.04237390       1.50225297       1.14244813
H       -0.26901032       2.46118954      -0.29655459
H        1.40309024      -0.30071861       1.03592204
H        2.25698020      -0.75122850      -0.52104861
H        0.00673745      -1.31748293      -1.55326210
13
Frame=16 idx=005012 GeodesicLength=1.0952118998171112 rxn_smarts="[O:1]([C@@:2]1([H:8])[C:3]([H:9])([H:10])[N:4]2[C:5]([H:11])([H:12])[C@@:6]12[H:13])[H:7]>>[O:1]([C:2][C@@:6]1([H:13])[N:4]([C:3]([H:8])([H:9])[H:10])[C:5]1([H:11])[H:12])[H:7]"
O       -1.62144025      -1.36080154       0.88305133
C       -1.11727491      -0.34853249       0.15559533
C       -0.23988413       1.44020549       0.08230856
N        0.69563476       0.69003426      -0.78578376
C        1.37454472      -0.34159270      -0.05217491
C        0.06708829      -0.65067263      -0.69220598
H       -1.00687963      -2.11045659       0.89541786
H       -1.60622600       1.09011646      -0.30491678
H        0.02903243       1.49083046       1.14130193
H       -0.25069643       2.46446272      -0.28599188
H        1.41370304      -0.29172119       1.03294575
H        2.25987040      -0.74638942      -0.52699744
H        0.00252772      -1.32548282      -1.54255001
