13
Frame=0 idx=003545 GeodesicLength=0.0 rxn_smarts="[C:1]([C@@:2]([O:3][H:11])([C:4]([C:5]#[N:6])([H:12])[H:13])[H:10])([H:7])([H:8])[H:9]>>[C:1]([C:2](=[C:4]([H:12])[H:13])[H:10])([H:7])([H:8])[H:9].[O:3]([N+:6]#[C-:5])[H:11]"
C       -1.32803442      -0.75130843       0.36274110
C        0.06121744      -0.65748754      -0.16087375
O       -0.19709076       1.19873031      -1.19453371
C        1.13539492      -0.22854707       0.64716793
C        1.40258325       1.42311591       0.41833425
N        0.78815831       1.98341918      -0.49726652
H       -2.07654642      -0.69275625      -0.42472656
H       -1.44255056      -1.71638928       0.86964490
H       -1.52161492       0.03187424       1.09621699
H        0.27043359      -1.14117543      -1.10729166
H       -0.13970592       1.46036008      -2.12441419
H        2.10774793      -0.64268979       0.39906658
H        0.94000762      -0.26714592       1.71593462
13
Frame=1 idx=003545 GeodesicLength=0.14292743632115046 rxn_smarts="[C:1]([C@@:2]([O:3][H:11])([C:4]([C:5]#[N:6])([H:12])[H:13])[H:10])([H:7])([H:8])[H:9]>>[C:1]([C:2](=[C:4]([H:12])[H:13])[H:10])([H:7])([H:8])[H:9].[O:3]([N+:6]#[C-:5])[H:11]"
C       -1.33185660      -0.74049658       0.36263133
C        0.05852164      -0.65967206      -0.16303780
O       -0.18497815       1.17911798      -1.21654092
C        1.14065281      -0.23669176       0.63796629
C        1.37217664       1.44937392       0.46466618
N        0.76921812       2.01418412      -0.44995760
H       -2.07885585      -0.68946027      -0.42741580
H       -1.45388386      -1.69585253       0.88506619
H       -1.52769722       0.05599030       1.08103580
H        0.26442793      -1.17610780      -1.09318112
H       -0.12467128       1.43181254      -2.14806395
H        2.11777947      -0.61843357       0.35675507
H        0.97916634      -0.31376428       1.71007633
13
Frame=2 idx=003545 GeodesicLength=0.28569180791698845 rxn_smarts="[C:1]([C@@:2]([O:3][H:11])([C:4]([C:5]#[N:6])([H:12])[H:13])[H:10])([H:7])([H:8])[H:9]>>[C:1]([C:2](=[C:4]([H:12])[H:13])[H:10])([H:7])([H:8])[H:9].[O:3]([N+:6]#[C-:5])[H:11]"
C       -1.33536831      -0.72955004       0.36199089
C        0.05615246      -0.66217672      -0.16546810
O       -0.17148847       1.16022964      -1.23698993
C        1.14602898      -0.24479552       0.62849642
C        1.34235019       1.47329202       0.51087060
N        0.75056220       2.04401031      -0.40157630
H       -2.08072239      -0.68612498      -0.43068425
H       -1.46488882      -1.67469193       0.90009904
H       -1.53371022       0.08000703       1.06493755
H        0.25819967      -1.21082880      -1.07832800
H       -0.11218517       1.40206526      -2.17089266
H        2.12648618      -0.59343289       0.31580273
H        1.01858368      -0.35800338       1.70174202
13
Frame=3 idx=003545 GeodesicLength=0.42832160862589563 rxn_smarts="[C:1]([C@@:2]([O:3][H:11])([C:4]([C:5]#[N:6])([H:12])[H:13])[H:10])([H:7])([H:8])[H:9]>>[C:1]([C:2](=[C:4]([H:12])[H:13])[H:10])([H:7])([H:8])[H:9].[O:3]([N+:6]#[C-:5])[H:11]"
C       -1.33854804      -0.71840773       0.36073861
C        0.05414313      -0.66489297      -0.16817772
O       -0.15664092       1.14203013      -1.25611583
C        1.15155526      -0.25290653       0.61882830
C        1.31332168       1.49495940       0.55711674
N        0.73248565       2.07307575      -0.35189619
H       -2.08211017      -0.68281890      -0.43462984
H       -1.47553173      -1.65280594       0.91469768
H       -1.53966269       0.10403549       1.04776005
H        0.25188509      -1.24525989      -1.06269601
H       -0.10302650       1.37090335      -2.19313923
H        2.13395036      -0.56792191       0.27629969
H        1.05817888      -0.39999025       1.69121376
13
Frame=4 idx=003545 GeodesicLength=0.5708492314765059 rxn_smarts="[C:1]([C@@:2]([O:3][H:11])([C:4]([C:5]#[N:6])([H:12])[H:13])[H:10])([H:7])([H:8])[H:9]>>[C:1]([C:2](=[C:4]([H:12])[H:13])[H:10])([H:7])([H:8])[H:9].[O:3]([N+:6]#[C-:5])[H:11]"
C       -1.34136227      -0.70697551       0.35876718
C        0.05255265      -0.66773528      -0.17118217
O       -0.14033054       1.12444640      -1.27421136
C        1.15728174      -0.26107243       0.60903423
C        1.28525553       1.51445981       0.60362049
N        0.71521139       2.10155049      -0.30061842
H       -2.08296307      -0.67956346      -0.43938043
H       -1.48580797      -1.63004962       0.92879487
H       -1.54553589       0.12822217       1.02930485
H        0.24562187      -1.27936510      -1.04623274
H       -0.09811667       1.33805382      -2.21498526
H        2.14030072      -0.54207956       0.23833965
H        1.09789251      -0.43989174       1.67874912
13
Frame=5 idx=003545 GeodesicLength=0.7132202594291516 rxn_smarts="[C:1]([C@@:2]([O:3][H:11])([C:4]([C:5]#[N:6])([H:12])[H:13])[H:10])([H:7])([H:8])[H:9]>>[C:1]([C:2](=[C:4]([H:12])[H:13])[H:10])([H:7])([H:8])[H:9].[O:3]([N+:6]#[C-:5])[H:11]"
C       -1.34375633      -0.69511686       0.35594772
C        0.05145946      -0.67062210      -0.17450721
O       -0.12236319       1.10739293      -1.29158395
C        1.16326542      -0.26933594       0.59916800
C        1.25825487       1.53184835       0.65063287
N        0.69882168       2.12957906      -0.24736617
H       -2.08319544      -0.67631100      -0.44507224
H       -1.49571360      -1.60622260       0.94228298
H       -1.55128156       0.15273766       1.00935655
H        0.23954126      -1.31311363      -1.02888033
H       -0.09840074       1.30308734      -2.23652014
H        2.14568358      -0.51603024       0.20198844
H        1.13768459      -0.47789297       1.66455347
13
Frame=6 idx=003545 GeodesicLength=0.8554334780987838 rxn_smarts="[C:1]([C@@:2]([O:3][H:11])([C:4]([C:5]#[N:6])([H:12])[H:13])[H:10])([H:7])([H:8])[H:9]>>[C:1]([C:2](=[C:4]([H:12])[H:13])[H:10])([H:7])([H:8])[H:9].[O:3]([N+:6]#[C-:5])[H:11]"
C       -1.34567492      -0.68266649       0.35211282
C        0.05096298      -0.67348759      -0.17819434
O       -0.10244457       1.09075067      -1.30862208
C        1.16959158      -0.27772870       0.58927683
C        1.23239759       1.54716355       0.69841528
N        0.68333109       2.15724653      -0.19172449
H       -2.08272267      -0.67301858      -0.45189277
H       -1.50527109      -1.58105916       0.95506430
H       -1.55684842       0.17780032       0.98762528
H        0.23377133      -1.34651043      -1.01057205
H       -0.10493912       1.26553568      -2.25760965
H        2.15029489      -0.48983787       0.16730952
H        1.17755132      -0.51418793       1.64881134
13
Frame=7 idx=003545 GeodesicLength=0.9975664199627184 rxn_smarts="[C:1]([C@@:2]([O:3][H:11])([C:4]([C:5]#[N:6])([H:12])[H:13])[H:10])([H:7])([H:8])[H:9]>>[C:1]([C:2](=[C:4]([H:12])[H:13])[H:10])([H:7])([H:8])[H:9].[O:3]([N+:6]#[C-:5])[H:11]"
C       -1.34711171      -0.66948053       0.34714888
C        0.05109301      -0.67622919      -0.18231826
O       -0.08044521       1.07450132      -1.32568826
C        1.17633466      -0.28621863       0.57930698
C        1.20766625       1.56045211       0.74724903
N        0.66860630       2.18465244      -0.13318280
H       -2.08156644      -0.66963463      -0.45992196
H       -1.51451555      -1.55433546       0.96706637
H       -1.56219472       0.20354808       0.96392971
H        0.22830302      -1.37947899      -0.99129227
H       -0.11806525       1.22460040      -2.27805790
H        2.15430709      -0.46339268       0.13418500
H        1.21758857      -0.54898424       1.63157548
13
Frame=8 idx=003545 GeodesicLength=1.1397729235634957 rxn_smarts="[C:1]([C@@:2]([O:3][H:11])([C:4]([C:5]#[N:6])([H:12])[H:13])[H:10])([H:7])([H:8])[H:9]>>[C:1]([C:2](=[C:4]([H:12])[H:13])[H:10])([H:7])([H:8])[H:9].[O:3]([N+:6]#[C-:5])[H:11]"
C       -1.34801230      -0.65541968       0.34088234
C        0.05189221      -0.67880305      -0.18696239
O       -0.05621245       1.05851435      -1.34327572
C        1.18353806      -0.29476964       0.56919367
C        1.18402166       1.57174760       0.79730524
N        0.65461577       2.21184743      -0.07137041
H       -2.07968624      -0.66622707      -0.46929126
H       -1.52343976      -1.52577533       0.97824265
H       -1.56722224       0.23020582       0.93790573
H        0.22312206      -1.41204834      -0.97097185
H       -0.13828432       1.17975722      -2.29710306
H        2.15784728      -0.43661618       0.10258359
H        1.25782028      -0.58241313       1.61286148
13
Frame=9 idx=003545 GeodesicLength=1.2819771588946804 rxn_smarts="[C:1]([C@@:2]([O:3][H:11])([C:4]([C:5]#[N:6])([H:12])[H:13])[H:10])([H:7])([H:8])[H:9]>>[C:1]([C:2](=[C:4]([H:12])[H:13])[H:10])([H:7])([H:8])[H:9].[O:3]([N+:6]#[C-:5])[H:11]"
C       -1.34826939      -0.64032842       0.33315272
C        0.05338796      -0.68121827      -0.19222114
O       -0.02979205       1.04241265      -1.36193773
C        1.19117013      -0.30333875       0.55874984
C        1.16122498       1.58101059       0.84856830
N        0.64116043       2.23873375      -0.00610128
H       -2.07699349      -0.66297130      -0.48003677
H       -1.53190265      -1.49496585       0.98860788
H       -1.57180619       0.25807217       0.90907694
H        0.21820971      -1.44431778      -0.94948187
H       -0.16552601       1.13087073      -2.31325871
H        2.16092509      -0.40947286       0.07237626
H        1.29821151      -0.61448665       1.59250556
13
Frame=10 idx=003545 GeodesicLength=1.4241473699080325 rxn_smarts="[C:1]([C@@:2]([O:3][H:11])([C:4]([C:5]#[N:6])([H:12])[H:13])[H:10])([H:7])([H:8])[H:9]>>[C:1]([C:2](=[C:4]([H:12])[H:13])[H:10])([H:7])([H:8])[H:9].[O:3]([N+:6]#[C-:5])[H:11]"
C       -1.34798334      -0.62427012       0.32418639
C        0.05530753      -0.68348103      -0.19817767
O       -0.00216366       1.02587653      -1.38208877
C        1.19910080      -0.31176269       0.54751432
C        1.13881188       1.58823786       0.90093139
N        0.62769460       2.26527753       0.06277882
H       -2.07380492      -0.66015756      -0.49165229
H       -1.53974076      -1.46179706       0.99849689
H       -1.57592820       0.28710283       0.87750894
H        0.21312776      -1.47627361      -0.92676884
H       -0.19671504       1.07805109      -2.32561836
H        2.16333564      -0.38163429       0.04287189
H        1.33895771      -0.64516948       1.57001729
13
Frame=11 idx=003545 GeodesicLength=1.5663559471241133 rxn_smarts="[C:1]([C@@:2]([O:3][H:11])([C:4]([C:5]#[N:6])([H:12])[H:13])[H:10])([H:7])([H:8])[H:9]>>[C:1]([C:2](=[C:4]([H:12])[H:13])[H:10])([H:7])([H:8])[H:9].[O:3]([N+:6]#[C-:5])[H:11]"
C       -1.34748146      -0.60751917       0.31458776
C        0.05715975      -0.68562115      -0.20484084
O        0.02501297       1.00863638      -1.40400387
C        1.20718601      -0.31980993       0.53494735
C        1.11635436       1.59341318       0.95435965
N        0.61356771       2.29153054       0.13555150
H       -2.07081458      -0.65802169      -0.50321980
H       -1.54687175      -1.42655189       1.00850923
H       -1.57970823       0.31690549       0.84391002
H        0.20716657      -1.50781687      -0.90283338
H       -0.22680300       1.02179663      -2.33488150
H        2.16476263      -0.35257391       0.01310294
H        1.38046901      -0.67436761       1.54481094
13
Frame=12 idx=003545 GeodesicLength=1.7086120984626414 rxn_smarts="[C:1]([C@@:2]([O:3][H:11])([C:4]([C:5]#[N:6])([H:12])[H:13])[H:10])([H:7])([H:8])[H:9]>>[C:1]([C:2](=[C:4]([H:12])[H:13])[H:10])([H:7])([H:8])[H:9].[O:3]([N+:6]#[C-:5])[H:11]"
C       -1.34696581      -0.59024528       0.30481648
C        0.05863658      -0.68771955      -0.21212897
O        0.05066008       0.99021578      -1.42795063
C        1.21532481      -0.32732225       0.52075503
C        1.09365581       1.59639715       1.00896963
N        0.59841437       2.31741604       0.21273599
H       -2.06844372      -0.65662007      -0.51406572
H       -1.55323969      -1.38938140       1.01906496
H       -1.58316255       0.34722219       0.80880103
H        0.19991200      -1.53891504      -0.87751821
H       -0.25271730       0.96282167      -2.34253786
H        2.16493593      -0.32193440      -0.01745147
H        1.42298949      -0.70193483       1.51650974
13
Frame=13 idx=003545 GeodesicLength=1.8508762984125695 rxn_smarts="[C:1]([C@@:2]([O:3][H:11])([C:4]([C:5]#[N:6])([H:12])[H:13])[H:10])([H:7])([H:8])[H:9]>>[C:1]([C:2](=[C:4]([H:12])[H:13])[H:10])([H:7])([H:8])[H:9].[O:3]([N+:6]#[C-:5])[H:11]"
C       -1.34645457      -0.57240361       0.29506288
C        0.05964980      -0.68983411      -0.21993531
O        0.07438981       0.97007028      -1.45421159
C        1.22347037      -0.33419412       0.50483106
C        1.07065226       1.59691507       1.06505962
N        0.58205293       2.34275088       0.29523390
H       -2.06677186      -0.65580854      -0.52386499
H       -1.55878484      -1.35014089       1.03031465
H       -1.58614938       0.37805883       0.77232245
H        0.19126952      -1.56954402      -0.85052705
H       -0.27361900       0.90135763      -2.35022785
H        2.16365911      -0.28945152      -0.04890975
H        1.46663584      -0.72777589       1.48485196
13
Frame=14 idx=003545 GeodesicLength=1.993140656720555 rxn_smarts="[C:1]([C@@:2]([O:3][H:11])([C:4]([C:5]#[N:6])([H:12])[H:13])[H:10])([H:7])([H:8])[H:9]>>[C:1]([C:2](=[C:4]([H:12])[H:13])[H:10])([H:7])([H:8])[H:9].[O:3]([N+:6]#[C-:5])[H:11]"
C       -1.34585827      -0.55378646       0.28523663
C        0.06029389      -0.69202325      -0.22819167
O        0.09639323       0.94747132      -1.48333486
C        1.23166832      -0.34033220       0.48718611
C        1.04739721       1.59460625       1.12302777
N        0.56440584       2.36717614       0.38412677
H       -2.06569540      -0.65545877      -0.53262891
H       -1.56346706      -1.30834400       1.04225585
H       -1.58845150       0.40966984       0.73412466
H        0.18138078      -1.59971633      -0.82148623
H       -0.29041467       0.83740016      -2.35891939
H        2.16089261      -0.25489676      -0.08111070
H        1.51145501      -0.75176595       1.44971396
13
Frame=15 idx=003545 GeodesicLength=2.135417089996944 rxn_smarts="[C:1]([C@@:2]([O:3][H:11])([C:4]([C:5]#[N:6])([H:12])[H:13])[H:10])([H:7])([H:8])[H:9]>>[C:1]([C:2](=[C:4]([H:12])[H:13])[H:10])([H:7])([H:8])[H:9].[O:3]([N+:6]#[C-:5])[H:11]"
C       -1.34504947      -0.53407517       0.27514618
C        0.06070161      -0.69431154      -0.23686829
O        0.11697764       0.92158561      -1.51602735
C        1.23999775      -0.34559114       0.46779597
C        1.02395338       1.58902153       1.18336143
N        0.54526596       2.39016744       0.48079067
H       -2.06508712      -0.65538814      -0.54043530
H       -1.56722786      -1.26329431       1.05482054
H       -1.58976836       0.44242957       0.69367633
H        0.17041036      -1.62940468      -0.78996829
H       -0.30432244       0.77053034      -2.36930494
H        2.15661156      -0.21792129      -0.11389247
H        1.55753700      -0.77374823       1.41090553
13
Frame=16 idx=003545 GeodesicLength=2.277742885379258 rxn_smarts="[C:1]([C@@:2]([O:3][H:11])([C:4]([C:5]#[N:6])([H:12])[H:13])[H:10])([H:7])([H:8])[H:9]>>[C:1]([C:2](=[C:4]([H:12])[H:13])[H:10])([H:7])([H:8])[H:9].[O:3]([N+:6]#[C-:5])[H:11]"
C       -1.34387269      -0.51284077       0.26453178
C        0.06101824      -0.69669650      -0.24596032
O        0.13646774       0.89138318      -1.55317356
C        1.24856081      -0.34974629       0.44657218
C        1.00034901       1.57958735       1.24665195
N        0.52426988       2.41093377       0.58693955
H       -2.06483278      -0.65534518      -0.54736485
H       -1.56998050      -1.21406934       1.06789642
H       -1.58968495       0.47682163       0.65029253
H        0.15850899      -1.65853501      -0.75544885
H       -0.31661138       0.69998291      -2.38191842
H        2.15075701      -0.17798152      -0.14713738
H        1.60505060      -0.79349424       1.36811897
