18
Frame=0 idx=003809 GeodesicLength=0.0 rxn_smarts="[C:1]([C@@:2]1([H:10])[C@:3]([C:4]([H:12])([H:13])[H:14])([H:11])[C@:5]1([C:6]([H:16])([H:17])[H:18])[H:15])([H:7])([H:8])[H:9]>>[C:1]([C@@:2]1([H:10])[C:3][C@:5]1([C:6]([H:16])([H:17])[H:18])[H:15])([H:7])([H:8])[H:9].[C:4]([H:11])([H:12])([H:13])[H:14]"
C       -0.89275857      -1.46386432       0.62863009
C        0.03838960      -1.21893564      -0.53273383
C        0.10802751      -0.01988775      -1.43070294
C       -1.17842911       1.53637727      -0.50787585
C        1.21643502      -0.27968035      -0.45509134
C        1.55455773       0.50507428       0.78819355
H       -1.91020401      -1.65483156       0.27854056
H       -0.93146442      -0.62749222       1.32452813
H       -0.56656574      -2.34016944       1.19258633
H        0.19072843      -2.12296173      -1.12002033
H       -0.65192388       0.94345050      -1.50969150
H       -0.46450318       2.12928720       0.05080913
H       -1.81623603       0.92093468       0.11314682
H       -1.77490567       2.16338219      -1.17258788
H        2.11294885      -0.59610240      -0.98557938
H        0.68068641       0.74016305       1.39393797
H        2.04075108       1.44833800       0.52812808
H        2.24446606      -0.06308184       1.41578239
18
Frame=1 idx=003809 GeodesicLength=0.07245286105417659 rxn_smarts="[C:1]([C@@:2]1([H:10])[C@:3]([C:4]([H:12])([H:13])[H:14])([H:11])[C@:5]1([C:6]([H:16])([H:17])[H:18])[H:15])([H:7])([H:8])[H:9]>>[C:1]([C@@:2]1([H:10])[C:3][C@:5]1([C:6]([H:16])([H:17])[H:18])[H:15])([H:7])([H:8])[H:9].[C:4]([H:11])([H:12])([H:13])[H:14]"
C       -0.89100689      -1.47402500       0.62806140
C        0.04212529      -1.22490390      -0.53077472
C        0.10529216      -0.01681815      -1.41479380
C       -1.18102465       1.54713907      -0.51501332
C        1.21981994      -0.28584018      -0.45035898
C        1.55815115       0.49945993       0.79261008
H       -1.90598441      -1.67232228       0.27510085
H       -0.93741947      -0.63578206       1.32133017
H       -0.56085212      -2.34652016       1.19563533
H        0.19616756      -2.12488816      -1.12352108
H       -0.65526180       0.95864749      -1.53233705
H       -0.46947927       2.16388409       0.02152543
H       -1.80451642       0.94825834       0.13692466
H       -1.80586875       2.15649970      -1.17032528
H        2.11413930      -0.60106931      -0.98484554
H        0.68229688       0.74256291       1.39243984
H        2.05328478       1.43805862       0.53278727
H        2.24013671      -0.07234094       1.42555474
18
Frame=2 idx=003809 GeodesicLength=0.14477525959778664 rxn_smarts="[C:1]([C@@:2]1([H:10])[C@:3]([C:4]([H:12])([H:13])[H:14])([H:11])[C@:5]1([C:6]([H:16])([H:17])[H:18])[H:15])([H:7])([H:8])[H:9]>>[C:1]([C@@:2]1([H:10])[C:3][C@:5]1([C:6]([H:16])([H:17])[H:18])[H:15])([H:7])([H:8])[H:9].[C:4]([H:11])([H:12])([H:13])[H:14]"
C       -0.88929853      -1.48422973       0.62744387
C        0.04584742      -1.23083514      -0.52882575
C        0.10230075      -0.01348590      -1.39837845
C       -1.18375995       1.55789801      -0.52219014
C        1.22315013      -0.29194752      -0.44557133
C        1.56177412       0.49367261       0.79722345
H       -1.90166956      -1.69009335       0.27154333
H       -0.94374355      -0.64406641       1.31790325
H       -0.55509630      -2.35275132       1.19875717
H        0.20142266      -2.12654936      -1.12732750
H       -0.65836449       0.97349768      -1.55479854
H       -0.47522151       2.19863025      -0.00914845
H       -1.79145315       0.97680345       0.16104322
H       -1.83666026       2.14850579      -1.16762273
H        2.11517432      -0.60567465      -0.98435444
H        0.68407525       0.74469746       1.39121246
H        2.06560495       1.42767465       0.53779513
H        2.23591770      -0.08174652       1.43529545
18
Frame=3 idx=003809 GeodesicLength=0.216954158087864 rxn_smarts="[C:1]([C@@:2]1([H:10])[C@:3]([C:4]([H:12])([H:13])[H:14])([H:11])[C@:5]1([C:6]([H:16])([H:17])[H:18])[H:15])([H:7])([H:8])[H:9]>>[C:1]([C@@:2]1([H:10])[C:3][C@:5]1([C:6]([H:16])([H:17])[H:18])[H:15])([H:7])([H:8])[H:9].[C:4]([H:11])([H:12])([H:13])[H:14]"
C       -0.88764228      -1.49443607       0.62676607
C        0.04955018      -1.23669680      -0.52689676
C        0.09908637      -0.00988624      -1.38146587
C       -1.18664413       1.56863715      -0.52935771
C        1.22643175      -0.29798748      -0.44073284
C        1.56545172       0.48769346       0.80204343
H       -1.89725223      -1.70813221       0.26784896
H       -0.95047310      -0.65229558       1.31420870
H       -0.54930550      -2.35879857       1.20196566
H        0.20649047      -2.12791471      -1.13143266
H       -0.66127266       0.98797706      -1.57705542
H       -0.48181614       2.23346538      -0.04121890
H       -1.77702083       1.00661120       0.18537027
H       -1.86728059       2.13931032      -1.16439727
H        2.11605711      -0.60992139      -0.98409625
H        0.68605625       0.74653824       1.39029154
H        2.07773756       1.41717479       0.54316740
H        2.23184605      -0.09133856       1.44499162
18
Frame=4 idx=003809 GeodesicLength=0.28898006473879656 rxn_smarts="[C:1]([C@@:2]1([H:10])[C@:3]([C:4]([H:12])([H:13])[H:14])([H:11])[C@:5]1([C:6]([H:16])([H:17])[H:18])[H:15])([H:7])([H:8])[H:9]>>[C:1]([C@@:2]1([H:10])[C:3][C@:5]1([C:6]([H:16])([H:17])[H:18])[H:15])([H:7])([H:8])[H:9].[C:4]([H:11])([H:12])([H:13])[H:14]"
C       -0.88604434      -1.50460872       0.62601909
C        0.05322864      -1.24245946      -0.52499682
C        0.09568134      -0.00601657      -1.36406557
C       -1.18968387       1.57933908      -0.53646771
C        1.22967076      -0.30394486      -0.43584763
C        1.56920570       0.48150405       0.80708108
H       -1.89272053      -1.72643887       0.26400176
H       -0.95764534      -0.66042523       1.31020658
H       -0.54347933      -2.36459967       1.20527887
H        0.21137070      -2.12895592      -1.13582744
H       -0.66404322       1.00204780      -1.59909421
H       -0.48934407       2.26833212      -0.07470390
H       -1.76119967       1.03771824       0.20975274
H       -1.89771945       2.12887040      -1.16054465
H        2.11679139      -0.61380989      -0.98405977
H        0.68826972       0.74806073       1.38971127
H        2.08971122       1.40654556       0.54892128
H        2.22795034      -0.10115879       1.45463502
18
Frame=5 idx=003809 GeodesicLength=0.36084351575650264 rxn_smarts="[C:1]([C@@:2]1([H:10])[C@:3]([C:4]([H:12])([H:13])[H:14])([H:11])[C@:5]1([C:6]([H:16])([H:17])[H:18])[H:15])([H:7])([H:8])[H:9]>>[C:1]([C@@:2]1([H:10])[C:3][C@:5]1([C:6]([H:16])([H:17])[H:18])[H:15])([H:7])([H:8])[H:9].[C:4]([H:11])([H:12])([H:13])[H:14]"
C       -0.88451750      -1.51470388       0.62518796
C        0.05687879      -1.24809109      -0.52313736
C        0.09212764      -0.00187242      -1.34619232
C       -1.19287581       1.58999307      -0.54347968
C        1.23287767      -0.30980587      -0.43091904
C        1.57305912       0.47508850       0.81234883
H       -1.88806876      -1.74499442       0.25997604
H       -0.96529966      -0.66840372       1.30585127
H       -0.53763307      -2.37008589       1.20870877
H        0.21606156      -2.12964546      -1.14050324
H       -0.66673304       1.01567888      -1.62091092
H       -0.49788645       2.30315445      -0.10962078
H       -1.74395037       1.07017849       0.23402569
H       -1.92798631       2.11707862      -1.15590802
H        2.11738588      -0.61734415      -0.98423040
H        0.69074444       0.74924504       1.38950381
H        2.10155952       1.39577495       0.55507549
H        2.22425638      -0.11124510       1.46422391
18
Frame=6 idx=003809 GeodesicLength=0.4325451576305826 rxn_smarts="[C:1]([C@@:2]1([H:10])[C@:3]([C:4]([H:12])([H:13])[H:14])([H:11])[C@:5]1([C:6]([H:16])([H:17])[H:18])[H:15])([H:7])([H:8])[H:9]>>[C:1]([C@@:2]1([H:10])[C:3][C@:5]1([C:6]([H:16])([H:17])[H:18])[H:15])([H:7])([H:8])[H:9].[C:4]([H:11])([H:12])([H:13])[H:14]"
C       -0.88305902      -1.52469482       0.62427076
C        0.06049698      -1.25356698      -0.52132465
C        0.08845598       0.00254265      -1.32785391
C       -1.19621056       1.60059002      -0.55036269
C        1.23605879      -0.31555880      -0.42595022
C        1.57703027       0.46842870       0.81785548
H       -1.88327333      -1.76381269       0.25576974
H       -0.97346412      -0.67619375       1.30110343
H       -0.53175603      -2.37519896       1.21228096
H        0.22056564      -2.12996202      -1.14544893
H       -0.66941620       1.02882441      -1.64250759
H       -0.50757024       2.33785539      -0.14597926
H       -1.72529609       1.10400970       0.25799217
H       -1.95800672       2.10398561      -1.15034421
H        2.11784555      -0.62052690      -0.98459577
H        0.69350320       0.75007053       1.38969639
H        2.11331191       1.38484573       0.56164440
H        2.22078398      -0.12163781       1.47375390
18
Frame=7 idx=003809 GeodesicLength=0.5040802217517327 rxn_smarts="[C:1]([C@@:2]1([H:10])[C@:3]([C:4]([H:12])([H:13])[H:14])([H:11])[C@:5]1([C:6]([H:16])([H:17])[H:18])[H:15])([H:7])([H:8])[H:9]>>[C:1]([C@@:2]1([H:10])[C:3][C@:5]1([C:6]([H:16])([H:17])[H:18])[H:15])([H:7])([H:8])[H:9].[C:4]([H:11])([H:12])([H:13])[H:14]"
C       -0.88166696      -1.53455374       0.62326377
C        0.06407977      -1.25886154      -0.51956714
C        0.08470018       0.00722545      -1.30906067
C       -1.19967381       1.61112820      -0.55709387
C        1.23922220      -0.32119424      -0.42094455
C        1.58113537       0.46151017       0.82361058
H       -1.87831243      -1.78289690       0.25138008
H       -0.98215974      -0.68376089       1.29592546
H       -0.52584292      -2.37988271       1.21601526
H        0.22488770      -2.12988509      -1.15065197
H       -0.67216260       1.04143348      -1.66389678
H       -0.51851943       2.37233507      -0.18377070
H       -1.70525778       1.13922937       0.28145820
H       -1.98771659       2.08964616      -1.14370327
H        2.11817803      -0.62336367      -0.98514240
H        0.69656352       0.75052499       1.39031027
H        2.12500046       1.37374046       0.56864153
H        2.21754503      -0.13237459       1.48322619
18
Frame=8 idx=003809 GeodesicLength=0.575451486126917 rxn_smarts="[C:1]([C@@:2]1([H:10])[C@:3]([C:4]([H:12])([H:13])[H:14])([H:11])[C@:5]1([C:6]([H:16])([H:17])[H:18])[H:15])([H:7])([H:8])[H:9]>>[C:1]([C@@:2]1([H:10])[C:3][C@:5]1([C:6]([H:16])([H:17])[H:18])[H:15])([H:7])([H:8])[H:9].[C:4]([H:11])([H:12])([H:13])[H:14]"
C       -0.88033669      -1.54425540       0.62216432
C        0.06762656      -1.26395173      -0.51787192
C        0.08089389       0.01217293      -1.28982195
C       -1.20325375       1.62160331      -0.56365872
C        1.24237663      -0.32670253      -0.41590361
C        1.58538655       0.45431715       0.82962496
H       -1.87316306      -1.80224275       0.24680862
H       -0.99139601      -0.69108025       1.29028553
H       -0.51989277      -2.38408914       1.21992600
H        0.22903381      -2.12939570      -1.15610414
H       -0.67504631       1.05346701      -1.68509245
H       -0.53086622       2.40649477      -0.22300042
H       -1.68384665       1.17586056       0.30421280
H       -2.01704684       2.07411749      -1.13581028
H        2.11839360      -0.62585914      -0.98585418
H        0.69993777       0.75060356       1.39136285
H        2.13666097       1.36243513       0.57608230
H        2.21453852      -0.14349525       1.49265029
18
Frame=9 idx=003809 GeodesicLength=0.64673948339492 rxn_smarts="[C:1]([C@@:2]1([H:10])[C@:3]([C:4]([H:12])([H:13])[H:14])([H:11])[C@:5]1([C:6]([H:16])([H:17])[H:18])[H:15])([H:7])([H:8])[H:9]>>[C:1]([C@@:2]1([H:10])[C:3][C@:5]1([C:6]([H:16])([H:17])[H:18])[H:15])([H:7])([H:8])[H:9].[C:4]([H:11])([H:12])([H:13])[H:14]"
C       -0.87901827      -1.55388307       0.62101684
C        0.07110652      -1.26881184      -0.51622994
C        0.07698578       0.01739666      -1.27009040
C       -1.20692123       1.63215272      -0.57008992
C        1.24547868      -0.33203432      -0.41081291
C        1.58975991       0.44681132       0.83592937
H       -1.86773385      -1.82204550       0.24213569
H       -1.00117681      -0.69824255       1.28418728
H       -0.51376755      -2.38784371       1.22405811
H        0.23299905      -2.12843928      -1.16180229
H       -0.67824753       1.06482922      -1.70613400
H       -0.54458983       2.44038576      -0.26390548
H       -1.66108592       1.21371968       0.32625366
H       -2.04585673       2.05786983      -1.12675502
H        2.11844371      -0.62791715      -0.98671759
H        0.70359070       0.75027035       1.39287328
H        2.14833375       1.35086031       0.58404249
H        2.21169964      -0.15507842       1.50204082
18
Frame=10 idx=003809 GeodesicLength=0.7178355876784217 rxn_smarts="[C:1]([C@@:2]1([H:10])[C@:3]([C:4]([H:12])([H:13])[H:14])([H:11])[C@:5]1([C:6]([H:16])([H:17])[H:18])[H:15])([H:7])([H:8])[H:9]>>[C:1]([C@@:2]1([H:10])[C:3][C@:5]1([C:6]([H:16])([H:17])[H:18])[H:15])([H:7])([H:8])[H:9].[C:4]([H:11])([H:12])([H:13])[H:14]"
C       -0.87776528      -1.56330575       0.61975790
C        0.07455088      -1.27341707      -0.51466782
C        0.07310763       0.02288912      -1.24993421
C       -1.21064778       1.64264381      -0.57633457
C        1.24859509      -0.33721432      -0.40568216
C        1.59430276       0.43901283       0.84252330
H       -1.86208832      -1.84205086       0.23726138
H       -1.01149666      -0.70513994       1.27758748
H       -0.50764420      -2.39105891       1.22834693
H        0.23679659      -2.12702606      -1.16773882
H       -0.68176112       1.07548682      -1.72702576
H       -0.55998210       2.47371991      -0.30628326
H       -1.63691763       1.25307225       0.34722992
H       -2.07416840       2.04051519      -1.11610182
H        2.11840458      -0.62962989      -0.98770291
H        0.70757778       0.74956123       1.39485506
H        2.16005556       1.33905092       0.59249425
H        2.20908062      -0.16710927       1.51141512
18
Frame=11 idx=003809 GeodesicLength=0.7887649856608459 rxn_smarts="[C:1]([C@@:2]1([H:10])[C@:3]([C:4]([H:12])([H:13])[H:14])([H:11])[C@:5]1([C:6]([H:16])([H:17])[H:18])[H:15])([H:7])([H:8])[H:9]>>[C:1]([C@@:2]1([H:10])[C:3][C@:5]1([C:6]([H:16])([H:17])[H:18])[H:15])([H:7])([H:8])[H:9].[C:4]([H:11])([H:12])([H:13])[H:14]"
C       -0.87657425      -1.57250372       0.61837680
C        0.07795571      -1.27773498      -0.51319424
C        0.06929071       0.02865978      -1.22935521
C       -1.21441426       1.65309689      -0.58240781
C        1.25173145      -0.34222439      -0.40050427
C        1.59902037       0.43090889       0.84942234
H       -1.85620990      -1.86222196       0.23217692
H       -1.02233755      -0.71177866       1.27047222
H       -0.50153774      -2.39371764       1.23277364
H        0.24043103      -2.12512064      -1.17391178
H       -0.68567795       1.08538095      -1.74780881
H       -0.57712605       2.50640835      -0.35016227
H       -1.61135091       1.29393351       0.36703883
H       -2.10191387       2.02206611      -1.10370869
H        2.11828616      -0.63098294      -0.98878219
H        0.71189849       0.74848973       1.39730875
H        2.17187478       1.32696859       0.60147006
H        2.20665380      -0.17962788       1.52079572
18
Frame=12 idx=003809 GeodesicLength=0.8595379542132349 rxn_smarts="[C:1]([C@@:2]1([H:10])[C@:3]([C:4]([H:12])([H:13])[H:14])([H:11])[C@:5]1([C:6]([H:16])([H:17])[H:18])[H:15])([H:7])([H:8])[H:9]>>[C:1]([C@@:2]1([H:10])[C:3][C@:5]1([C:6]([H:16])([H:17])[H:18])[H:15])([H:7])([H:8])[H:9].[C:4]([H:11])([H:12])([H:13])[H:14]"
C       -0.87544173      -1.58146089       0.61686313
C        0.08132252      -1.28173760      -0.51181778
C        0.06556760       0.03471448      -1.20835868
C       -1.21819462       1.66352959      -0.58831491
C        1.25489589      -0.34704869      -0.39527159
C        1.60391032       0.42249112       0.85664519
H       -1.85008521      -1.88251999       0.22687471
H       -1.03367894      -0.71817063       1.26283685
H       -0.49546539      -2.39581301       1.23731182
H        0.24391179      -2.12269030      -1.18032253
H       -0.69009980       1.09444599      -1.76851532
H       -0.59609729       2.53833416      -0.39557070
H       -1.58435947       1.33633625       0.38552637
H       -2.12904509       2.00256565      -1.08940885
H        2.11810231      -0.63196212      -0.98992908
H        0.71654604       0.74706992       1.40023889
H        2.18383013       1.31458303       0.61100366
H        2.20438094      -0.19266696       1.53020882
18
Frame=13 idx=003809 GeodesicLength=0.9301676021117151 rxn_smarts="[C:1]([C@@:2]1([H:10])[C@:3]([C:4]([H:12])([H:13])[H:14])([H:11])[C@:5]1([C:6]([H:16])([H:17])[H:18])[H:15])([H:7])([H:8])[H:9]>>[C:1]([C@@:2]1([H:10])[C:3][C@:5]1([C:6]([H:16])([H:17])[H:18])[H:15])([H:7])([H:8])[H:9].[C:4]([H:11])([H:12])([H:13])[H:14]"
C       -0.87436471      -1.59016010       0.61520283
C        0.08465269      -1.28539738      -0.51054793
C        0.06196977       0.04106036      -1.18694881
C       -1.22197265       1.67395230      -0.59407401
C        1.25809569      -0.35167112      -0.38997580
C        1.60896946       0.41375524       0.86421109
H       -1.84370569      -1.90288771       0.22134296
H       -1.04548705      -0.72433084       1.25468316
H       -0.48945502      -2.39734681       1.24192481
H        0.24724808      -2.11970500      -1.18697581
H       -0.69512651       1.10261915      -1.78918245
H       -0.61697348       2.56936143      -0.44252367
H       -1.55591751       1.38031837       0.40254483
H       -2.15549138       1.98204739      -1.07302589
H        2.11786680      -0.63255253      -0.99111683
H        0.72151106       0.74532240       1.40364579
H        2.19595919       1.30186680       0.62112959
H        2.20222129      -0.20625195       1.53968614
18
Frame=14 idx=003809 GeodesicLength=1.000662986043257 rxn_smarts="[C:1]([C@@:2]1([H:10])[C@:3]([C:4]([H:12])([H:13])[H:14])([H:11])[C@:5]1([C:6]([H:16])([H:17])[H:18])[H:15])([H:7])([H:8])[H:9]>>[C:1]([C@@:2]1([H:10])[C:3][C@:5]1([C:6]([H:16])([H:17])[H:18])[H:15])([H:7])([H:8])[H:9].[C:4]([H:11])([H:12])([H:13])[H:14]"
C       -0.87333756      -1.59859817       0.61338420
C        0.08794848      -1.28869366      -0.50939193
C        0.05852442       0.04769537      -1.16513045
C       -1.22571657       1.68438062      -0.59971260
C        1.26133603      -0.35607755      -0.38460618
C        1.61418651       0.40470139       0.87213410
H       -1.83706128      -1.92328415       0.21557421
H       -1.05772691      -0.73029283       1.24601890
H       -0.48352656      -2.39833813       1.24657350
H        0.25045925      -2.11614143      -1.19386450
H       -0.70085189       1.10981611      -1.80985085
H       -0.63990362       2.59933157      -0.49103074
H       -1.52598569       1.42590239       0.41794108
H       -2.18113106       1.96066874      -1.05437659
H        2.11759530      -0.63273888      -0.99231195
H        0.72677724       0.74327363       1.40752342
H        2.20828638       1.28879415       0.63187267
H        2.20012753      -0.22039916       1.54925371
18
Frame=15 idx=003809 GeodesicLength=1.0710327199585008 rxn_smarts="[C:1]([C@@:2]1([H:10])[C@:3]([C:4]([H:12])([H:13])[H:14])([H:11])[C@:5]1([C:6]([H:16])([H:17])[H:18])[H:15])([H:7])([H:8])[H:9]>>[C:1]([C@@:2]1([H:10])[C:3][C@:5]1([C:6]([H:16])([H:17])[H:18])[H:15])([H:7])([H:8])[H:9].[C:4]([H:11])([H:12])([H:13])[H:14]"
C       -0.87235225      -1.60677413       0.61139146
C        0.09121733      -1.29161053      -0.50835602
C        0.05525632       0.05461463      -1.14290404
C       -1.22939697       1.69481700      -0.60524152
C        1.26462058      -0.36025661      -0.37915043
C        1.61954386       0.39533281       0.88043115
H       -1.83014328      -1.94365286       0.20955220
H       -1.07034913      -0.73609274       1.23686070
H       -0.47770599      -2.39881925       1.25120644
H        0.25356652      -2.11198141      -1.20098991
H       -0.70739055       1.11595179      -1.83054698
H       -0.66503534       2.62805673      -0.54108645
H       -1.49449980       1.47314504       0.43152028
H       -2.20582805       1.93859347      -1.03327846
H        2.11730096      -0.63250542      -0.99348226
H        0.73232400       0.74094609       1.41187163
H        2.22082074       1.27534925       0.64326094
H        2.19805105      -0.23511385       1.55894127
18
Frame=16 idx=003809 GeodesicLength=1.1412945662013303 rxn_smarts="[C:1]([C@@:2]1([H:10])[C@:3]([C:4]([H:12])([H:13])[H:14])([H:11])[C@:5]1([C:6]([H:16])([H:17])[H:18])[H:15])([H:7])([H:8])[H:9]>>[C:1]([C@@:2]1([H:10])[C:3][C@:5]1([C:6]([H:16])([H:17])[H:18])[H:15])([H:7])([H:8])[H:9].[C:4]([H:11])([H:12])([H:13])[H:14]"
C       -0.87141539      -1.61469096       0.60919456
C        0.09447083      -1.29413492      -0.50745007
C        0.05220201       0.06180944      -1.12028564
C       -1.23297195       1.70525987      -0.61069171
C        1.26795950      -0.36419285      -0.37359104
C        1.62501906       0.38566041       0.88912545
H       -1.82295743      -1.96394616       0.20323620
H       -1.08332544      -0.74177089       1.22721364
H       -0.47204035      -2.39882801       1.25576147
H        0.25660299      -2.10721047      -1.20834899
H       -0.71487837       1.12090079      -1.85131301
H       -0.69257966       2.65533084      -0.59272562
H       -1.46129286       1.52213035       0.44308484
H       -2.22942571       1.91600993      -1.00944027
H        2.11701160      -0.63182958      -0.99458093
H        0.73811944       0.73836202       1.41669177
H        2.23356308       1.26152810       0.65533102
H        2.19593866      -0.25038789       1.56878833
