13
Frame=0 idx=000695 GeodesicLength=0.0 rxn_smarts="[C:1]([c:2]1[c:3]([H:10])[n:4]([H:11])[c:5]([H:12])[c:6]1[H:13])([H:7])([H:8])[H:9]>>[C:1]([C:2]1=[C:6]([H:13])[C:5]([H:12])=[N:4][C:3]1([H:10])[H:11])([H:7])([H:8])[H:9]"
C        1.86051421      -0.01413878       0.08498838
C        0.37014724       0.02552751      -0.02947486
C       -0.45305195      -0.99780747      -0.51458955
N       -1.83409247      -0.57348964      -0.49645594
C       -1.78993151       0.65010507       0.05780565
C       -0.48814814       1.06422645       0.31831129
H        2.17904919       0.01957879       1.12904410
H        2.26585601      -0.92478101      -0.35680111
H        2.31544654       0.83760003      -0.42360702
H       -0.18599918      -1.86326929      -1.10488919
H       -1.33145681      -1.41008429       0.31368230
H       -2.71060134       1.17302497       0.27503846
H       -0.19773181       2.01350763       0.74694749
13
Frame=1 idx=000695 GeodesicLength=0.04027252906470077 rxn_smarts="[C:1]([c:2]1[c:3]([H:10])[n:4]([H:11])[c:5]([H:12])[c:6]1[H:13])([H:7])([H:8])[H:9]>>[C:1]([C:2]1=[C:6]([H:13])[C:5]([H:12])=[N:4][C:3]1([H:10])[H:11])([H:7])([H:8])[H:9]"
C        1.86067903      -0.01441380       0.08810097
C        0.37034744       0.02490338      -0.02338501
C       -0.45358872      -0.99665610      -0.51593723
N       -1.83104475      -0.56996184      -0.49557794
C       -1.78965065       0.65025121       0.06247679
C       -0.48637722       1.06441247       0.32349103
H        2.18258604       0.05385128       1.12937638
H        2.26485591      -0.94005402      -0.32265064
H        2.31611115       0.81815740      -0.45105228
H       -0.18506441      -1.84522326      -1.12987793
H       -1.34235421      -1.43184300       0.30397568
H       -2.71076684       1.17012436       0.28541434
H       -0.19573277       2.01645192       0.74564586
13
Frame=2 idx=000695 GeodesicLength=0.080550317544004 rxn_smarts="[C:1]([c:2]1[c:3]([H:10])[n:4]([H:11])[c:5]([H:12])[c:6]1[H:13])([H:7])([H:8])[H:9]>>[C:1]([C:2]1=[C:6]([H:13])[C:5]([H:12])=[N:4][C:3]1([H:10])[H:11])([H:7])([H:8])[H:9]"
C        1.86085652      -0.01470553       0.09119931
C        0.37055348       0.02429561      -0.01719428
C       -0.45405419      -0.99555636      -0.51713535
N       -1.82794520      -0.56654841      -0.49445228
C       -1.78932882       0.65044244       0.06703130
C       -0.48456800       1.06476239       0.32840262
H        2.18629727       0.08794777       1.12849343
H        2.26365519      -0.95431190      -0.28818469
H        2.31662027       0.79768177      -0.47781885
H       -0.18397775      -1.82669063      -1.15409970
H       -1.35347763      -1.45379996       0.29348691
H       -2.71088927       1.16708773       0.29590663
H       -0.19374189       2.01939507       0.74436496
13
Frame=3 idx=000695 GeodesicLength=0.12091174611412513 rxn_smarts="[C:1]([c:2]1[c:3]([H:10])[n:4]([H:11])[c:5]([H:12])[c:6]1[H:13])([H:7])([H:8])[H:9]>>[C:1]([C:2]1=[C:6]([H:13])[C:5]([H:12])=[N:4][C:3]1([H:10])[H:11])([H:7])([H:8])[H:9]"
C        1.86104552      -0.01501666       0.09430118
C        0.37077143       0.02376151      -0.01104410
C       -0.45445435      -0.99452072      -0.51823195
N       -1.82481210      -0.56328502      -0.49305290
C       -1.78897709       0.65070501       0.07144452
C       -0.48271748       1.06535182       0.33292932
H        2.19006231       0.12175285       1.12649630
H        2.26227313      -0.96755986      -0.25347203
H        2.31707203       0.77624218      -0.50377487
H       -0.18275328      -1.80776996      -1.17756099
H       -1.36479068      -1.47595442       0.28222003
H       -2.71097530       1.16384826       0.30673243
H       -0.19174414       2.02244502       0.74301305
13
Frame=4 idx=000695 GeodesicLength=0.16119405980553966 rxn_smarts="[C:1]([c:2]1[c:3]([H:10])[n:4]([H:11])[c:5]([H:12])[c:6]1[H:13])([H:7])([H:8])[H:9]>>[C:1]([C:2]1=[C:6]([H:13])[C:5]([H:12])=[N:4][C:3]1([H:10])[H:11])([H:7])([H:8])[H:9]"
C        1.86120163      -0.01553050       0.09782518
C        0.37097475       0.02320763      -0.00471890
C       -0.45479612      -0.99336196      -0.51943388
N       -1.82169419      -0.56014511      -0.49109880
C       -1.78865516       0.65070469       0.07657328
C       -0.48086945       1.06587897       0.33771564
H        2.19364341       0.15462243       1.12391483
H        2.26069748      -0.97982408      -0.21849114
H        2.31752544       0.75394588      -0.52802219
H       -0.18144337      -1.78759440      -1.20118679
H       -1.37612113      -1.49863473       0.26972472
H       -2.71106331       1.15988656       0.31910530
H       -0.18939998       2.02684461       0.73809276
13
Frame=5 idx=000695 GeodesicLength=0.20129759222711663 rxn_smarts="[C:1]([c:2]1[c:3]([H:10])[n:4]([H:11])[c:5]([H:12])[c:6]1[H:13])([H:7])([H:8])[H:9]>>[C:1]([C:2]1=[C:6]([H:13])[C:5]([H:12])=[N:4][C:3]1([H:10])[H:11])([H:7])([H:8])[H:9]"
C        1.86139428      -0.01590792       0.10099476
C        0.37122058       0.02289891       0.00118959
C       -0.45507037      -0.99226264      -0.52036201
N       -1.81851835      -0.55712402      -0.48898460
C       -1.78825663       0.65100314       0.08081697
C       -0.47893890       1.06684603       0.34133820
H        2.19738573       0.18766243       1.11970259
H        2.25893892      -0.99097515      -0.18322565
H        2.31794642       0.73051900      -0.55205253
H       -0.18002459      -1.76765017      -1.22307466
H       -1.38767141      -1.52098779       0.25669710
H       -2.71104087       1.15595449       0.33093569
H       -0.18736481       2.03002371       0.73602454
13
Frame=6 idx=000695 GeodesicLength=0.24149605148533676 rxn_smarts="[C:1]([c:2]1[c:3]([H:10])[n:4]([H:11])[c:5]([H:12])[c:6]1[H:13])([H:7])([H:8])[H:9]>>[C:1]([C:2]1=[C:6]([H:13])[C:5]([H:12])=[N:4][C:3]1([H:10])[H:11])([H:7])([H:8])[H:9]"
C        1.86158594      -0.01631809       0.10423628
C        0.37148400       0.02274200       0.00690134
C       -0.45528910      -0.99117600      -0.52128956
N       -1.81533583      -0.55428277      -0.48650202
C       -1.78784094       0.65134518       0.08503180
C       -0.47696160       1.06810771       0.34446871
H        2.20103276       0.22031907       1.11453985
H        2.25697767      -1.00117390      -0.14765780
H        2.31845057       0.70617276      -0.57509199
H       -0.17854339      -1.74732677      -1.24433022
H       -1.39933108      -1.54354818       0.24271857
H       -2.71094135       1.15164429       0.34352129
H       -0.18528764       2.03349471       0.73345374
13
Frame=7 idx=000695 GeodesicLength=0.2817193520768895 rxn_smarts="[C:1]([c:2]1[c:3]([H:10])[n:4]([H:11])[c:5]([H:12])[c:6]1[H:13])([H:7])([H:8])[H:9]>>[C:1]([C:2]1=[C:6]([H:13])[C:5]([H:12])=[N:4][C:3]1([H:10])[H:11])([H:7])([H:8])[H:9]"
C        1.86176714      -0.01677915       0.10759795
C        0.37176104       0.02273784       0.01243136
C       -0.45544831      -0.99004817      -0.52225030
N       -1.81214436      -0.55159308      -0.48363256
C       -1.78741331       0.65169936       0.08929279
C       -0.47494412       1.06963288       0.34712114
H        2.20456038       0.25260386       1.10844607
H        2.25479161      -1.01043020      -0.11167724
H        2.31905107       0.68083690      -0.59708979
H       -0.17700827      -1.72652267      -1.26502866
H       -1.41108643      -1.56629608       0.22764591
H       -2.71073884       1.14683288       0.35709693
H       -0.18314760       2.03732563       0.73004640
13
Frame=8 idx=000695 GeodesicLength=0.32195781218417363 rxn_smarts="[C:1]([c:2]1[c:3]([H:10])[n:4]([H:11])[c:5]([H:12])[c:6]1[H:13])([H:7])([H:8])[H:9]>>[C:1]([C:2]1=[C:6]([H:13])[C:5]([H:12])=[N:4][C:3]1([H:10])[H:11])([H:7])([H:8])[H:9]"
C        1.86194922      -0.01725204       0.11100770
C        0.37205954       0.02291338       0.01771694
C       -0.45555630      -0.98892280      -0.52316878
N       -1.80895268      -0.54910461      -0.48031675
C       -1.78696949       0.65209358       0.09350488
C       -0.47288358       1.07143822       0.34924076
H        2.20801156       0.28446814       1.10137689
H        2.25239525      -1.01868355      -0.07545166
H        2.31974399       0.65462601      -0.61805577
H       -0.17547259      -1.70538653      -1.28502145
H       -1.42293206      -1.58918328       0.21156371
H       -2.71040413       1.14166137       0.37132101
H       -0.18098872       2.04133211       0.72628252
13
Frame=9 idx=000695 GeodesicLength=0.36220395534248717 rxn_smarts="[C:1]([c:2]1[c:3]([H:10])[n:4]([H:11])[c:5]([H:12])[c:6]1[H:13])([H:7])([H:8])[H:9]>>[C:1]([C:2]1=[C:6]([H:13])[C:5]([H:12])=[N:4][C:3]1([H:10])[H:11])([H:7])([H:8])[H:9]"
C        1.86213311      -0.01772227       0.11444550
C        0.37238076       0.02326880       0.02275916
C       -0.45561301      -0.98780945      -0.52401901
N       -1.80575871      -0.54683796      -0.47650668
C       -1.78650794       0.65252255       0.09767898
C       -0.47078427       1.07350378       0.35085725
H        2.21139414       0.31589079       1.09332224
H        2.24979968      -1.02590725      -0.03903600
H        2.32052014       0.62758674      -0.63799072
H       -0.17395817      -1.68396351      -1.30427901
H       -1.43487482      -1.61219725       0.19444179
H       -2.70991168       1.13619085       0.38607493
H       -0.17881924       2.04547417       0.72225157
13
Frame=10 idx=000695 GeodesicLength=0.4024594258034216 rxn_smarts="[C:1]([c:2]1[c:3]([H:10])[n:4]([H:11])[c:5]([H:12])[c:6]1[H:13])([H:7])([H:8])[H:9]>>[C:1]([C:2]1=[C:6]([H:13])[C:5]([H:12])=[N:4][C:3]1([H:10])[H:11])([H:7])([H:8])[H:9]"
C        1.86231817      -0.01818816       0.11792654
C        0.37272876       0.02383131       0.02750313
C       -0.45562329      -0.98670520      -0.52481369
N       -1.80256900      -0.54481218      -0.47216794
C       -1.78603155       0.65298711       0.10181344
C       -0.46864489       1.07585253       0.35190729
H        2.21468164       0.34685371       1.08432322
H        2.24698860      -1.03210762      -0.00241499
H        2.32142784       0.59973679      -0.65684251
H       -0.17250615      -1.66227593      -1.32282795
H       -1.44690369      -1.63532185       0.17622511
H       -2.70922737       1.13036905       0.40147828
H       -0.17663908       2.04978044       0.71789007
13
Frame=11 idx=000695 GeodesicLength=0.44272214502517815 rxn_smarts="[C:1]([c:2]1[c:3]([H:10])[n:4]([H:11])[c:5]([H:12])[c:6]1[H:13])([H:7])([H:8])[H:9]>>[C:1]([C:2]1=[C:6]([H:13])[C:5]([H:12])=[N:4][C:3]1([H:10])[H:11])([H:7])([H:8])[H:9]"
C        1.86250875      -0.01862862       0.12141675
C        0.37310744       0.02460517       0.03193742
C       -0.45558807      -0.98563588      -0.52551073
N       -1.79938096      -0.54305902      -0.46724919
C       -1.78553781       0.65349587       0.10587898
C       -0.46646952       1.07847705       0.35239314
H        2.21789522       0.37734603       1.07436119
H        2.24397841      -1.03725695       0.03433803
H        2.32245593       0.57113800      -0.67462822
H       -0.17114763      -1.64040466      -1.34061591
H       -1.45903007      -1.65853451       0.15690648
H       -2.70832350       1.12428285       0.41736134
H       -0.17446817       2.05417467       0.71341072
13
Frame=12 idx=000695 GeodesicLength=0.4829906451231636 rxn_smarts="[C:1]([c:2]1[c:3]([H:10])[n:4]([H:11])[c:5]([H:12])[c:6]1[H:13])([H:7])([H:8])[H:9]>>[C:1]([C:2]1=[C:6]([H:13])[C:5]([H:12])=[N:4][C:3]1([H:10])[H:11])([H:7])([H:8])[H:9]"
C        1.86272034      -0.01899805       0.12482492
C        0.37352400       0.02557607       0.03608166
C       -0.45550850      -0.98466379      -0.52600546
N       -1.79618845      -0.54163282      -0.46167801
C       -1.78501801       0.65406985       0.10979143
C       -0.46426136       1.08134088       0.35237034
H        2.22111368       0.40736758       1.06335157
H        2.24082616      -1.04128970       0.07104863
H        2.32353819       0.54191004      -0.69143745
H       -0.16991800      -1.61850623      -1.35750421
H       -1.47128484      -1.68180608       0.13655475
H       -2.70719633       1.11817879       0.43322260
H       -0.17234688       2.05845347       0.70937923
13
Frame=13 idx=000695 GeodesicLength=0.5232745570671209 rxn_smarts="[C:1]([c:2]1[c:3]([H:10])[n:4]([H:11])[c:5]([H:12])[c:6]1[H:13])([H:7])([H:8])[H:9]>>[C:1]([C:2]1=[C:6]([H:13])[C:5]([H:12])=[N:4][C:3]1([H:10])[H:11])([H:7])([H:8])[H:9]"
C        1.86296083      -0.01927556       0.12812072
C        0.37398383       0.02673710       0.03994556
C       -0.45538581      -0.98382251      -0.52625426
N       -1.79298724      -0.54057405      -0.45539185
C       -1.78446790       0.65471431       0.11352313
C       -0.46202100       1.08442641       0.35186776
H        2.22436614       0.43692217       1.05127859
H        2.23756338      -1.04418420       0.10765304
H        2.32465036       0.51211657      -0.70730092
H       -0.16885366      -1.59665498      -1.37346779
H       -1.48368431      -1.70512726       0.11515258
H       -2.70584025       1.11216512       0.44887958
H       -0.17028437       2.06255687       0.70599386
13
Frame=14 idx=000695 GeodesicLength=0.5636283915956724 rxn_smarts="[C:1]([c:2]1[c:3]([H:10])[n:4]([H:11])[c:5]([H:12])[c:6]1[H:13])([H:7])([H:8])[H:9]>>[C:1]([C:2]1=[C:6]([H:13])[C:5]([H:12])=[N:4][C:3]1([H:10])[H:11])([H:7])([H:8])[H:9]"
C        1.86322946      -0.01946979       0.13133545
C        0.37448871       0.02808779       0.04353438
C       -0.45521585      -0.98312462      -0.52628058
N       -1.78977184      -0.53991270      -0.44833586
C       -1.78389182       0.65542126       0.11712545
C       -0.45975299       1.08775063       0.35089223
H        2.22762690       0.46603267       1.03819504
H        2.23418397      -1.04598047       0.14421406
H        2.32582449       0.48175100      -0.72220532
H       -0.16797774      -1.57483933      -1.38861169
H       -1.49623499      -1.72852424       0.09257954
H       -2.70424038       1.10621278       0.46448512
H       -0.16826792       2.06659502       0.70307217
13
Frame=15 idx=000695 GeodesicLength=0.6038567636110809 rxn_smarts="[C:1]([c:2]1[c:3]([H:10])[n:4]([H:11])[c:5]([H:12])[c:6]1[H:13])([H:7])([H:8])[H:9]>>[C:1]([C:2]1=[C:6]([H:13])[C:5]([H:12])=[N:4][C:3]1([H:10])[H:11])([H:7])([H:8])[H:9]"
C        1.86353808      -0.01956591       0.13441849
C        0.37504774       0.02962157       0.04683732
C       -0.45499212      -0.98256001      -0.52598826
N       -1.78653549      -0.53968370      -0.44035486
C       -1.78329313       0.65617104       0.12055347
C       -0.45747701       1.09120424       0.34950138
H        2.23090981       0.49449719       1.02406481
H        2.23078257      -1.04656354       0.18047693
H        2.32700472       0.45097268      -0.73603518
H       -0.16734218      -1.55308626      -1.40279296
H       -1.50889482      -1.75187607       0.06888785
H       -2.70242122       1.10048067       0.47968343
H       -0.16632694       2.07038809       0.70074758
13
Frame=16 idx=000695 GeodesicLength=0.6439954850082311 rxn_smarts="[C:1]([c:2]1[c:3]([H:10])[n:4]([H:11])[c:5]([H:12])[c:6]1[H:13])([H:7])([H:8])[H:9]>>[C:1]([C:2]1=[C:6]([H:13])[C:5]([H:12])=[N:4][C:3]1([H:10])[H:11])([H:7])([H:8])[H:9]"
C        1.86390216      -0.01953038       0.13735144
C        0.37566811       0.03126472       0.04998463
C       -0.45474044      -0.98217329      -0.52528800
N       -1.78328082      -0.53997952      -0.43127629
C       -1.78264091       0.65690464       0.12382795
C       -0.45515938       1.09465432       0.34793305
H        2.23429740       0.52225241       1.00896619
H        2.22741445      -1.04589604       0.21623375
H        2.32808608       0.42001500      -0.74880094
H       -0.16705575      -1.53135970      -1.41600344
H       -1.52170846      -1.77521557       0.04403242
H       -2.70039915       1.09515552       0.49406239
H       -0.16438329       2.07390788       0.69897687
