10
Frame=0 idx=003165 GeodesicLength=0.0 rxn_smarts="[N:1]([C@@:2]([C:3]#[C:4][H:10])([C:5]#[N:6])[H:9])([H:7])[H:8]>>[N+:1]([C-:2]([C:3]#[C:4][H:10])[C:5]#[N:6])([H:7])([H:8])[H:9]"
N       -1.17883544      -0.75782570       0.32251187
C       -0.18054465       0.44804805       0.10967768
C        1.17395706       0.05776080       0.18446660
C        2.31271792      -0.31042022       0.29621970
C       -0.66235907       1.35844263      -0.85652872
N       -1.12692365       2.09640106      -1.61132079
H       -1.97028201      -0.72240492      -0.30437559
H       -0.69416525      -1.64401655       0.34743574
H       -1.00096300       0.08882793       1.11530453
H        3.32739808      -0.61481308       0.39660899
10
Frame=1 idx=003165 GeodesicLength=0.043256973206733045 rxn_smarts="[N:1]([C@@:2]([C:3]#[C:4][H:10])([C:5]#[N:6])[H:9])([H:7])[H:8]>>[N+:1]([C-:2]([C:3]#[C:4][H:10])[C:5]#[N:6])([H:7])([H:8])[H:9]"
N       -1.18045348      -0.75476825       0.31988565
C       -0.18431014       0.44269116       0.10972309
C        1.17189783       0.05472374       0.18337704
C        2.30990565      -0.31736224       0.28960027
C       -0.66070084       1.36493762      -0.84929049
N       -1.12385149       2.10908295      -1.59873171
H       -1.94130533      -0.75110865      -0.34520418
H       -0.69717249      -1.63909309       0.39505591
H       -1.02134483       0.10667145       1.11570017
H        3.32733513      -0.61577468       0.37988426
10
Frame=2 idx=003165 GeodesicLength=0.08654718296774094 rxn_smarts="[N:1]([C@@:2]([C:3]#[C:4][H:10])([C:5]#[N:6])[H:9])([H:7])[H:8]>>[N+:1]([C-:2]([C:3]#[C:4][H:10])[C:5]#[N:6])([H:7])([H:8])[H:9]"
N       -1.18207231      -0.75199238       0.31683854
C       -0.18833762       0.43783557       0.11051690
C        1.16964403       0.05210676       0.18316608
C        2.30708984      -0.32320793       0.28439307
C       -0.65926350       1.37121980      -0.84202035
N       -1.12038494       2.12146865      -1.58661799
H       -1.90943722      -0.78099524      -0.38471950
H       -0.70161599      -1.63252145       0.44166712
H       -1.04233643       0.12414420       1.11564397
H        3.32671413      -0.61805798       0.36113216
10
Frame=3 idx=003165 GeodesicLength=0.12986602733054076 rxn_smarts="[N:1]([C@@:2]([C:3]#[C:4][H:10])([C:5]#[N:6])[H:9])([H:7])[H:8]>>[N+:1]([C-:2]([C:3]#[C:4][H:10])[C:5]#[N:6])([H:7])([H:8])[H:9]"
N       -1.18303373      -0.74914816       0.31367222
C       -0.19209138       0.43316798       0.11030884
C        1.16758529       0.04908282       0.17895373
C        2.30457660      -0.32921187       0.27338032
C       -0.65913498       1.37705277      -0.83520291
N       -1.11889244       2.13454803      -1.57305373
H       -1.87582090      -0.81112971      -0.42043811
H       -0.70681323      -1.62420674       0.48579105
H       -1.06122831       0.14129759       1.11527178
H        3.32485308      -0.62145270       0.35131681
10
Frame=4 idx=003165 GeodesicLength=0.17320210817415643 rxn_smarts="[N:1]([C@@:2]([C:3]#[C:4][H:10])([C:5]#[N:6])[H:9])([H:7])[H:8]>>[N+:1]([C-:2]([C:3]#[C:4][H:10])[C:5]#[N:6])([H:7])([H:8])[H:9]"
N       -1.18411951      -0.74671121       0.30975724
C       -0.19649090       0.42920502       0.11206070
C        1.16498371       0.04736207       0.17920815
C        2.30170541      -0.33274312       0.26915696
C       -0.65845405       1.38259209      -0.82794433
N       -1.11542448       2.14591130      -1.56134757
H       -1.83878271      -0.84221177      -0.45556668
H       -0.71332898      -1.61449473       0.52862682
H       -1.08259725       0.15797578       1.11431338
H        3.32250876      -0.62688543       0.33173534
10
Frame=5 idx=003165 GeodesicLength=0.21668942705710187 rxn_smarts="[N:1]([C@@:2]([C:3]#[C:4][H:10])([C:5]#[N:6])[H:9])([H:7])[H:8]>>[N+:1]([C-:2]([C:3]#[C:4][H:10])[C:5]#[N:6])([H:7])([H:8])[H:9]"
N       -1.18491894      -0.74455562       0.30545447
C       -0.20101111       0.42566650       0.11413443
C        1.16236151       0.04621617       0.17975854
C        2.29895354      -0.33541068       0.26463565
C       -0.65815539       1.38772681      -0.82108130
N       -1.11217339       2.15729134      -1.54966285
H       -1.79946302      -0.87382757      -0.48821429
H       -0.72080088      -1.60360585       0.56960200
H       -1.10412441       0.17428510       1.11287666
H        3.31933208      -0.63378620       0.31249668
10
Frame=6 idx=003165 GeodesicLength=0.2602038407480165 rxn_smarts="[N:1]([C@@:2]([C:3]#[C:4][H:10])([C:5]#[N:6])[H:9])([H:7])[H:8]>>[N+:1]([C-:2]([C:3]#[C:4][H:10])[C:5]#[N:6])([H:7])([H:8])[H:9]"
N       -1.18557025      -0.74261971       0.30073871
C       -0.20560622       0.42234697       0.11656783
C        1.15968547       0.04523914       0.18057774
C        2.29624967      -0.33755356       0.26033793
C       -0.65799527       1.39244729      -0.81433692
N       -1.10879595       2.16820166      -1.53820000
H       -1.75847061      -0.90531262      -0.51807416
H       -0.72944220      -1.59175085       0.60828194
H       -1.12577723       0.19011743       1.11099790
H        3.31572259      -0.64111576       0.29310903
10
Frame=7 idx=003165 GeodesicLength=0.3037364802001749 rxn_smarts="[N:1]([C@@:2]([C:3]#[C:4][H:10])([C:5]#[N:6])[H:9])([H:7])[H:8]>>[N+:1]([C-:2]([C:3]#[C:4][H:10])[C:5]#[N:6])([H:7])([H:8])[H:9]"
N       -1.18611780      -0.74092974       0.29573450
C       -0.21012756       0.41910455       0.11903602
C        1.15710914       0.04409263       0.18071491
C        2.29378511      -0.33952216       0.25509830
C       -0.65808493       1.39693283      -0.80778590
N       -1.10566561       2.17891236      -1.52691637
H       -1.71674694      -0.93622051      -0.54476863
H       -0.73921330      -1.57933346       0.64442592
H       -1.14695662       0.20535430       1.10894548
H        3.31201850      -0.64839080       0.27551577
10
Frame=8 idx=003165 GeodesicLength=0.34752284948008594 rxn_smarts="[N:1]([C@@:2]([C:3]#[C:4][H:10])([C:5]#[N:6])[H:9])([H:7])[H:8]>>[N+:1]([C-:2]([C:3]#[C:4][H:10])[C:5]#[N:6])([H:7])([H:8])[H:9]"
N       -1.18627735      -0.73949218       0.29044809
C       -0.21463599       0.41591681       0.12110427
C        1.15448864       0.04290133       0.18005441
C        2.29130412      -0.34127917       0.24884466
C       -0.65860077       1.40069382      -0.80222448
N       -1.10297015       2.19036912      -1.51478970
H       -1.67417343      -0.96717384      -0.56820196
H       -0.74948862      -1.56634990       0.67840074
H       -1.16755845       0.22054194       1.10625797
H        3.30791200      -0.65612792       0.26010601
10
Frame=9 idx=003165 GeodesicLength=0.39120021756964996 rxn_smarts="[N:1]([C@@:2]([C:3]#[C:4][H:10])([C:5]#[N:6])[H:9])([H:7])[H:8]>>[N+:1]([C-:2]([C:3]#[C:4][H:10])[C:5]#[N:6])([H:7])([H:8])[H:9]"
N       -1.18630858      -0.73828870       0.28458331
C       -0.21934574       0.41298205       0.12425968
C        1.15185293       0.04251529       0.18166989
C        2.28894851      -0.34190156       0.24454828
C       -0.65874025       1.40422967      -0.79601307
N       -1.09934302       2.20005865      -1.50389835
H       -1.62994849      -0.99729521      -0.58953041
H       -0.76088938      -1.55269227       0.71020064
H       -1.18940451       0.23493259       1.10312368
H        3.30317854      -0.66454052       0.24105636
10
Frame=10 idx=003165 GeodesicLength=0.43503679133120426 rxn_smarts="[N:1]([C@@:2]([C:3]#[C:4][H:10])([C:5]#[N:6])[H:9])([H:7])[H:8]>>[N+:1]([C-:2]([C:3]#[C:4][H:10])[C:5]#[N:6])([H:7])([H:8])[H:9]"
N       -1.18599021      -0.73740814       0.27848784
C       -0.22400551       0.41012911       0.12723094
C        1.14919337       0.04222947       0.18298188
C        2.28647915      -0.34258945       0.23900490
C       -0.65912911       1.40744542      -0.79041194
N       -1.09591226       2.21015656      -1.49269208
H       -1.58528074      -1.02719970      -0.60780707
H       -0.77275469      -1.53892289       0.73983294
H       -1.21070175       0.24916826       1.09951947
H        3.29810174      -0.67300863       0.22385314
10
Frame=11 idx=003165 GeodesicLength=0.4788939509450872 rxn_smarts="[N:1]([C@@:2]([C:3]#[C:4][H:10])([C:5]#[N:6])[H:9])([H:7])[H:8]>>[N+:1]([C-:2]([C:3]#[C:4][H:10])[C:5]#[N:6])([H:7])([H:8])[H:9]"
N       -1.18546246      -0.73677086       0.27199070
C       -0.22866384       0.40729457       0.13054645
C        1.14663726       0.04210761       0.18487092
C        2.28427718      -0.34255421       0.23432562
C       -0.65941392       1.41047679      -0.78460337
N       -1.09228824       2.21935367      -1.48212450
H       -1.54022623      -1.05603784      -0.62357790
H       -0.78546042      -1.52496867       0.76725978
H       -1.23218093       0.26281019       1.09559186
H        3.29278160      -0.68171126       0.20572045
10
Frame=12 idx=003165 GeodesicLength=0.5228326767905136 rxn_smarts="[N:1]([C@@:2]([C:3]#[C:4][H:10])([C:5]#[N:6])[H:9])([H:7])[H:8]>>[N+:1]([C-:2]([C:3]#[C:4][H:10])[C:5]#[N:6])([H:7])([H:8])[H:9]"
N       -1.18473232      -0.73630550       0.26528706
C       -0.23321178       0.40436131       0.13355440
C        1.14421001       0.04177970       0.18588344
C        2.28222871      -0.34257339       0.22854417
C       -0.65991939       1.41324512      -0.77909813
N       -1.08902034       2.22850863      -1.47128781
H       -1.49556549      -1.08404119      -0.63651257
H       -0.79861541      -1.51098433       0.79245289
H       -1.25297331       0.27617526       1.09142336
H        3.28759933      -0.69016561       0.18975321
10
Frame=13 idx=003165 GeodesicLength=0.5669361561815808 rxn_smarts="[N:1]([C@@:2]([C:3]#[C:4][H:10])([C:5]#[N:6])[H:9])([H:7])[H:8]>>[N+:1]([C-:2]([C:3]#[C:4][H:10])[C:5]#[N:6])([H:7])([H:8])[H:9]"
N       -1.18375504      -0.73619512       0.25822888
C       -0.23780713       0.40147411       0.13684865
C        1.14185156       0.04181189       0.18800756
C        2.28031257      -0.34209398       0.22372002
C       -0.66029921       1.41576263      -0.77381404
N       -1.08537318       2.23742412      -1.46080014
H       -1.45042996      -1.11158696      -0.64722041
H       -0.81242760      -1.49701386       0.81598186
H       -1.27410364       0.28923823       1.08672637
H        3.28203165      -0.69882106       0.17232125
10
Frame=14 idx=003165 GeodesicLength=0.6109798588174017 rxn_smarts="[N:1]([C@@:2]([C:3]#[C:4][H:10])([C:5]#[N:6])[H:9])([H:7])[H:8]>>[N+:1]([C-:2]([C:3]#[C:4][H:10])[C:5]#[N:6])([H:7])([H:8])[H:9]"
N       -1.18247222      -0.73637540       0.25086235
C       -0.24236849       0.39860126       0.14041508
C        1.13961406       0.04227128       0.19090117
C        2.27854879      -0.34107112       0.21853202
C       -0.66050342       1.41809157      -0.76840519
N       -1.08137743       2.24572697      -1.45066375
H       -1.40495319      -1.13833526      -0.65567642
H       -0.82690140      -1.48303968       0.83776614
H       -1.29539480       0.30178006       1.08163850
H        3.27580809      -0.70764968       0.15463009
10
Frame=15 idx=003165 GeodesicLength=0.6551036150959034 rxn_smarts="[N:1]([C@@:2]([C:3]#[C:4][H:10])([C:5]#[N:6])[H:9])([H:7])[H:8]>>[N+:1]([C-:2]([C:3]#[C:4][H:10])[C:5]#[N:6])([H:7])([H:8])[H:9]"
N       -1.18074965      -0.73690755       0.24322532
C       -0.24693101       0.39573412       0.14399122
C        1.13737637       0.04308933       0.19439990
C        2.27664930      -0.33964149       0.21332059
C       -0.66069434       1.42012282      -0.76335251
N       -1.07716981       2.25410950      -1.44042101
H       -1.35918901      -1.16470660      -0.66178615
H       -0.84170477      -1.46915681       0.85797001
H       -1.31665822       0.31411661       1.07591486
H        3.26907113      -0.71675994       0.13673776
10
Frame=16 idx=003165 GeodesicLength=0.6993341601750072 rxn_smarts="[N:1]([C@@:2]([C:3]#[C:4][H:10])([C:5]#[N:6])[H:9])([H:7])[H:8]>>[N+:1]([C-:2]([C:3]#[C:4][H:10])[C:5]#[N:6])([H:7])([H:8])[H:9]"
N       -1.17868225      -0.73762167       0.23526460
C       -0.25145562       0.39283202       0.14774539
C        1.13529115       0.04410351       0.19842101
C        2.27506248      -0.33758181       0.20856972
C       -0.66084924       1.42205926      -0.75807012
N       -1.07294090       2.26175165      -1.43059365
H       -1.31337902      -1.19005921      -0.66584180
H       -0.85701154      -1.45533134       0.87639664
H       -1.33790868       0.32606500       1.06982688
H        3.26187362      -0.72621741       0.11828132
