16
Frame=0 idx=001875 GeodesicLength=0.0 rxn_smarts="[C:1]([C@@:2]1([H:10])[C:3]([H:11])([H:12])[C@:4]1([C:5]([O:6][H:16])([H:14])[H:15])[H:13])([H:7])([H:8])[H:9]>>[C:1]([C@@:2]([C:3]([O:6][H:16])([H:11])[H:12])([C:4](=[C:5]([H:14])[H:15])[H:13])[H:10])([H:7])([H:8])[H:9]"
C       -1.62929573      -0.83568525      -0.06796768
C       -0.77286265       0.33910730      -0.50993813
C       -0.24488336       1.18434073       0.56980966
C        0.56567204       0.00590857      -1.14772639
C        1.51700703      -0.53785290      -0.22878273
O        1.52999313       0.46547337       0.97082135
H       -1.92713493      -1.42503649      -0.93529586
H       -1.07549949      -1.49554401       0.60499588
H       -2.52901933      -0.50279447       0.45670540
H       -1.32330904       0.97025398      -1.21192753
H        0.05546182       2.19047839       0.31547981
H       -0.49284950       1.02412992       1.61607826
H        0.93456652       0.69298258      -1.90114793
H        1.23330176      -1.47555252       0.26547722
H        2.53028139      -0.60562619      -0.61956211
H        1.62857031       0.00541698       1.82298085
16
Frame=1 idx=001875 GeodesicLength=0.10148705751689739 rxn_smarts="[C:1]([C@@:2]1([H:10])[C:3]([H:11])([H:12])[C@:4]1([C:5]([O:6][H:16])([H:14])[H:15])[H:13])([H:7])([H:8])[H:9]>>[C:1]([C@@:2]([C:3]([O:6][H:16])([H:11])[H:12])([C:4](=[C:5]([H:14])[H:15])[H:13])[H:10])([H:7])([H:8])[H:9]"
C       -1.62194681      -0.83246065      -0.04675537
C       -0.77519976       0.33890812      -0.51092681
C       -0.23461643       1.20069223       0.55129938
C        0.56816283       0.02227573      -1.13931990
C        1.53039813      -0.53940795      -0.24713103
O        1.51755439       0.42264028       1.01417115
H       -1.90314309      -1.45093951      -0.89931105
H       -1.07473359      -1.46807780       0.65379986
H       -2.53000875      -0.49389008       0.45959897
H       -1.33391500       0.95736647      -1.21771487
H        0.07066069       2.20223861       0.28352730
H       -0.51781934       1.08096993       1.59417747
H        0.92819643       0.70534536      -1.90044174
H        1.27416497      -1.51183716       0.19030462
H        2.54897165      -0.55402469      -0.63102789
H        1.55327369      -0.07979888       1.84574991
16
Frame=2 idx=001875 GeodesicLength=0.20173320390569355 rxn_smarts="[C:1]([C@@:2]1([H:10])[C:3]([H:11])([H:12])[C@:4]1([C:5]([O:6][H:16])([H:14])[H:15])[H:13])([H:7])([H:8])[H:9]>>[C:1]([C@@:2]([C:3]([O:6][H:16])([H:11])[H:12])([C:4](=[C:5]([H:14])[H:15])[H:13])[H:10])([H:7])([H:8])[H:9]"
C       -1.61500855      -0.82890291      -0.02611362
C       -0.77716733       0.33850457      -0.51146572
C       -0.22387295       1.21528810       0.53402776
C        0.57078408       0.03713733      -1.13030025
C        1.54362463      -0.54061607      -0.26433260
O        1.50391430       0.37954931       1.05579731
H       -1.88025913      -1.47462050      -0.86356098
H       -1.07503021      -1.44097327       0.70008362
H       -2.53087459      -0.48530916       0.46250202
H       -1.34324538       0.94502988      -1.22275412
H        0.08442100       2.21283180       0.25337877
H       -0.53885058       1.13365396       1.57165625
H        0.92162453       0.71505409      -1.90011432
H        1.31485918      -1.54243387       0.11674297
H        2.56612682      -0.50295053      -0.63752047
H        1.47895417      -0.16124271       1.86197337
16
Frame=3 idx=001875 GeodesicLength=0.3011104420122172 rxn_smarts="[C:1]([C@@:2]1([H:10])[C:3]([H:11])([H:12])[C@:4]1([C:5]([O:6][H:16])([H:14])[H:15])[H:13])([H:7])([H:8])[H:9]>>[C:1]([C@@:2]([C:3]([O:6][H:16])([H:11])[H:12])([C:4](=[C:5]([H:14])[H:15])[H:13])[H:10])([H:7])([H:8])[H:9]"
C       -1.60859404      -0.82501731      -0.00609655
C       -0.77880074       0.33785745      -0.51156706
C       -0.21270199       1.22822760       0.51793339
C        0.57350276       0.05057756      -1.12075545
C        1.55674599      -0.54154199      -0.28056710
O        1.48933907       0.33634515       1.09571433
H       -1.85843076      -1.49630253      -0.82816616
H       -1.07670227      -1.41417791       0.74417479
H       -2.53184368      -0.47686160       0.46510351
H       -1.35140842       0.93318670      -1.22707640
H        0.09656548       2.22236519       0.22482043
H       -0.55629948       1.18228657       1.54885823
H        0.91481624       0.72231320      -1.90009753
H        1.35557501      -1.56790568       0.04484098
H        2.58175928      -0.45264895      -0.63955651
H        1.40647756      -0.23870345       1.87243711
16
Frame=4 idx=001875 GeodesicLength=0.39992469979670475 rxn_smarts="[C:1]([C@@:2]1([H:10])[C:3]([H:11])([H:12])[C@:4]1([C:5]([O:6][H:16])([H:14])[H:15])[H:13])([H:7])([H:8])[H:9]>>[C:1]([C@@:2]([C:3]([O:6][H:16])([H:11])[H:12])([C:4](=[C:5]([H:14])[H:15])[H:13])[H:10])([H:7])([H:8])[H:9]"
C       -1.60277388      -0.82082537       0.01330814
C       -0.78013112       0.33694924      -0.51126198
C       -0.20115305       1.23965621       0.50292219
C        0.57629689       0.06270359      -1.11077437
C        1.56980994      -0.54224064      -0.29601612
O        1.47398847       0.29302200       1.13402057
H       -1.83756607      -1.51622130      -0.79310727
H       -1.07993365      -1.38757586       0.78641828
H       -2.53307761      -0.46843564       0.46719009
H       -1.35851832       0.92175514      -1.23075563
H        0.10707068       2.23095339       0.19760322
H       -0.57061287       1.22717793       1.52604143
H        0.90776772       0.72734807      -1.90031304
H        1.39653315      -1.58871249      -0.02559897
H        2.59586257      -0.40329555      -0.63754348
H        1.33643715      -0.31225873       1.87786693
16
Frame=5 idx=001875 GeodesicLength=0.4983251737399395 rxn_smarts="[C:1]([C@@:2]1([H:10])[C:3]([H:11])([H:12])[C@:4]1([C:5]([O:6][H:16])([H:14])[H:15])[H:13])([H:7])([H:8])[H:9]>>[C:1]([C@@:2]([C:3]([O:6][H:16])([H:11])[H:12])([C:4](=[C:5]([H:14])[H:15])[H:13])[H:10])([H:7])([H:8])[H:9]"
C       -1.59750617      -0.81632471       0.03213658
C       -0.78115364       0.33580495      -0.51056481
C       -0.18932843       1.24973324       0.48892058
C        0.57919476       0.07372495      -1.10040018
C        1.58289254      -0.54269198      -0.31085709
O        1.45806248       0.24952831       1.17077570
H       -1.81736348      -1.53470028      -0.75828383
H       -1.08472352      -1.36089017       0.82716214
H       -2.53466860      -0.45998563       0.46853986
H       -1.36466675       0.91068376      -1.23382604
H        0.11594452       2.23867932       0.17160468
H       -0.58245169       1.26880394       1.50325640
H        0.90049482       0.73047997      -1.90065449
H        1.43789975      -1.60522413      -0.09445959
H        2.60826125      -0.35529076      -0.63228057
H        1.26911216      -0.38233078       1.87893065
16
Frame=6 idx=001875 GeodesicLength=0.5964811004163852 rxn_smarts="[C:1]([C@@:2]1([H:10])[C:3]([H:11])([H:12])[C@:4]1([C:5]([O:6][H:16])([H:14])[H:15])[H:13])([H:7])([H:8])[H:9]>>[C:1]([C@@:2]([C:3]([O:6][H:16])([H:11])[H:12])([C:4](=[C:5]([H:14])[H:15])[H:13])[H:10])([H:7])([H:8])[H:9]"
C       -1.59283550      -0.81154058       0.05046223
C       -0.78190653       0.33440015      -0.50950785
C       -0.17721278       1.25860030       0.47580197
C        0.58215598       0.08366485      -1.08973097
C        1.59600625      -0.54293238      -0.32522386
O        1.44158806       0.20584499       1.20610585
H       -1.79784210      -1.55186381      -0.72358571
H       -1.09120547      -1.33405722       0.86663292
H       -2.53667807      -0.45146518       0.46910082
H       -1.36996624       0.89987665      -1.23636759
H        0.12330788       2.24561675       0.14651399
H       -0.59193951       1.30737149       1.48068403
H        0.89298140       0.73182764      -1.90109207
H        1.47981386      -1.61774387      -0.16226704
H        2.61911040      -0.30853733      -0.62382956
H        1.20462235      -0.44906244       1.87630283
16
Frame=7 idx=001875 GeodesicLength=0.6945017289881678 rxn_smarts="[C:1]([C@@:2]1([H:10])[C:3]([H:11])([H:12])[C@:4]1([C:5]([O:6][H:16])([H:14])[H:15])[H:13])([H:7])([H:8])[H:9]>>[C:1]([C@@:2]([C:3]([O:6][H:16])([H:11])[H:12])([C:4](=[C:5]([H:14])[H:15])[H:13])[H:10])([H:7])([H:8])[H:9]"
C       -1.58874410      -0.80649658       0.06836437
C       -0.78240075       0.33273842      -0.50811972
C       -0.16483071       1.26639955       0.46347744
C        0.58518550       0.09261526      -1.07882264
C        1.60918336      -0.54296652      -0.33925038
O        1.42461804       0.16194090       1.24009999
H       -1.77890450      -1.56790796      -0.68887110
H       -1.09939943      -1.30694319       0.90505605
H       -2.53913704      -0.44288624       0.46879521
H       -1.37449776       0.88926535      -1.23845818
H        0.12928503       2.25182025       0.12216884
H       -0.59937039       1.34321478       1.45837052
H        0.88524712       0.73157882      -1.90155059
H        1.52233149      -1.62650321      -0.22934206
H        2.62843433      -0.26314701      -0.61249682
H        1.14299981      -0.51272261       1.87057907
16
Frame=8 idx=001875 GeodesicLength=0.7924667308779749 rxn_smarts="[C:1]([C@@:2]1([H:10])[C:3]([H:11])([H:12])[C@:4]1([C:5]([O:6][H:16])([H:14])[H:15])[H:13])([H:7])([H:8])[H:9]>>[C:1]([C@@:2]([C:3]([O:6][H:16])([H:11])[H:12])([C:4](=[C:5]([H:14])[H:15])[H:13])[H:10])([H:7])([H:8])[H:9]"
C       -1.58520622      -0.80120281       0.08592628
C       -0.78265447       0.33082259      -0.50642997
C       -0.15222873       1.27325330       0.45184704
C        0.58827490       0.10065796      -1.06772335
C        1.62242343      -0.54282645      -0.35304438
O        1.40715669       0.11775605       1.27283941
H       -1.76043314      -1.58298130      -0.65395399
H       -1.10930456      -1.27939173       0.94260218
H       -2.54206846      -0.43428229       0.46758059
H       -1.37834410       0.87878191      -1.24016948
H        0.13403157       2.25732427       0.09842453
H       -0.60500632       1.37663494       1.43634393
H        0.87731455       0.72990965      -1.90195029
H        1.56554088      -1.63160431      -0.29596228
H        2.63628776      -0.21925224      -0.59851093
H        1.08421623      -0.57359953       1.86218072
16
Frame=9 idx=001875 GeodesicLength=0.8903024158756646 rxn_smarts="[C:1]([C@@:2]1([H:10])[C:3]([H:11])([H:12])[C@:4]1([C:5]([O:6][H:16])([H:14])[H:15])[H:13])([H:7])([H:8])[H:9]>>[C:1]([C@@:2]([C:3]([O:6][H:16])([H:11])[H:12])([C:4](=[C:5]([H:14])[H:15])[H:13])[H:10])([H:7])([H:8])[H:9]"
C       -1.58215732      -0.79566801       0.10318536
C       -0.78265409       0.32867134      -0.50443895
C       -0.13946914       1.27928586       0.44086052
C        0.59145877       0.10792307      -1.05644342
C        1.63578918      -0.54242325      -0.36671749
O        1.38929134       0.07321826       1.30435245
H       -1.74223054      -1.59727879      -0.61872789
H       -1.12078968      -1.25115069       0.97946279
H       -2.54542341      -0.42570015       0.46538368
H       -1.38156458       0.86839469      -1.24151407
H        0.13768976       2.26214044       0.07526205
H       -0.60920583       1.40797740       1.41455003
H        0.86918064       0.72699184      -1.90224338
H        1.60946857      -1.63311171      -0.36192838
H        2.64258930      -0.17709307      -0.58247625
H        1.02802701      -0.63217722       1.85143297
16
Frame=10 idx=001875 GeodesicLength=0.9881743777988966 rxn_smarts="[C:1]([C@@:2]1([H:10])[C:3]([H:11])([H:12])[C@:4]1([C:5]([O:6][H:16])([H:14])[H:15])[H:13])([H:7])([H:8])[H:9]>>[C:1]([C@@:2]([C:3]([O:6][H:16])([H:11])[H:12])([C:4](=[C:5]([H:14])[H:15])[H:13])[H:10])([H:7])([H:8])[H:9]"
C       -1.57956341      -0.78989395       0.12028356
C       -0.78243135       0.32626567      -0.50218490
C       -0.12654192       1.28458722       0.43038638
C        0.59470382       0.11439258      -1.04505748
C        1.64925710      -0.54181957      -0.38033638
O        1.37087292       0.02824006       1.33477008
H       -1.72430643      -1.61083168      -0.58292489
H       -1.13385453      -1.22214951       1.01569059
H       -2.54917310      -0.41717928       0.46228718
H       -1.38423807       0.85799926      -1.24256282
H        0.14046410       2.26626594       0.05245331
H       -0.61201140       1.43743080       1.39299555
H        0.86086658       0.72290552      -1.90240232
H        1.65419961      -1.63099324      -0.42790029
H        2.64747977      -0.13660048      -0.56416281
H        0.97427630      -0.68861934       1.83866523
16
Frame=11 idx=001875 GeodesicLength=1.0861299335848102 rxn_smarts="[C:1]([C@@:2]1([H:10])[C:3]([H:11])([H:12])[C@:4]1([C:5]([O:6][H:16])([H:14])[H:15])[H:13])([H:7])([H:8])[H:9]>>[C:1]([C@@:2]([C:3]([O:6][H:16])([H:11])[H:12])([C:4](=[C:5]([H:14])[H:15])[H:13])[H:10])([H:7])([H:8])[H:9]"
C       -1.57736749      -0.78388236       0.13730810
C       -0.78199027       0.32360470      -0.49969013
C       -0.11346573       1.28924729       0.42033414
C        0.59801487       0.12010596      -1.03360152
C        1.66284045      -0.54100442      -0.39397643
O        1.35181456      -0.01728060       1.36415626
H       -1.70657464      -1.62372490      -0.54634806
H       -1.14837826      -1.19223679       1.05137651
H       -2.55325559      -0.40878671       0.45833603
H       -1.38642234       0.84753310      -1.24336184
H        0.14254279       2.26969843       0.02989848
H       -0.61357022       1.46523285       1.37164396
H        0.85238777       0.71774771      -1.90239616
H        1.69976885      -1.62517043      -0.49407381
H        2.65097667      -0.09785581      -0.54371573
H        0.92267859      -0.74322802       1.82411019
16
Frame=12 idx=001875 GeodesicLength=1.1841962160393813 rxn_smarts="[C:1]([C@@:2]1([H:10])[C:3]([H:11])([H:12])[C@:4]1([C:5]([O:6][H:16])([H:14])[H:15])[H:13])([H:7])([H:8])[H:9]>>[C:1]([C@@:2]([C:3]([O:6][H:16])([H:11])[H:12])([C:4](=[C:5]([H:14])[H:15])[H:13])[H:10])([H:7])([H:8])[H:9]"
C       -1.57550999      -0.77763318       0.15434142
C       -0.78134031       0.32068204      -0.49697690
C       -0.10026700       1.29333553       0.41062194
C        0.60138927       0.12509595      -1.02210632
C        1.67654870      -0.53997907      -0.40770611
O        1.33202936      -0.06343849       1.39255117
H       -1.68897934      -1.63598787      -0.50882164
H       -1.16422440      -1.16129499       1.08653617
H       -2.55758854      -0.40059014       0.45361880
H       -1.38817109       0.83692921      -1.24394965
H        0.14409238       2.27243150       0.00752866
H       -0.61402589       1.49158492       1.35043493
H        0.84374393       0.71160901      -1.90219271
H        1.74619550      -1.61551267      -0.56055834
H        2.65313026      -0.06099502      -0.52124294
H        0.87297715      -0.79623673       1.80792152
16
Frame=13 idx=001875 GeodesicLength=1.2823269439733223 rxn_smarts="[C:1]([C@@:2]1([H:10])[C:3]([H:11])([H:12])[C@:4]1([C:5]([O:6][H:16])([H:14])[H:15])[H:13])([H:7])([H:8])[H:9]>>[C:1]([C@@:2]([C:3]([O:6][H:16])([H:11])[H:12])([C:4](=[C:5]([H:14])[H:15])[H:13])[H:10])([H:7])([H:8])[H:9]"
C       -1.57395239      -0.77114279       0.17142874
C       -0.78048350       0.31749618      -0.49405605
C       -0.08697755       1.29692256       0.40118861
C        0.60484332       0.12940138      -1.01058408
C        1.69039406      -0.53869812      -0.42157526
O        1.31146890      -0.11034041       1.41996348
H       -1.67146145      -1.64766355      -0.47021326
H       -1.18118026      -1.12916100       1.12121383
H       -2.56209422      -0.39265750       0.44821686
H       -1.38953159       0.82614386      -1.24434105
H        0.14526102       2.27446035      -0.01468539
H       -0.61352817       1.51668219       1.32929793
H        0.83493993       0.70455752      -1.90178493
H        1.79352516      -1.60186395      -0.62722085
H        2.65395055      -0.02616428      -0.49702329
H        0.82482621      -0.84797244       1.79017472
16
Frame=14 idx=001875 GeodesicLength=1.3806767899225183 rxn_smarts="[C:1]([C@@:2]1([H:10])[C:3]([H:11])([H:12])[C@:4]1([C:5]([O:6][H:16])([H:14])[H:15])[H:13])([H:7])([H:8])[H:9]>>[C:1]([C@@:2]([C:3]([O:6][H:16])([H:11])[H:12])([C:4](=[C:5]([H:14])[H:15])[H:13])[H:10])([H:7])([H:8])[H:9]"
C       -1.57262093      -0.76440537       0.18868920
C       -0.77943449       0.31402699      -0.49096331
C       -0.07358288       1.30004978       0.39191338
C        0.60836327       0.13298639      -0.99909024
C        1.70437168      -0.53720490      -0.43561426
O        1.28990079      -0.15810612       1.44647475
H       -1.65411552      -1.65866558      -0.43035255
H       -1.19900746      -1.09590112       1.15526271
H       -2.56663134      -0.38501952       0.44242081
H       -1.39055698       0.81508457      -1.24457950
H        0.14621422       2.27575574      -0.03690827
H       -0.61210020       1.54066541       1.30816240
H        0.82599803       0.69661004      -1.90117786
H        1.84181448      -1.58392528      -0.69438225
H        2.65346752       0.00654892      -0.47085480
H        0.77791980      -0.89849995       1.77099979
16
Frame=15 idx=001875 GeodesicLength=1.479279335729141 rxn_smarts="[C:1]([C@@:2]1([H:10])[C:3]([H:11])([H:12])[C@:4]1([C:5]([O:6][H:16])([H:14])[H:15])[H:13])([H:7])([H:8])[H:9]>>[C:1]([C@@:2]([C:3]([O:6][H:16])([H:11])[H:12])([C:4](=[C:5]([H:14])[H:15])[H:13])[H:10])([H:7])([H:8])[H:9]"
C       -1.57146515      -0.75741931       0.20616951
C       -0.77819609       0.31025761      -0.48772481
C       -0.06009151       1.30275536       0.38271151
C        0.61195649       0.13584375      -0.98764917
C        1.71849127      -0.53550079      -0.44985761
O        1.26721341      -0.20680253       1.47210063
H       -1.63703337      -1.66891990      -0.38920375
H       -1.21737110      -1.06159962       1.18855737
H       -2.57106589      -0.37769341       0.43651445
H       -1.39128509       0.80368999      -1.24469469
H        0.14707143       2.27630099      -0.05921708
H       -0.60981637       1.56366226       1.28695442
H        0.81692884       0.68778592      -1.90037261
H        1.89104346      -1.56144473      -0.76197918
H        2.65170405       0.03699642      -0.44281008
H        0.73191561      -0.94791201       1.75050109
16
Frame=16 idx=001875 GeodesicLength=1.5781626419387438 rxn_smarts="[C:1]([C@@:2]1([H:10])[C:3]([H:11])([H:12])[C@:4]1([C:5]([O:6][H:16])([H:14])[H:15])[H:13])([H:7])([H:8])[H:9]>>[C:1]([C@@:2]([C:3]([O:6][H:16])([H:11])[H:12])([C:4](=[C:5]([H:14])[H:15])[H:13])[H:10])([H:7])([H:8])[H:9]"
C       -1.57045332      -0.75018733       0.22389346
C       -0.77677652       0.30617304      -0.48436950
C       -0.04651745       1.30506914       0.37350075
C        0.61562924       0.13796110      -0.97628261
C        1.73274926      -0.53359950      -0.46432676
O        1.24331068      -0.25647416       1.49685436
H       -1.62038743      -1.67832418      -0.34682645
H       -1.23587069      -1.02645826       1.22092719
H       -2.57526995      -0.37065887       0.43085062
H       -1.39175697       0.79190753      -1.24471523
H        0.14793061       2.27608270      -0.08168738
H       -0.60674540       1.58577695       1.26558945
H        0.80775084       0.67809112      -1.89937403
H        1.94119690      -1.53411616      -0.82984047
H        2.64868724       0.06496998      -0.41298389
H        0.68652297      -0.99621311       1.72879049
