12
Frame=0 idx=005675 GeodesicLength=0.0 rxn_smarts="[N:1]([c:2]1[c:3]([H:9])[n:4]([H:10])[c:5]([H:11])[c:6]1[H:12])([H:7])[H:8]>>[N:1]([C:2]#[C:3][H:9])([H:7])[H:8].[N:4](=[C:5]=[C:6]([H:11])[H:12])[H:10]"
N       -2.43642923       0.04591762       0.21770766
C       -1.43215742       0.79046863      -0.28081896
C       -0.58238042       1.47724153      -0.78730317
N        2.32342746       0.26770352       0.77990938
C        1.55255546      -0.55143259       0.22703578
C        0.34366930      -0.92187117      -0.26473907
H       -3.10015917       0.55431833       0.77971403
H       -2.10950819      -0.80736394       0.64826339
H        0.19982587       2.09716017      -1.15497250
H        3.19549108      -0.14388409       1.08951245
H        1.71488357      -1.71310727       0.08831635
H        0.33078169      -1.09515069      -1.34262536
12
Frame=1 idx=005675 GeodesicLength=0.11827650460991282 rxn_smarts="[N:1]([c:2]1[c:3]([H:9])[n:4]([H:10])[c:5]([H:11])[c:6]1[H:12])([H:7])[H:8]>>[N:1]([C:2]#[C:3][H:9])([H:7])[H:8].[N:4](=[C:5]=[C:6]([H:11])[H:12])[H:10]"
N       -2.41299555       0.06062959       0.23606252
C       -1.38939936       0.75101622      -0.30194346
C       -0.52916209       1.47009253      -0.75305943
N        2.23586374       0.29727964       0.77408456
C        1.51681638      -0.58663521       0.24870669
C        0.34088335      -0.97410046      -0.30039402
H       -3.01201622       0.59736542       0.84304590
H       -2.12804007      -0.82547469       0.62744364
H        0.19338458       2.13189320      -1.16768691
H        3.12443917      -0.05178269       1.11424251
H        1.71089902      -1.74709448       0.06042707
H        0.34932705      -1.12318906      -1.38092907
12
Frame=2 idx=005675 GeodesicLength=0.2364375445568857 rxn_smarts="[N:1]([c:2]1[c:3]([H:9])[n:4]([H:10])[c:5]([H:11])[c:6]1[H:12])([H:7])[H:8]>>[N:1]([C:2]#[C:3][H:9])([H:7])[H:8].[N:4](=[C:5]=[C:6]([H:11])[H:12])[H:10]"
N       -2.38930104       0.07736355       0.24852026
C       -1.34933866       0.71518001      -0.32516511
C       -0.47900393       1.46176728      -0.72182737
N        2.13767415       0.31555651       0.79599418
C        1.47927465      -0.62122582       0.27896528
C        0.33879531      -1.01962631      -0.32934589
H       -2.91831701       0.63317729       0.90200510
H       -2.15316165      -0.84052727       0.59568847
H        0.18992874       2.15920943      -1.16748661
H        3.06931138       0.04719448       1.09037861
H        1.70303651      -1.77911792       0.04327220
H        0.37110154      -1.14895122      -1.41099911
12
Frame=3 idx=005675 GeodesicLength=0.35488301912709214 rxn_smarts="[N:1]([c:2]1[c:3]([H:9])[n:4]([H:10])[c:5]([H:11])[c:6]1[H:12])([H:7])[H:8]>>[N:1]([C:2]#[C:3][H:9])([H:7])[H:8].[N:4](=[C:5]=[C:6]([H:11])[H:12])[H:10]"
N       -2.36151031       0.09465233       0.26220431
C       -1.30864576       0.68301465      -0.34377218
C       -0.43341148       1.45096664      -0.70261800
N        2.05605213       0.33603090       0.79006725
C        1.45040362      -0.65028632       0.29650019
C        0.33962685      -1.05932494      -0.35448422
H       -2.81945554       0.66112503       0.95915089
H       -2.17757875      -0.84982743       0.56592309
H        0.17636736       2.19196281      -1.16376906
H        2.99651581       0.13039700       1.10195521
H        1.69774679      -1.80749887       0.02440955
H        0.38388928      -1.18121178      -1.43556701
12
Frame=4 idx=005675 GeodesicLength=0.4720634523056808 rxn_smarts="[N:1]([c:2]1[c:3]([H:9])[n:4]([H:10])[c:5]([H:11])[c:6]1[H:12])([H:7])[H:8]>>[N:1]([C:2]#[C:3][H:9])([H:7])[H:8].[N:4](=[C:5]=[C:6]([H:11])[H:12])[H:10]"
N       -2.33545894       0.11117474       0.27245196
C       -1.26981723       0.65657947      -0.35509877
C       -0.39102924       1.44494395      -0.67709381
N        1.97441614       0.35060803       0.79850509
C        1.42382996      -0.67483039       0.31495337
C        0.34129004      -1.09071184      -0.37496088
H       -2.72671758       0.67700280       1.00976756
H       -2.20677193      -0.85535433       0.53081711
H        0.17141093       2.20701926      -1.16414171
H        2.93342323       0.21240551       1.09042042
H        1.69040770      -1.83231275       0.00969092
H        0.39501693      -1.20652444      -1.45531126
12
Frame=5 idx=005675 GeodesicLength=0.5897909195683941 rxn_smarts="[N:1]([c:2]1[c:3]([H:9])[n:4]([H:10])[c:5]([H:11])[c:6]1[H:12])([H:7])[H:8]>>[N:1]([C:2]#[C:3][H:9])([H:7])[H:8].[N:4](=[C:5]=[C:6]([H:11])[H:12])[H:10]"
N       -2.30768139       0.12798493       0.28221965
C       -1.23184860       0.63081456      -0.36741439
C       -0.35166337       1.43622260      -0.66276231
N        1.90139934       0.36600722       0.79538276
C        1.40307239      -0.69478616       0.32594248
C        0.34404303      -1.11983068      -0.39142320
H       -2.63030512       0.68649907       1.05771922
H       -2.23719503      -0.85495360       0.49612343
H        0.16128866       2.23057041      -1.15395207
H        2.86539409       0.28682660       1.09058230
H        1.68361927      -1.85607326      -0.00212432
H        0.39987672      -1.23928170      -1.47029355
12
Frame=6 idx=005675 GeodesicLength=0.7074901934537972 rxn_smarts="[N:1]([c:2]1[c:3]([H:9])[n:4]([H:10])[c:5]([H:11])[c:6]1[H:12])([H:7])[H:8]>>[N:1]([C:2]#[C:3][H:9])([H:7])[H:8].[N:4](=[C:5]=[C:6]([H:11])[H:12])[H:10]"
N       -2.28051395       0.14405463       0.29035031
C       -1.19536645       0.60733395      -0.37736346
C       -0.31464264       1.42908159      -0.64785369
N        1.83162623       0.37864204       0.79589464
C        1.38474260      -0.71159391       0.33624180
C        0.34748641      -1.14481616      -0.40491017
H       -2.53782870       0.68777020       1.10038746
H       -2.26931030      -0.84947273       0.46097479
H        0.15385019       2.24916169      -1.14232446
H        2.80103911       0.35865181       1.08207442
H        1.67598165      -1.87846327      -0.01132287
H        0.40293584      -1.27034986      -1.48214876
12
Frame=7 idx=005675 GeodesicLength=0.8254477989441754 rxn_smarts="[N:1]([c:2]1[c:3]([H:9])[n:4]([H:10])[c:5]([H:11])[c:6]1[H:12])([H:7])[H:8]>>[N:1]([C:2]#[C:3][H:9])([H:7])[H:8].[N:4](=[C:5]=[C:6]([H:11])[H:12])[H:10]"
N       -2.25306076       0.15975500       0.29810776
C       -1.16016972       0.58511959      -0.38649580
C       -0.27994068       1.42235323      -0.63560082
N        1.76682893       0.39057626       0.79407040
C        1.36977499      -0.72506202       0.34357029
C        0.35167648      -1.16693899      -0.41614689
H       -2.44704579       0.68242032       1.13940815
H       -2.30199054      -0.83865405       0.42688073
H        0.14586058       2.26672913      -1.12895073
H        2.73672860       0.42582466       1.07595291
H        1.66837452      -1.89977438      -0.01935395
H        0.40296341      -1.30234875      -1.49144204
12
Frame=8 idx=005675 GeodesicLength=0.9436645265384989 rxn_smarts="[N:1]([c:2]1[c:3]([H:9])[n:4]([H:10])[c:5]([H:11])[c:6]1[H:12])([H:7])[H:8]>>[N:1]([C:2]#[C:3][H:9])([H:7])[H:8].[N:4](=[C:5]=[C:6]([H:11])[H:12])[H:10]"
N       -2.22562740       0.17491768       0.30533123
C       -1.12626876       0.56393546      -0.39494434
C       -0.24730733       1.41623184      -0.62469957
N        1.70629540       0.40161379       0.79121487
C        1.35732858      -0.73584460       0.34920800
C        0.35656947      -1.18651146      -0.42561689
H       -2.35909355       0.67114604       1.17432674
H       -2.33473705      -0.82280328       0.39434167
H        0.13770682       2.28282296      -1.11419490
H        2.67348908       0.48915343       1.06984729
H        1.66064324      -1.92027822      -0.02618727
H        0.40100148      -1.33438365      -1.49862682
12
Frame=9 idx=005675 GeodesicLength=1.0623719203407984 rxn_smarts="[N:1]([c:2]1[c:3]([H:9])[n:4]([H:10])[c:5]([H:11])[c:6]1[H:12])([H:7])[H:8]>>[N:1]([C:2]#[C:3][H:9])([H:7])[H:8].[N:4](=[C:5]=[C:6]([H:11])[H:12])[H:10]"
N       -2.19792943       0.18982318       0.31224842
C       -1.09361790       0.54359126      -0.40345496
C       -0.21649803       1.41049138      -0.61585892
N        1.64955391       0.41219603       0.78699250
C        1.34702573      -0.74413534       0.35332776
C        0.36202914      -1.20400313      -0.43359176
H       -2.27238970       0.65373627       1.20615750
H       -2.36752312      -0.80186951       0.36276312
H        0.12861235       2.29846444      -1.09789566
H        2.61097939       0.54893889       1.06461810
H        1.65256091      -1.94028130      -0.03149113
H        0.39719676      -1.36695217      -1.50381497
12
Frame=10 idx=005675 GeodesicLength=1.1814557078835661 rxn_smarts="[N:1]([c:2]1[c:3]([H:9])[n:4]([H:10])[c:5]([H:11])[c:6]1[H:12])([H:7])[H:8]>>[N:1]([C:2]#[C:3][H:9])([H:7])[H:8].[N:4](=[C:5]=[C:6]([H:11])[H:12])[H:10]"
N       -2.17009516       0.20426914       0.31910352
C       -1.06217352       0.52399349      -0.41165113
C       -0.18750556       1.40535872      -0.60806865
N        1.59638971       0.42237810       0.78166735
C        1.33877569      -0.75017309       0.35598871
C        0.36816125      -1.21946488      -0.44057683
H       -2.18837138       0.63115583       1.23447913
H       -2.39972442      -0.77620974       0.33314003
H        0.11903930       2.31257001      -1.08144798
H        2.54931238       0.60520857       1.06094067
H        1.64441998      -1.95967068      -0.03612680
H        0.39177172      -1.39941547      -1.50744801
12
Frame=11 idx=005675 GeodesicLength=1.3008844980102112 rxn_smarts="[N:1]([c:2]1[c:3]([H:9])[n:4]([H:10])[c:5]([H:11])[c:6]1[H:12])([H:7])[H:8]>>[N:1]([C:2]#[C:3][H:9])([H:7])[H:8].[N:4](=[C:5]=[C:6]([H:11])[H:12])[H:10]"
N       -2.14209967       0.21821149       0.32601931
C       -1.03185127       0.50500859      -0.41954774
C       -0.16024475       1.40080808      -0.60118345
N        1.54669118       0.43236609       0.77502349
C        1.33255265      -0.75410725       0.35713304
C        0.37501216      -1.23309868      -0.44683703
H       -2.10735210       0.60398662       1.25935084
H       -2.43106935      -0.74606905       0.30566536
H        0.10881650       2.32521334      -1.06518861
H        2.48849991       0.65804845       1.05948331
H        1.63627552      -1.97854735      -0.04027229
H        0.38476923      -1.43182033      -1.50964625
12
Frame=12 idx=005675 GeodesicLength=1.420667333111457 rxn_smarts="[N:1]([c:2]1[c:3]([H:9])[n:4]([H:10])[c:5]([H:11])[c:6]1[H:12])([H:7])[H:8]>>[N:1]([C:2]#[C:3][H:9])([H:7])[H:8].[N:4](=[C:5]=[C:6]([H:11])[H:12])[H:10]"
N       -2.11390250       0.23157401       0.33303874
C       -1.00261182       0.48650540      -0.42729367
C       -0.13463081       1.39677992      -0.59507804
N        1.50006699       0.44216013       0.76725047
C        1.32809711      -0.75619121       0.35692366
C        0.38264201      -1.24507603      -0.45274671
H       -2.02951354       0.57296720       1.28073741
H       -2.46109734      -0.71180037       0.28079308
H        0.09790687       2.33646972      -1.04923095
H        2.42844395       0.70767545       1.06024478
H        1.62808663      -1.99702298      -0.04398504
H        0.37651243      -1.46404124      -1.51065372
12
Frame=13 idx=005675 GeodesicLength=1.5409803910062796 rxn_smarts="[N:1]([c:2]1[c:3]([H:9])[n:4]([H:10])[c:5]([H:11])[c:6]1[H:12])([H:7])[H:8]>>[N:1]([C:2]#[C:3][H:9])([H:7])[H:8].[N:4](=[C:5]=[C:6]([H:11])[H:12])[H:10]"
N       -2.08530667       0.24442444       0.34025159
C       -0.97442446       0.46847935      -0.43522027
C       -0.11052271       1.39323328      -0.58994719
N        1.45600844       0.45182502       0.75853282
C        1.32509024      -0.75657271       0.35551931
C        0.39103088      -1.25552124      -0.45857799
H       -1.95406142       0.53792184       1.29895970
H       -2.48959159      -0.67348176       0.25842206
H        0.08617750       2.34664639      -1.03354773
H        2.36884709       0.75445304       1.06307848
H        1.61952915      -2.01528709      -0.04689495
H        0.36722357      -1.49612056      -1.51057581
12
Frame=14 idx=005675 GeodesicLength=1.6615944918849725 rxn_smarts="[N:1]([c:2]1[c:3]([H:9])[n:4]([H:10])[c:5]([H:11])[c:6]1[H:12])([H:7])[H:8]>>[N:1]([C:2]#[C:3][H:9])([H:7])[H:8].[N:4](=[C:5]=[C:6]([H:11])[H:12])[H:10]"
N       -2.05651829       0.25650243       0.34762243
C       -0.94717800       0.45083958      -0.44292993
C       -0.08790828       1.39024241      -0.58508114
N        1.41453868       0.46129067       0.74899975
C        1.32365111      -0.75542779       0.35284970
C        0.40035585      -1.26445998      -0.46460812
H       -1.88235154       0.50017713       1.31378154
H       -2.51613444      -0.63180413       0.23901209
H        0.07395817       2.35533061      -1.01866099
H        2.30984063       0.79845013       1.06797432
H        1.61074652      -2.03336014      -0.04939023
H        0.35699960      -1.52778092      -1.50956941
12
Frame=15 idx=005675 GeodesicLength=1.7824328834658414 rxn_smarts="[N:1]([c:2]1[c:3]([H:9])[n:4]([H:10])[c:5]([H:11])[c:6]1[H:12])([H:7])[H:8]>>[N:1]([C:2]#[C:3][H:9])([H:7])[H:8].[N:4](=[C:5]=[C:6]([H:11])[H:12])[H:10]"
N       -2.02758341       0.26768403       0.35516648
C       -0.92078754       0.43358004      -0.45031282
C       -0.06673980       1.38786259      -0.58018663
N        1.37554877       0.47058109       0.73874254
C        1.32377506      -0.75284384       0.34889425
C        0.41070680      -1.27190672      -0.47105033
H       -1.81456594       0.46011892       1.32545062
H       -2.54058790      -0.58714828       0.22241073
H        0.06137534       2.36250469      -1.00487164
H        2.25138465       0.83985589       1.07477422
H        1.60155203      -2.05135950      -0.05134057
H        0.34592192      -1.55892891      -1.50767685
12
Frame=16 idx=005675 GeodesicLength=1.9034052739564362 rxn_smarts="[N:1]([c:2]1[c:3]([H:9])[n:4]([H:10])[c:5]([H:11])[c:6]1[H:12])([H:7])[H:8]>>[N:1]([C:2]#[C:3][H:9])([H:7])[H:8].[N:4](=[C:5]=[C:6]([H:11])[H:12])[H:10]"
N       -1.99853878       0.27782435       0.36284155
C       -0.89516703       0.41667679      -0.45734237
C       -0.04696374       1.38611008      -0.57508255
N        1.33888946       0.47967754       0.72786105
C        1.32545279      -0.74891570       0.34359482
C        0.42220325      -1.27787334      -0.47819166
H       -1.75085606       0.41840684       1.33414157
H       -2.56265156      -0.54004619       0.20867677
H        0.04849179       2.36826488      -0.99228404
H        2.19334088       0.87879346       1.08335219
H        1.59169217      -2.06942131      -0.05257552
H        0.33410683      -1.58949740      -1.50499182
