15
Frame=0 idx=002233 GeodesicLength=0.0 rxn_smarts="[C:1]([C:2]([C:3]([C:4]([O:5][H:15])([H:13])[H:14])([H:11])[H:12])([H:9])[H:10])([H:6])([H:7])[H:8]>>[C:1]([C:2]([C:3](=[C:4]([H:13])[H:14])[H:12])([H:9])[H:10])([H:6])([H:7])[H:8].[O:5]([H:11])[H:15]"
C       -2.02676359      -0.16734799      -0.34896302
C       -0.81910464       0.69592489      -0.00220451
C        0.27879806      -0.08216526       0.69123262
C        1.62654959       0.31645020       0.59464423
O        2.10436520      -1.07288467      -0.58433627
H       -1.74878729      -0.97375841      -1.03149294
H       -2.44752581      -0.62765487       0.54822808
H       -2.81665162       0.42026024      -0.82122097
H       -0.41893441       1.14179412      -0.91986914
H       -1.14939397       1.53513757       0.62088017
H        0.90832120      -0.98288092      -0.18114003
H       -0.00314232      -0.60994215       1.59878811
H        1.91294427       1.16362137      -0.02054429
H        2.34673201       0.04318935       1.35405170
H        2.25259332      -0.79974346      -1.49805378
15
Frame=1 idx=002233 GeodesicLength=0.05042770393955438 rxn_smarts="[C:1]([C:2]([C:3]([C:4]([O:5][H:15])([H:13])[H:14])([H:11])[H:12])([H:9])[H:10])([H:6])([H:7])[H:8]>>[C:1]([C:2]([C:3](=[C:4]([H:13])[H:14])[H:12])([H:9])[H:10])([H:6])([H:7])[H:8].[O:5]([H:11])[H:15]"
C       -2.02693362      -0.16541857      -0.34872929
C       -0.82146320       0.69941490       0.00230282
C        0.27889716      -0.08219056       0.68664771
C        1.62649111       0.31819908       0.58597909
O        2.10538049      -1.09021105      -0.58585083
H       -1.74645534      -0.96652030      -1.03652104
H       -2.44560002      -0.63276115       0.54578977
H       -2.81877862       0.42301140      -0.81655624
H       -0.42561099       1.15493483      -0.91236595
H       -1.15095437       1.53132831       0.63533632
H        0.89837934      -1.00028597      -0.18800607
H       -0.00058624      -0.60818601       1.59623792
H        1.90776297       1.16555392      -0.03184128
H        2.33867550       0.06326013       1.35967756
H        2.28079583      -0.81012893      -1.49210050
15
Frame=2 idx=002233 GeodesicLength=0.1008125661593976 rxn_smarts="[C:1]([C:2]([C:3]([C:4]([O:5][H:15])([H:13])[H:14])([H:11])[H:12])([H:9])[H:10])([H:6])([H:7])[H:8]>>[C:1]([C:2]([C:3](=[C:4]([H:13])[H:14])[H:12])([H:9])[H:10])([H:6])([H:7])[H:8].[O:5]([H:11])[H:15]"
C       -2.02712811      -0.16341154      -0.34846251
C       -0.82377542       0.70284227       0.00686936
C        0.27906746      -0.08234197       0.68187921
C        1.62648515       0.31994420       0.57723805
O        2.10623688      -1.10752269      -0.58755921
H       -1.74427163      -0.95910864      -1.04158742
H       -2.44364306      -0.63783182       0.54331997
H       -2.82092595       0.42590068      -0.81173680
H       -0.43230458       1.16804391      -0.90468325
H       -1.15231314       1.52731388       0.64987601
H        0.88818242      -1.01787960      -0.19504132
H        0.00211533      -0.60669564       1.59343647
H        1.90244484       1.16754437      -0.04317913
H        2.33033485       0.08394689       1.36496526
H        2.30949497      -0.82074430      -1.48533469
15
Frame=3 idx=002233 GeodesicLength=0.15111580468966693 rxn_smarts="[C:1]([C:2]([C:3]([C:4]([O:5][H:15])([H:13])[H:14])([H:11])[H:12])([H:9])[H:10])([H:6])([H:7])[H:8]>>[C:1]([C:2]([C:3](=[C:4]([H:13])[H:14])[H:12])([H:9])[H:10])([H:6])([H:7])[H:8].[O:5]([H:11])[H:15]"
C       -2.02732879      -0.16134525      -0.34815552
C       -0.82600368       0.70618376       0.01145298
C        0.27931425      -0.08261730       0.67695810
C        1.62654794       0.32166770       0.56849481
O        2.10689357      -1.12470248      -0.58960043
H       -1.74222649      -0.95163244      -1.04658176
H       -2.44168718      -0.64276627       0.54086406
H       -2.82303474       0.42888463      -0.80685307
H       -0.43894077       1.18100350      -0.89689349
H       -1.15341679       1.52313471       0.66437621
H        0.87774235      -1.03569620      -0.20216606
H        0.00493697      -0.60545419       1.59041326
H        1.89701707       1.16962903      -0.05440054
H        2.32171576       0.10511618       1.36992620
H        2.33847052      -0.83140539      -1.47783474
15
Frame=4 idx=002233 GeodesicLength=0.2013750635632262 rxn_smarts="[C:1]([C:2]([C:3]([C:4]([O:5][H:15])([H:13])[H:14])([H:11])[H:12])([H:9])[H:10])([H:6])([H:7])[H:8]>>[C:1]([C:2]([C:3](=[C:4]([H:13])[H:14])[H:12])([H:9])[H:10])([H:6])([H:7])[H:8].[O:5]([H:11])[H:15]"
C       -2.02754116      -0.15920648      -0.34782018
C       -0.82817832       0.70946248       0.01610430
C        0.27964037      -0.08300765       0.67185517
C        1.62667370       0.32340265       0.55968520
O        2.10735944      -1.14184228      -0.59190673
H       -1.74030636      -0.94397812      -1.05162396
H       -2.43969066      -0.64768205       0.53836275
H       -2.82515133       0.43199915      -0.80181768
H       -0.44558393       1.19394069      -0.88890634
H       -1.15431865       1.51873914       0.67896929
H        0.86702770      -1.05371398      -0.20943999
H        0.00791473      -0.60446917       1.58714237
H        1.89146156       1.17177105      -0.06566914
H        2.31279118       0.12690187       1.37450929
H        2.36790173      -0.84231729      -1.46944435
15
Frame=5 idx=002233 GeodesicLength=0.2515561802254874 rxn_smarts="[C:1]([C:2]([C:3]([C:4]([O:5][H:15])([H:13])[H:14])([H:11])[H:12])([H:9])[H:10])([H:6])([H:7])[H:8]>>[C:1]([C:2]([C:3](=[C:4]([H:13])[H:14])[H:12])([H:9])[H:10])([H:6])([H:7])[H:8].[O:5]([H:11])[H:15]"
C       -2.02774542      -0.15701471      -0.34744798
C       -0.83026109       0.71265687       0.02077705
C        0.28005016      -0.08350883       0.66660038
C        1.62687774       0.32513258       0.55088527
O        2.10758994      -1.15882121      -0.59462903
H       -1.73850204      -0.93625665      -1.05660485
H       -2.43768014      -0.65248156       0.53586536
H       -2.82721911       0.43519884      -0.79671453
H       -0.45215736       1.20673719      -0.88080058
H       -1.15496534       1.51417247       0.69352743
H        0.85604804      -1.07196878      -0.21677767
H        0.01102073      -0.60371743       1.58365401
H        1.88580652       1.17401124      -0.07682063
H        2.30356103       0.14916142       1.37873556
H        2.39757635      -0.85330144      -1.46024980
15
Frame=6 idx=002233 GeodesicLength=0.301691994240288 rxn_smarts="[C:1]([C:2]([C:3]([C:4]([O:5][H:15])([H:13])[H:14])([H:11])[H:12])([H:9])[H:10])([H:6])([H:7])[H:8]>>[C:1]([C:2]([C:3](=[C:4]([H:13])[H:14])[H:12])([H:9])[H:10])([H:6])([H:7])[H:8].[O:5]([H:11])[H:15]"
C       -2.02794997      -0.15476002      -0.34704785
C       -0.83227339       0.71578266       0.02550575
C        0.28054830      -0.08411508       0.66116716
C        1.62716168       0.32688345       0.54204563
O        2.10759151      -1.17570461      -0.59773055
H       -1.73681302      -0.92837646      -1.06162072
H       -2.43562225      -0.65725965       0.53332725
H       -2.82928463       0.43851177      -0.79146394
H       -0.45870776       1.21948750      -0.87251149
H       -1.15539108       1.50939349       0.70814569
H        0.84477859      -1.09045019      -0.22422094
H        0.01428442      -0.60320670       1.57992569
H        1.88004512       1.17632072      -0.08798190
H        2.29400035       0.17199849       1.38256370
H        2.42763213      -0.86450538      -1.45010347
15
Frame=7 idx=002233 GeodesicLength=0.35173375170768456 rxn_smarts="[C:1]([C:2]([C:3]([C:4]([O:5][H:15])([H:13])[H:14])([H:11])[H:12])([H:9])[H:10])([H:6])([H:7])[H:8]>>[C:1]([C:2]([C:3](=[C:4]([H:13])[H:14])[H:12])([H:9])[H:10])([H:6])([H:7])[H:8].[O:5]([H:11])[H:15]"
C       -2.02811767      -0.15246169      -0.34661878
C       -0.83418005       0.71882205       0.03025717
C        0.28113897      -0.08481588       0.65559183
C        1.62753076       0.32864580       0.53323964
O        2.10731283      -1.19237488      -0.60136063
H       -1.73519479      -0.92043384      -1.06658054
H       -2.43352528      -0.66193479       0.53077615
H       -2.83127216       0.44189311      -0.78615690
H       -0.46516633       1.23209095      -0.86409490
H       -1.15556239       1.50443969       0.72271845
H        0.83322951      -1.10919263      -0.23166705
H        0.01768350      -0.60290169       1.57599142
H        1.87418992       1.17873544      -0.09900171
H        2.28411590       0.19528304       1.38599996
H        2.45781727      -0.87579466      -1.43909411
15
Frame=8 idx=002233 GeodesicLength=0.4016972812894625 rxn_smarts="[C:1]([C:2]([C:3]([C:4]([O:5][H:15])([H:13])[H:14])([H:11])[H:12])([H:9])[H:10])([H:6])([H:7])[H:8]>>[C:1]([C:2]([C:3](=[C:4]([H:13])[H:14])[H:12])([H:9])[H:10])([H:6])([H:7])[H:8].[O:5]([H:11])[H:15]"
C       -2.02825047      -0.15012889      -0.34616039
C       -0.83597081       0.72177208       0.03501796
C        0.28182827      -0.08560589       0.64988281
C        1.62800257       0.33042718       0.52449222
O        2.10673483      -1.20878899      -0.60560140
H       -1.73365214      -0.91246048      -1.07146422
H       -2.43140408      -0.66649361       0.52822913
H       -2.83317892       0.44532848      -0.78081609
H       -0.47151071       1.24452668      -0.85557841
H       -1.15546553       1.49932391       0.73721680
H        0.82139319      -1.12821472      -0.23907773
H        0.02121485      -0.60279410       1.57186724
H        1.86826736       1.18127293      -0.10984397
H        2.27390391       0.21897015       1.38905850
H        2.48808770      -0.88713473      -1.42722246
15
Frame=9 idx=002233 GeodesicLength=0.4515796545964831 rxn_smarts="[C:1]([C:2]([C:3]([C:4]([O:5][H:15])([H:13])[H:14])([H:11])[H:12])([H:9])[H:10])([H:6])([H:7])[H:8]>>[C:1]([C:2]([C:3](=[C:4]([H:13])[H:14])[H:12])([H:9])[H:10])([H:6])([H:7])[H:8].[O:5]([H:11])[H:15]"
C       -2.02833943      -0.14776486      -0.34567304
C       -0.83764320       0.72463337       0.03978967
C        0.28261996      -0.08647762       0.64403840
C        1.62857846       0.33224048       0.51581009
O        2.10583394      -1.22492099      -0.61051697
H       -1.73217054      -0.90445541      -1.07627553
H       -2.42924702      -0.67094537       0.52568260
H       -2.83499855       0.44881277      -0.77543755
H       -0.47773889       1.25679807      -0.84695772
H       -1.15510354       1.49404394       0.75164217
H        0.80925889      -1.14752142      -0.24643369
H        0.02488439      -0.60287621       1.56755007
H        1.86227869       1.18393782      -0.12050630
H        2.26335467       0.24304754       1.39172254
H        2.51843217      -0.89855210      -1.41443472
15
Frame=10 idx=002233 GeodesicLength=0.5013799400830978 rxn_smarts="[C:1]([C:2]([C:3]([C:4]([O:5][H:15])([H:13])[H:14])([H:11])[H:12])([H:9])[H:10])([H:6])([H:7])[H:8]>>[C:1]([C:2]([C:3](=[C:4]([H:13])[H:14])[H:12])([H:9])[H:10])([H:6])([H:7])[H:8].[O:5]([H:11])[H:15]"
C       -2.02837234      -0.14537736      -0.34516143
C       -0.83919058       0.72740597       0.04456993
C        0.28352002      -0.08742031       0.63806538
C        1.62926560       0.33410050       0.50721013
O        2.10458388      -1.24072921      -0.61618592
H       -1.73072929      -0.89642849      -1.08101523
H       -2.42704522      -0.67529728       0.52313243
H       -2.83671912       0.45233323      -0.77003263
H       -0.48383929       1.26890244      -0.83823632
H       -1.15447768       1.48860202       0.76598594
H        0.79681952      -1.16712505      -0.25369249
H        0.02869581      -0.60313322       1.56304884
H        1.85623404       1.18674289      -0.13096973
H        2.25246587       0.26748788       1.39398735
H        2.54878878      -0.91006401      -1.40070623
15
Frame=11 idx=002233 GeodesicLength=0.5510967120692781 rxn_smarts="[C:1]([C:2]([C:3]([C:4]([O:5][H:15])([H:13])[H:14])([H:11])[H:12])([H:9])[H:10])([H:6])([H:7])[H:8]>>[C:1]([C:2]([C:3](=[C:4]([H:13])[H:14])[H:12])([H:9])[H:10])([H:6])([H:7])[H:8].[O:5]([H:11])[H:15]"
C       -2.02833306      -0.14297662      -0.34463230
C       -0.84060349       0.73008933       0.04935408
C        0.28453539      -0.08842204       0.63197452
C        1.63007219       0.33602305       0.49871476
O        2.10295461      -1.25616315      -0.62269736
H       -1.72930186      -0.88839609      -1.08568215
H       -2.42478873      -0.67955461       0.52057425
H       -2.83832293       0.45587333      -0.76462008
H       -0.48979500       1.28083225      -0.82942212
H       -1.15358801       1.48300374       0.78023360
H        0.78407113      -1.18704234      -0.26079856
H        0.03265142      -0.60354658       1.55837744
H        1.85014585       1.18970519      -0.14120491
H        2.24123836       0.29225691       1.39585469
H        2.57906414      -0.92168236      -1.38602585
15
Frame=12 idx=002233 GeodesicLength=0.6007282546426227 rxn_smarts="[C:1]([C:2]([C:3]([C:4]([O:5][H:15])([H:13])[H:14])([H:11])[H:12])([H:9])[H:10])([H:6])([H:7])[H:8]>>[C:1]([C:2]([C:3](=[C:4]([H:13])[H:14])[H:12])([H:9])[H:10])([H:6])([H:7])[H:8].[O:5]([H:11])[H:15]"
C       -2.02820539      -0.14057171      -0.34408997
C       -0.84187560       0.73268389       0.05413756
C        0.28567228      -0.08947086       0.62577416
C        1.63100363       0.33802534       0.49034477
O        2.10091594      -1.27116723      -0.63014845
H       -1.72785898      -0.88037511      -1.09027007
H       -2.42246699      -0.68372015       0.51800614
H       -2.83979295       0.45941778      -0.75921685
H       -0.49559402       1.29258118      -0.82052275
H       -1.15244014       1.47725607       0.79437011
H        0.77101322      -1.20728656      -0.26769890
H        0.03675356      -0.60410021       1.55354485
H        1.84402274       1.19284468      -0.15118198
H        2.22967340       0.31731478       1.39732390
H        2.60917929      -0.93343187      -1.37037252
15
Frame=13 idx=002233 GeodesicLength=0.6502651332663696 rxn_smarts="[C:1]([C:2]([C:3]([C:4]([O:5][H:15])([H:13])[H:14])([H:11])[H:12])([H:9])[H:10])([H:6])([H:7])[H:8]>>[C:1]([C:2]([C:3](=[C:4]([H:13])[H:14])[H:12])([H:9])[H:10])([H:6])([H:7])[H:8].[O:5]([H:11])[H:15]"
C       -2.02798344      -0.13816825      -0.34354074
C       -0.84301098       0.73519317       0.05892871
C        0.28693887      -0.09054915       0.61946026
C        1.63206526       0.34013717       0.48209827
O        2.09842831      -1.28568982      -0.63861855
H       -1.72638783      -0.87234477      -1.09480329
H       -2.42005848      -0.68782713       0.51540890
H       -2.84113645       0.46295362      -0.75381202
H       -0.50125088       1.30417237      -0.81151893
H       -1.15104528       1.47134073       0.80841609
H        0.75762860      -1.22784724      -0.27436890
H        0.04102247      -0.60477892       1.54854629
H        1.83786816       1.19617346      -0.16091757
H        2.21777768       0.34264687       1.39837767
H        2.63914400      -0.94541210      -1.35365618
15
Frame=14 idx=002233 GeodesicLength=0.6997370798135879 rxn_smarts="[C:1]([C:2]([C:3]([C:4]([O:5][H:15])([H:13])[H:14])([H:11])[H:12])([H:9])[H:10])([H:6])([H:7])[H:8]>>[C:1]([C:2]([C:3](=[C:4]([H:13])[H:14])[H:12])([H:9])[H:10])([H:6])([H:7])[H:8].[O:5]([H:11])[H:15]"
C       -2.02764876      -0.13576976      -0.34300069
C       -0.84401309       0.73762623       0.06375478
C        0.28834563      -0.09165028       0.61302358
C        1.63326066       0.34238993       0.47395590
O        2.09547759      -1.29972434      -0.64816440
H       -1.72484617      -0.86427048      -1.09933436
H       -2.41753807      -0.69192760       0.51274508
H       -2.84234448       0.46648217      -0.74839814
H       -0.50678163       1.31566933      -0.80235861
H       -1.14942928       1.46522639       0.82243668
H        0.74392003      -1.24873813      -0.28078731
H        0.04548333      -0.60558129       1.54337838
H        1.83167853       1.19969216      -0.17047487
H        2.20554279       0.36831118       1.39898699
H        2.66889292      -0.95773551      -1.33576301
15
Frame=15 idx=002233 GeodesicLength=0.7491645148841015 rxn_smarts="[C:1]([C:2]([C:3]([C:4]([O:5][H:15])([H:13])[H:14])([H:11])[H:12])([H:9])[H:10])([H:6])([H:7])[H:8]>>[C:1]([C:2]([C:3](=[C:4]([H:13])[H:14])[H:12])([H:9])[H:10])([H:6])([H:7])[H:8].[O:5]([H:11])[H:15]"
C       -2.02721249      -0.13337617      -0.34246934
C       -0.84490127       0.73999256       0.06863704
C        0.28989918      -0.09275738       0.60644258
C        1.63459343       0.34482562       0.46588603
O        2.09202428      -1.31321770      -0.65889105
H       -1.72323979      -0.85610074      -1.10390875
H       -2.41488591      -0.69608181       0.50999280
H       -2.84345547       0.47000264      -0.74292560
H       -0.51222716       1.32712617      -0.79300070
H       -1.14761600       1.45888214       0.83648657
H        0.72986743      -1.26993239      -0.28697773
H        0.05016645      -0.60651130       1.53801824
H        1.82544950       1.20341708      -0.17992176
H        2.19297884       0.39432000       1.39910425
H        2.69855895      -0.97058871      -1.31647258
15
Frame=16 idx=002233 GeodesicLength=0.7985216185344854 rxn_smarts="[C:1]([C:2]([C:3]([C:4]([O:5][H:15])([H:13])[H:14])([H:11])[H:12])([H:9])[H:10])([H:6])([H:7])[H:8]>>[C:1]([C:2]([C:3](=[C:4]([H:13])[H:14])[H:12])([H:9])[H:10])([H:6])([H:7])[H:8].[O:5]([H:11])[H:15]"
C       -2.02665609      -0.13099143      -0.34192713
C       -0.84567168       0.74228929       0.07356540
C        0.29160562      -0.09386087       0.59968854
C        1.63604858       0.34746852       0.45788186
O        2.08799986      -1.32604595      -0.67100578
H       -1.72155392      -0.84785581      -1.10848376
H       -2.41207080      -0.70027075       0.50717323
H       -2.84444997       0.47350246      -0.73737123
H       -0.51759742       1.33852205      -0.78345253
H       -1.14559496       1.45231190       0.85053971
H        0.71547974      -1.29141612      -0.29294197
H        0.05509076      -0.60757346       1.53241589
H        1.81915457       1.20738523      -0.18922652
H        2.18005566       0.42060768       1.39870411
H        2.72816004      -0.98407273      -1.29555982
