15
Frame=0 idx=008651 GeodesicLength=0.0 rxn_smarts="[C:1]([C@@:2]1([H:11])[O:3][C:4]12[C:5]([H:12])([H:13])[O:6][C:7]2([H:14])[H:15])([H:8])([H:9])[H:10]>>[C:1]([C@@:2]1([H:11])[O:3][C@:4]2([C:5]1([H:12])[H:13])[O:6][C:7]2([H:14])[H:15])([H:8])([H:9])[H:10]"
C        1.59672789      -0.26286039       0.59631312
C        0.83593261       0.95754463       0.17880785
O        0.91928101       1.49130673      -1.09771077
C       -0.26505377       0.65367389      -0.96518675
C       -1.12383513       1.35594930      -0.14885861
O       -1.58048435      -1.72982234       0.66286083
C       -1.26346091      -1.86192917      -0.49156510
H        0.99142726      -0.86454196       1.27644714
H        1.84479641      -0.85757069      -0.27948841
H        2.51127880       0.03583711       1.11519267
H        0.78700676       1.73758649       0.93981446
H       -1.91857237       0.81140046       0.35701458
H       -1.09481929       2.44056289      -0.03263955
H       -1.95700902      -1.63831640      -1.31966828
H       -0.28321585      -2.26882060      -0.79133323
15
Frame=1 idx=008651 GeodesicLength=0.21089063993964274 rxn_smarts="[C:1]([C@@:2]1([H:11])[O:3][C:4]12[C:5]([H:12])([H:13])[O:6][C:7]2([H:14])[H:15])([H:8])([H:9])[H:10]>>[C:1]([C@@:2]1([H:11])[O:3][C@:4]2([C:5]1([H:12])[H:13])[O:6][C:7]2([H:14])[H:15])([H:8])([H:9])[H:10]"
C        1.61767090      -0.24701049       0.63643996
C        0.83451173       0.94454507       0.17689488
O        0.87898646       1.39503846      -1.13627895
C       -0.30224655       0.57871540      -0.91997959
C       -1.13641361       1.31687447      -0.10150978
O       -1.59001996      -1.66603284       0.59079596
C       -1.26207312      -1.80992556      -0.57170691
H        1.03643908      -0.81751017       1.36312894
H        1.84386115      -0.89001170      -0.21111035
H        2.54750879       0.08365767       1.10601944
H        0.82320476       1.77309302       0.88625208
H       -1.89438511       0.82503534       0.50350001
H       -1.12745757       2.40775943      -0.07451595
H       -1.96682150      -1.61916964      -1.39736038
H       -0.30276546      -2.27505845      -0.85056936
15
Frame=2 idx=008651 GeodesicLength=0.42055703391836097 rxn_smarts="[C:1]([C@@:2]1([H:11])[O:3][C:4]12[C:5]([H:12])([H:13])[O:6][C:7]2([H:14])[H:15])([H:8])([H:9])[H:10]>>[C:1]([C@@:2]1([H:11])[O:3][C@:4]2([C:5]1([H:12])[H:13])[O:6][C:7]2([H:14])[H:15])([H:8])([H:9])[H:10]"
C        1.63705827      -0.23082992       0.67286127
C        0.83275550       0.93168273       0.17547349
O        0.84396339       1.30577543      -1.16507859
C       -0.33134739       0.51099278      -0.87983131
C       -1.14716513       1.27601112      -0.05903718
O       -1.60141857      -1.60447676       0.52535912
C       -1.26228359      -1.75946852      -0.64532808
H        1.08043923      -0.76634097       1.44422061
H        1.84144441      -0.91968604      -0.14395429
H        2.58079838       0.12667310       1.09179295
H        0.85197440       1.80130276       0.83348917
H       -1.85874908       0.83413280       0.63351020
H       -1.16651717       2.36578875      -0.11094670
H       -1.97499742      -1.59376029      -1.46839017
H       -0.32595523      -2.27779697      -0.90414049
15
Frame=3 idx=008651 GeodesicLength=0.629210623263093 rxn_smarts="[C:1]([C@@:2]1([H:11])[O:3][C:4]12[C:5]([H:12])([H:13])[O:6][C:7]2([H:14])[H:15])([H:8])([H:9])[H:10]>>[C:1]([C@@:2]1([H:11])[O:3][C@:4]2([C:5]1([H:12])[H:13])[O:6][C:7]2([H:14])[H:15])([H:8])([H:9])[H:10]"
C        1.65545360      -0.21447655       0.70605858
C        0.83072212       0.91886103       0.17462453
O        0.81398109       1.22264218      -1.18638683
C       -0.35419317       0.44896456      -0.84428398
C       -1.15644888       1.23414515      -0.02018443
O       -1.61535049      -1.54515581       0.46574899
C       -1.26371170      -1.71066297      -0.71297217
H        1.12435523      -0.71169020       1.52001014
H        1.83819578      -0.94685268      -0.07768904
H        2.61182566       0.16522234       1.07312255
H        0.87482648       1.82341832       0.78237719
H       -1.81659200       0.83952451       0.74726425
H       -1.21001141       2.31718190      -0.14136671
H       -1.98119436      -1.56320226      -1.53424689
H       -0.35185795      -2.27791952      -0.95207618
15
Frame=4 idx=008651 GeodesicLength=0.837059519642024 rxn_smarts="[C:1]([C@@:2]1([H:11])[O:3][C:4]12[C:5]([H:12])([H:13])[O:6][C:7]2([H:14])[H:15])([H:8])([H:9])[H:10]>>[C:1]([C@@:2]1([H:11])[O:3][C@:4]2([C:5]1([H:12])[H:13])[O:6][C:7]2([H:14])[H:15])([H:8])([H:9])[H:10]"
C        1.67318216      -0.19800583       0.73656619
C        0.82840597       0.90597872       0.17441486
O        0.78856974       1.14458726      -1.20188915
C       -0.37222177       0.39139936      -0.81269506
C       -1.16446263       1.19189275       0.01580519
O       -1.63159347      -1.48822378       0.41122242
C       -1.26593142      -1.66340417      -0.77533138
H        1.16888152      -0.65377338       1.59096678
H        1.83432308      -0.97175197      -0.01173012
H        2.64098038       0.19954259       1.05052382
H        0.89298858       1.84043287       0.73320059
H       -1.77149908       0.84168015       0.84589123
H       -1.25628736       2.26378411      -0.16590880
H       -1.98539399      -1.52811848      -1.59587655
H       -0.37994171      -2.27602021      -0.99516002
15
Frame=5 idx=008651 GeodesicLength=1.0444494250807554 rxn_smarts="[C:1]([C@@:2]1([H:11])[O:3][C:4]12[C:5]([H:12])([H:13])[O:6][C:7]2([H:14])[H:15])([H:8])([H:9])[H:10]>>[C:1]([C@@:2]1([H:11])[O:3][C@:4]2([C:5]1([H:12])[H:13])[O:6][C:7]2([H:14])[H:15])([H:8])([H:9])[H:10]"
C        1.69040680      -0.18135502       0.76491629
C        0.82578397       0.89292679       0.17489152
O        0.76718642       1.07048500      -1.21278957
C       -0.38653253       0.33725242      -0.78439312
C       -1.17132970       1.14962535       0.04936165
O       -1.64951796      -1.43379240       0.36113684
C       -1.26860717      -1.61750263      -0.83316507
H        1.21449944      -0.59246453       1.65753209
H        1.82983542      -0.99449778       0.05462876
H        2.66844151       0.22986872       1.02447909
H        0.90742579       1.85310803       0.68592336
H       -1.72578269       0.84086640       0.93102543
H       -1.30402162       2.20681957      -0.18503505
H       -1.98781746      -1.48886017      -1.65394505
H       -0.40997023      -2.27247973      -1.03456717
15
Frame=6 idx=008651 GeodesicLength=1.2515081412474591 rxn_smarts="[C:1]([C@@:2]1([H:11])[O:3][C:4]12[C:5]([H:12])([H:13])[O:6][C:7]2([H:14])[H:15])([H:8])([H:9])[H:10]>>[C:1]([C@@:2]1([H:11])[O:3][C@:4]2([C:5]1([H:12])[H:13])[O:6][C:7]2([H:14])[H:15])([H:8])([H:9])[H:10]"
C        1.70725027      -0.16444611       0.79158509
C        0.82287600       0.87967001       0.17608221
O        0.74942306       0.99939393      -1.21994910
C       -0.39788805       0.28569623      -0.75873702
C       -1.17718400       1.10764983       0.08082130
O       -1.66832565      -1.38202584       0.31488681
C       -1.27146218      -1.57282448      -0.88724943
H        1.26164773      -0.52733009       1.72014327
H        1.82447041      -1.01534838       0.12231232
H        2.69435972       0.25624491       0.99522751
H        0.91890691       1.86216124       0.64030222
H       -1.68115213       0.83720124       1.00444219
H       -1.35231125       2.14728958      -0.19930047
H       -1.98874539      -1.44568285      -1.70885707
H       -0.44186545      -2.26764922      -1.07170984
15
Frame=7 idx=008651 GeodesicLength=1.4583952056921654 rxn_smarts="[C:1]([C@@:2]1([H:11])[O:3][C:4]12[C:5]([H:12])([H:13])[O:6][C:7]2([H:14])[H:15])([H:8])([H:9])[H:10]>>[C:1]([C@@:2]1([H:11])[O:3][C@:4]2([C:5]1([H:12])[H:13])[O:6][C:7]2([H:14])[H:15])([H:8])([H:9])[H:10]"
C        1.72375842      -0.14717376       0.81699544
C        0.81966905       0.86613746       0.17800386
O        0.73484541       0.93044282      -1.22394985
C       -0.40689801       0.23598544      -0.73516722
C       -1.18216923       1.06604797       0.11035158
O       -1.68724984      -1.33307485       0.27208624
C       -1.27432462      -1.52921537      -0.93823446
H        1.31061174      -0.45792182       1.77894739
H        1.81804937      -1.03422286       0.19214379
H        2.71876584       0.27859208       0.96306582
H        0.92798240       1.86802119       0.59609751
H       -1.63856160       0.83087376       1.06785109
H       -1.40042517       2.08577243      -0.20937295
H       -1.98851575      -1.39865310      -1.76090591
H       -0.47553801      -2.26161140      -1.10791233
15
Frame=8 idx=008651 GeodesicLength=1.6652157078363488 rxn_smarts="[C:1]([C@@:2]1([H:11])[O:3][C:4]12[C:5]([H:12])([H:13])[O:6][C:7]2([H:14])[H:15])([H:8])([H:9])[H:10]>>[C:1]([C@@:2]1([H:11])[O:3][C@:4]2([C:5]1([H:12])[H:13])[O:6][C:7]2([H:14])[H:15])([H:8])([H:9])[H:10]"
C        1.73995210      -0.12944481       0.84146786
C        0.81614193       0.85226219       0.18064473
O        0.72305936       0.86289826      -1.22517507
C       -0.41401649       0.18748219      -0.71317625
C       -1.18644785       1.02482404       0.13807359
O       -1.70561724      -1.28705531       0.23240484
C       -1.27705328      -1.48649696      -0.98665388
H        1.36160683      -0.38388980       1.83380749
H        1.81046555      -1.05091503       0.26487679
H        2.74156300       0.29671817       0.92835311
H        0.93505013       1.87099651       0.55299477
H       -1.59854747       0.82206639       1.12280704
H       -1.44787247       2.02268428      -0.21587813
H       -1.98735126      -1.34773627      -1.81023741
H       -0.51093283      -2.25439386      -1.14430948
15
Frame=9 idx=008651 GeodesicLength=1.871888852679209 rxn_smarts="[C:1]([C@@:2]1([H:11])[O:3][C:4]12[C:5]([H:12])([H:13])[O:6][C:7]2([H:14])[H:15])([H:8])([H:9])[H:10]>>[C:1]([C@@:2]1([H:11])[O:3][C@:4]2([C:5]1([H:12])[H:13])[O:6][C:7]2([H:14])[H:15])([H:8])([H:9])[H:10]"
C        1.75585739      -0.11119036       0.86519152
C        0.81228685       0.83801747       0.18397635
O        0.71387139       0.79615907      -1.22393031
C       -0.41955648       0.13960327      -0.69234949
C       -1.19027566       0.98400448       0.16408772
O       -1.72310510      -1.24396659       0.19559913
C       -1.27956995      -1.44458170      -1.03294670
H        1.41463291      -0.30527249       1.88433417
H        1.80201831      -1.06517794       0.34095151
H        2.76263613       0.31062279       0.89161872
H        0.94039048       1.87142266       0.51069280
H       -1.56150527       0.81101469       1.17071764
H       -1.49422882       1.95856959      -0.21919251
H       -1.98537729      -1.29309695      -1.85699147
H       -0.54807488      -2.24612798      -1.18175909
15
Frame=10 idx=008651 GeodesicLength=2.078565809805301 rxn_smarts="[C:1]([C@@:2]1([H:11])[O:3][C:4]12[C:5]([H:12])([H:13])[O:6][C:7]2([H:14])[H:15])([H:8])([H:9])[H:10]>>[C:1]([C@@:2]1([H:11])[O:3][C@:4]2([C:5]1([H:12])[H:13])[O:6][C:7]2([H:14])[H:15])([H:8])([H:9])[H:10]"
C        1.77138439      -0.09232567       0.88835359
C        0.80803420       0.82329531       0.18795016
O        0.70683733       0.72968823      -1.22035650
C       -0.42386269       0.09183978      -0.67232304
C       -1.19377381       0.94340667       0.18845731
O       -1.73915511      -1.20400770       0.16159347
C       -1.28171437      -1.40322004      -1.07739221
H        1.46966739      -0.22186488       1.92997702
H        1.79253668      -1.07642247       0.42082707
H        2.78175836       0.31990411       0.85333774
H        0.94422139       1.86928402       0.46893387
H       -1.52739369       0.79793498       1.21264807
H       -1.53912456       1.89355864      -0.21985001
H       -1.98261773      -1.23452383      -1.90112091
H       -0.58679779      -2.23654715      -1.22103561
15
Frame=11 idx=008651 GeodesicLength=2.285197932659405 rxn_smarts="[C:1]([C@@:2]1([H:11])[O:3][C:4]12[C:5]([H:12])([H:13])[O:6][C:7]2([H:14])[H:15])([H:8])([H:9])[H:10]>>[C:1]([C@@:2]1([H:11])[O:3][C@:4]2([C:5]1([H:12])[H:13])[O:6][C:7]2([H:14])[H:15])([H:8])([H:9])[H:10]"
C        1.78649583      -0.07282218       0.91099930
C        0.80332871       0.80803261       0.19249296
O        0.70173680       0.66306464      -1.21458925
C       -0.42717889       0.04372560      -0.65278877
C       -1.19718089       0.90295357       0.21125972
O       -1.75359901      -1.16722833       0.13029179
C       -1.28334365      -1.36225272      -1.12017018
H        1.52647742      -0.13403390       1.97002148
H        1.78237980      -1.08416395       0.50460415
H        2.79874379       0.32449509       0.81418745
H        0.94666688       1.86467515       0.42742766
H       -1.49630177       0.78306852       1.24956097
H       -1.58225227       1.82808927      -0.21815059
H       -1.97891621      -1.17204756      -1.94255107
H       -0.62705653      -2.22555581      -1.26259562
15
Frame=12 idx=008651 GeodesicLength=2.4918336160627104 rxn_smarts="[C:1]([C@@:2]1([H:11])[O:3][C:4]12[C:5]([H:12])([H:13])[O:6][C:7]2([H:14])[H:15])([H:8])([H:9])[H:10]>>[C:1]([C@@:2]1([H:11])[O:3][C@:4]2([C:5]1([H:12])[H:13])[O:6][C:7]2([H:14])[H:15])([H:8])([H:9])[H:10]"
C        1.80100646      -0.05264893       0.93312796
C        0.79808452       0.79214071       0.19751351
O        0.69820016       0.59597811      -1.20667862
C       -0.42978010      -0.00509580      -0.63354466
C       -1.20059443       0.86248189       0.23256995
O       -1.76613903      -1.13379027       0.10170069
C       -1.28420873      -1.32146173      -1.16132973
H        1.58468505      -0.04208107       2.00363081
H        1.77147409      -1.08769479       0.59217004
H        2.81329381       0.32409147       0.77485351
H        0.94785633       1.85749414       0.38600767
H       -1.46797898       0.76666089       1.28218541
H       -1.62329505       1.76241053      -0.21440007
H       -1.97400230      -1.10567400      -1.98107935
H       -0.66860180      -2.21281114      -1.30672712
15
Frame=13 idx=008651 GeodesicLength=2.6984450445734502 rxn_smarts="[C:1]([C@@:2]1([H:11])[O:3][C:4]12[C:5]([H:12])([H:13])[O:6][C:7]2([H:14])[H:15])([H:8])([H:9])[H:10]>>[C:1]([C@@:2]1([H:11])[O:3][C@:4]2([C:5]1([H:12])[H:13])[O:6][C:7]2([H:14])[H:15])([H:8])([H:9])[H:10]"
C        1.81483045      -0.03186654       0.95463943
C        0.79221247       0.77555919       0.20288132
O        0.69598519       0.52823671      -1.19673708
C       -0.43193424      -0.05488847      -0.61445925
C       -1.20423792       0.82194223       0.25246659
O       -1.77672267      -1.10374660       0.07579249
C       -1.28402813      -1.28066924      -1.20079168
H        1.64381862       0.05313244       2.03002594
H        1.76013695      -1.08650808       0.68317723
H        2.82525411       0.31866756       0.73612471
H        0.94784024       1.84771199       0.34443401
H       -1.44239483       0.74897918       1.31117977
H       -1.66213400       1.69700176      -0.20885775
H       -1.96743816      -1.03553156      -2.01642589
H       -0.71118808      -2.19802057      -1.35344984
15
Frame=14 idx=008651 GeodesicLength=2.904995851533501 rxn_smarts="[C:1]([C@@:2]1([H:11])[O:3][C:4]12[C:5]([H:12])([H:13])[O:6][C:7]2([H:14])[H:15])([H:8])([H:9])[H:10]>>[C:1]([C@@:2]1([H:11])[O:3][C@:4]2([C:5]1([H:12])[H:13])[O:6][C:7]2([H:14])[H:15])([H:8])([H:9])[H:10]"
C        1.82767049      -0.01055553       0.97535471
C        0.78561497       0.75826038       0.20847661
O        0.69478331       0.45985954      -1.18480079
C       -0.43392078      -0.10569962      -0.59556991
C       -1.20815619       0.78128772       0.27105290
O       -1.78518747      -1.07713632       0.05258325
C       -1.28238596      -1.23973425      -1.23837019
H        1.70320217       0.15077829       2.04837603
H        1.74817196      -1.08000936       0.77688631
H        2.83433343       0.30799710       0.69869238
H        0.94672021       1.83521960       0.30273751
H       -1.41919918       0.73031440       1.33702757
H       -1.69863888       1.63220025      -0.20169108
H       -1.95867601      -0.96201373      -2.04824821
H       -0.75433207      -2.18076847      -1.40250709
15
Frame=15 idx=008651 GeodesicLength=3.111452694854633 rxn_smarts="[C:1]([C@@:2]1([H:11])[O:3][C:4]12[C:5]([H:12])([H:13])[O:6][C:7]2([H:14])[H:15])([H:8])([H:9])[H:10]>>[C:1]([C@@:2]1([H:11])[O:3][C@:4]2([C:5]1([H:12])[H:13])[O:6][C:7]2([H:14])[H:15])([H:8])([H:9])[H:10]"
C        1.83940717       0.01108726       0.99504616
C        0.77821246       0.74026338       0.21413221
O        0.69439986       0.39099521      -1.17105261
C       -0.43606938      -0.15741265      -0.57703665
C       -1.21255099       0.74060917       0.28841544
O       -1.79155208      -1.05390119       0.03208012
C       -1.27889001      -1.19857413      -1.27379443
H        1.76222405       0.24949656       2.05812291
H        1.73571179      -1.06790155       0.87248165
H        2.84050857       0.29216933       0.66331673
H        0.94456378       1.82001983       0.26084337
H       -1.39830982       0.71098056       1.36018607
H       -1.73300590       1.56849178      -0.19311274
H       -1.94719695      -0.88563657      -2.07618551
H       -0.79745255      -2.16068699      -1.45344273
15
Frame=16 idx=008651 GeodesicLength=3.317785551217658 rxn_smarts="[C:1]([C@@:2]1([H:11])[O:3][C:4]12[C:5]([H:12])([H:13])[O:6][C:7]2([H:14])[H:15])([H:8])([H:9])[H:10]>>[C:1]([C@@:2]1([H:11])[O:3][C@:4]2([C:5]1([H:12])[H:13])[O:6][C:7]2([H:14])[H:15])([H:8])([H:9])[H:10]"
C        1.84971111       0.03287050       1.01347283
C        0.76995882       0.72168563       0.21969190
O        0.69463273       0.32204499      -1.15562722
C       -0.43866079      -0.20962742      -0.55922062
C       -1.21741143       0.70001068       0.30467663
O       -1.79561424      -1.03397436       0.01427988
C       -1.27308071      -1.15718815      -1.30676255
H        1.82017669       0.34816507       2.05876693
H        1.72228714      -1.04988211       0.96889929
H        2.84358216       0.27094465       0.63054969
H        0.94151447       1.80217329       0.21896848
H       -1.37929591       0.69126114       1.38098084
H       -1.76547844       1.50610442      -0.18319174
H       -1.93250919      -0.80718392      -2.09984991
H       -0.83981240      -2.13740442      -1.50563443
