17
Frame=0 idx=007738 GeodesicLength=0.0 rxn_smarts="[C:1]([C:2]1=[C:3]([H:11])[C:4]([H:12])([H:13])[C:5]([H:14])([H:15])[C@:6]1([O:7][H:17])[H:16])([H:8])([H:9])[H:10]>>[C:1](/[C:2](=[C:3](\[C:4]([C:5]([C:6](=[O:7])[H:16])([H:14])[H:15])([H:12])[H:13])[H:11])[H:17])([H:8])([H:9])[H:10]"
C        2.09402743       0.08006150      -0.24493490
C        0.71210004       0.12061439       0.39900097
C       -0.06766941      -0.97905962       0.81267544
C       -1.43325729      -0.97832928       0.26463290
C       -1.46393984       0.17297019      -0.73713492
C       -0.29442638       1.10691495      -0.30137553
O       -0.53196645       1.95653818       0.68421732
H        2.48130908       1.09586200      -0.30976901
H        2.01858801      -0.33246598      -1.25127638
H        2.78851712      -0.52800262       0.33483229
H        0.19783118      -1.60340532       1.66280975
H       -2.12876906      -0.83860860       1.10269121
H       -1.69347264      -1.95887566      -0.15435732
H       -1.29518086      -0.19648969      -1.75193069
H       -2.40708873       0.71759999      -0.72643096
H        0.17784921       1.55081521      -1.20307840
H        0.84554858       0.61386038       1.41942827
17
Frame=1 idx=007738 GeodesicLength=0.12951685133385418 rxn_smarts="[C:1]([C:2]1=[C:3]([H:11])[C:4]([H:12])([H:13])[C:5]([H:14])([H:15])[C@:6]1([O:7][H:17])[H:16])([H:8])([H:9])[H:10]>>[C:1](/[C:2](=[C:3](\[C:4]([C:5]([C:6](=[O:7])[H:16])([H:14])[H:15])([H:12])[H:13])[H:11])[H:17])([H:8])([H:9])[H:10]"
C        2.09993535       0.06044433      -0.24744501
C        0.72316216       0.11404527       0.40147364
C       -0.06038603      -0.97649044       0.81496981
C       -1.42429789      -0.98283201       0.25803690
C       -1.46822014       0.17587895      -0.73491819
C       -0.31212787       1.12251218      -0.30177387
O       -0.53904355       1.95864011       0.69680786
H        2.49755135       1.07216692      -0.31745628
H        2.01818107      -0.35436213      -1.25252015
H        2.79342145      -0.55021382       0.33100601
H        0.19026494      -1.57840411       1.68543340
H       -2.12683709      -0.85408178       1.09166934
H       -1.66684639      -1.96130608      -0.17517258
H       -1.29363064      -0.18503097      -1.75194464
H       -2.41815654       0.70889185      -0.72357227
H        0.14931400       1.58223383      -1.20052341
H        0.83771583       0.64790790       1.42592943
17
Frame=2 idx=007738 GeodesicLength=0.25894015929037617 rxn_smarts="[C:1]([C:2]1=[C:3]([H:11])[C:4]([H:12])([H:13])[C:5]([H:14])([H:15])[C@:6]1([O:7][H:17])[H:16])([H:8])([H:9])[H:10]>>[C:1](/[C:2](=[C:3](\[C:4]([C:5]([C:6](=[O:7])[H:16])([H:14])[H:15])([H:12])[H:13])[H:11])[H:17])([H:8])([H:9])[H:10]"
C        2.10593310       0.04036862      -0.24986487
C        0.73465277       0.10752950       0.40444806
C       -0.05303879      -0.97365381       0.81759402
C       -1.41506685      -0.98708012       0.25148026
C       -1.47228400       0.17866423      -0.73278094
C       -0.33054618       1.13856905      -0.30187018
O       -0.54664540       1.96077229       0.70963676
H        2.51385979       1.04786912      -0.32535901
H        2.01747107      -0.37688758      -1.25353605
H        2.79842048      -0.57296539       0.32715778
H        0.18255287      -1.55330390       1.70708337
H       -2.12464220      -0.86939000       1.08048826
H       -1.63975272      -1.96309966      -0.19578638
H       -1.29140137      -0.17367142      -1.75186120
H       -2.42912676       0.69954197      -0.72137591
H        0.11939219       1.61445313      -1.19739641
H        0.83022200       0.68228400       1.43194245
17
Frame=3 idx=007738 GeodesicLength=0.3883286624657955 rxn_smarts="[C:1]([C:2]1=[C:3]([H:11])[C:4]([H:12])([H:13])[C:5]([H:14])([H:15])[C@:6]1([O:7][H:17])[H:16])([H:8])([H:9])[H:10]>>[C:1](/[C:2](=[C:3](\[C:4]([C:5]([C:6](=[O:7])[H:16])([H:14])[H:15])([H:12])[H:13])[H:11])[H:17])([H:8])([H:9])[H:10]"
C        2.11203975       0.01981187      -0.25218814
C        0.74660360       0.10102502       0.40790075
C       -0.04562040      -0.97055568       0.82051289
C       -1.40555626      -0.99106154       0.24496063
C       -1.47612934       0.18133965      -0.73073271
C       -0.34973190       1.15508866      -0.30167370
O       -0.55475674       1.96292043       0.72269938
H        2.53025591       1.02293120      -0.33345163
H        2.01648102      -0.40001487      -1.25432160
H        2.80351530      -0.59629830       0.32329485
H        0.17470310      -1.52810682       1.72780565
H       -2.12214923      -0.88452586       1.06915020
H       -1.61219570      -1.96423557      -0.21617961
H       -1.28848526      -0.16237446      -1.75168649
H       -2.43998732       0.68953827      -0.71986602
H        0.08795188       1.64749426      -1.19369944
H        0.82306159       0.71702373       1.43747500
17
Frame=4 idx=007738 GeodesicLength=0.517726324412016 rxn_smarts="[C:1]([C:2]1=[C:3]([H:11])[C:4]([H:12])([H:13])[C:5]([H:14])([H:15])[C@:6]1([O:7][H:17])[H:16])([H:8])([H:9])[H:10]>>[C:1](/[C:2](=[C:3](\[C:4]([C:5]([C:6](=[O:7])[H:16])([H:14])[H:15])([H:12])[H:13])[H:11])[H:17])([H:8])([H:9])[H:10]"
C        2.11827256      -0.00125147      -0.25440913
C        0.75904754       0.09448869       0.41181382
C       -0.03812279      -0.96719946       0.82370277
C       -1.39575771      -0.99476296       0.23847549
C       -1.47975194       0.18391824      -0.72878420
C       -0.36973339       1.17208137      -0.30118734
O       -0.56336036       1.96506808       0.73598725
H        2.54676073       0.99731644      -0.34171297
H        2.01522997      -0.42372291      -1.25487334
H        2.80870662      -0.62025480       0.31942256
H        0.16673011      -1.50281489       1.74764414
H       -2.11933493      -0.89947598       1.05765831
H       -1.58417861      -1.96469785      -0.23634329
H       -1.28486389      -0.15110383      -1.75142695
H       -2.45072353       0.67886979      -0.71907220
H        0.05484361       1.68137660      -1.18942181
H        0.81623601       0.75216495       1.44252692
17
Frame=5 idx=007738 GeodesicLength=0.647143457112818 rxn_smarts="[C:1]([C:2]1=[C:3]([H:11])[C:4]([H:12])([H:13])[C:5]([H:14])([H:15])[C@:6]1([O:7][H:17])[H:16])([H:8])([H:9])[H:10]>>[C:1](/[C:2](=[C:3](\[C:4]([C:5]([C:6](=[O:7])[H:16])([H:14])[H:15])([H:12])[H:13])[H:11])[H:17])([H:8])([H:9])[H:10]"
C        2.12464486      -0.02284891      -0.25651778
C        0.77202311       0.08787709       0.41617822
C       -0.03053864      -0.96359349       0.82712984
C       -1.38564611      -0.99817453       0.23202028
C       -1.48314356       0.18641272      -0.72694165
C       -0.39061689       1.18955114      -0.30041070
O       -0.57244105       1.96718922       0.74949415
H        2.56336955       0.97098713      -0.35011639
H        2.01372391      -0.44800219      -1.25518345
H        2.81398911      -0.64488096       0.31554872
H        0.15861801      -1.47740272       1.76660755
H       -2.11613879      -0.91423887       1.04601243
H       -1.55569812      -1.96444204      -0.25624365
H       -1.28051741      -0.13981824      -1.75108484
H       -2.46131115       0.66751756      -0.71902454
H        0.01993941       1.71611851      -1.18453835
H        0.80974375       0.78774856       1.44707016
17
Frame=6 idx=007738 GeodesicLength=0.7766326476440113 rxn_smarts="[C:1]([C:2]1=[C:3]([H:11])[C:4]([H:12])([H:13])[C:5]([H:14])([H:15])[C@:6]1([O:7][H:17])[H:16])([H:8])([H:9])[H:10]>>[C:1](/[C:2](=[C:3](\[C:4]([C:5]([C:6](=[O:7])[H:16])([H:14])[H:15])([H:12])[H:13])[H:11])[H:17])([H:8])([H:9])[H:10]"
C        2.13117899      -0.04502034      -0.25850853
C        0.78556948       0.08115036       0.42097884
C       -0.02285627      -0.95972703       0.83077854
C       -1.37520905      -1.00127506       0.22559188
C       -1.48629783       0.18884071      -0.72521688
C       -0.41245085       1.20750608      -0.29934070
O       -0.58197862       1.96927960       0.76321641
H        2.58012695       0.94388693      -0.35863613
H        2.01198472      -0.47284060      -1.25524853
H        2.81935656      -0.67023981       0.31168111
H        0.15039599      -1.45186585       1.78474211
H       -2.11254235      -0.92880318       1.03420876
H       -1.52674895      -1.96345645      -0.27588520
H       -1.27541727      -0.12846772      -1.75066156
H       -2.47172699       0.65546337      -0.71976309
H       -0.01697009       1.75174205      -1.17902487
H        0.80358558       0.82382692       1.45108785
17
Frame=7 idx=007738 GeodesicLength=0.9062112994224671 rxn_smarts="[C:1]([C:2]1=[C:3]([H:11])[C:4]([H:12])([H:13])[C:5]([H:14])([H:15])[C@:6]1([O:7][H:17])[H:16])([H:8])([H:9])[H:10]>>[C:1](/[C:2](=[C:3](\[C:4]([C:5]([C:6](=[O:7])[H:16])([H:14])[H:15])([H:12])[H:13])[H:11])[H:17])([H:8])([H:9])[H:10]"
C        2.13789480      -0.06780718      -0.26037694
C        0.79973101       0.07426859       0.42621081
C       -0.01506229      -0.95559510       0.83464557
C       -1.36443038      -1.00405106       0.21917907
C       -1.48919939       0.19122038      -0.72362063
C       -0.43530874       1.22595579      -0.29796300
O       -0.59195977       1.97132221       0.77716033
H        2.59706576       0.91596413      -0.36725099
H        2.01001673      -0.49824166      -1.25506891
H        2.82481279      -0.69639663       0.30781602
H        0.14207158      -1.42617219       1.80209868
H       -2.10852775      -0.94316243       1.02223558
H       -1.49732892      -1.96172276      -0.29527217
H       -1.26951447      -0.11699617      -1.75015795
H       -2.48194349       0.64268396      -0.72133536
H       -0.05609487       1.78827140      -1.17284007
H        0.79777740       0.86045873       1.45453996
17
Frame=8 idx=007738 GeodesicLength=1.0358962964550806 rxn_smarts="[C:1]([C:2]1=[C:3]([H:11])[C:4]([H:12])([H:13])[C:5]([H:14])([H:15])[C@:6]1([O:7][H:17])[H:16])([H:8])([H:9])[H:10]>>[C:1](/[C:2](=[C:3](\[C:4]([C:5]([C:6](=[O:7])[H:16])([H:14])[H:15])([H:12])[H:13])[H:11])[H:17])([H:8])([H:9])[H:10]"
C        2.14480989      -0.09125988      -0.26211201
C        0.81455381       0.06719317       0.43188013
C       -0.00714575      -0.95118080       0.83872547
C       -1.35328316      -1.00648385       0.21277059
C       -1.49183215       0.19357734      -0.72215930
C       -0.45928221       1.24491503      -0.29626324
O       -0.60236466       1.97330663       0.79132351
H        2.61422655       0.88714621      -0.37592977
H        2.00782010      -0.52420656      -1.25464289
H        2.83034241      -0.72344021       0.30395270
H        0.13365472      -1.40028609       1.81871694
H       -2.10406060      -0.95731681       1.01007561
H       -1.46740813      -1.95921479      -0.31440971
H       -1.26275472      -0.10533030      -1.74956616
H       -2.49191924       0.62915079      -0.72379133
H       -0.09768870       1.82571847      -1.16593612
H        0.79233184       0.89771166       1.45736560
17
Frame=9 idx=007738 GeodesicLength=1.1655725734249136 rxn_smarts="[C:1]([C:2]1=[C:3]([H:11])[C:4]([H:12])([H:13])[C:5]([H:14])([H:15])[C@:6]1([O:7][H:17])[H:16])([H:8])([H:9])[H:10]>>[C:1](/[C:2](=[C:3](\[C:4]([C:5]([C:6](=[O:7])[H:16])([H:14])[H:15])([H:12])[H:13])[H:11])[H:17])([H:8])([H:9])[H:10]"
C        2.15195601      -0.11551828      -0.26368635
C        0.83013847       0.05992864       0.43801506
C        0.00092581      -0.94636481       0.84309018
C       -1.34170244      -1.00853294       0.20630449
C       -1.49416913       0.19597865      -0.72085158
C       -0.48459878       1.26443411      -0.29416745
O       -0.61319824       1.97525663       0.80579637
H        2.63170277       0.85729221      -0.38467508
H        2.00536622      -0.55088662      -1.25391964
H        2.83592003      -0.75152611       0.30014993
H        0.12519202      -1.37412766       1.83476893
H       -2.09916777      -0.97132071       0.99764124
H       -1.43687607      -1.95592203      -0.33345049
H       -1.25498459      -0.09325854      -1.74887164
H       -2.50160144       0.61477790      -0.72720604
H       -0.14229084       1.86406513      -1.15809991
H        0.78738796       0.93572444       1.45916199
17
Frame=10 idx=007738 GeodesicLength=1.29536806956565 rxn_smarts="[C:1]([C:2]1=[C:3]([H:11])[C:4]([H:12])([H:13])[C:5]([H:14])([H:15])[C@:6]1([O:7][H:17])[H:16])([H:8])([H:9])[H:10]>>[C:1](/[C:2](=[C:3](\[C:4]([C:5]([C:6](=[O:7])[H:16])([H:14])[H:15])([H:12])[H:13])[H:11])[H:17])([H:8])([H:9])[H:10]"
C        2.15934446      -0.14056675      -0.26509844
C        0.84648841       0.05239212       0.44458290
C        0.00915334      -0.94121709       0.84765426
C       -1.32968958      -1.01019463       0.19981044
C       -1.49620944       0.19841636      -0.71968934
C       -0.51125462       1.28447184      -0.29168980
O       -0.62439226       1.97714814       0.82048151
H        2.64951207       0.82637035      -0.39341668
H        2.00269599      -0.57816305      -1.25293105
H        2.84153746      -0.78069865       0.29637063
H        0.11664920      -1.34764808       1.85015985
H       -2.09375781      -0.98514343       0.98496941
H       -1.40575834      -1.95178631      -0.35228447
H       -1.24624732      -0.08079622      -1.74806221
H       -2.51095747       0.59958440      -0.73160713
H       -0.18995798       1.90331224      -1.14937348
H        0.78284390       0.97451877       1.46012360
17
Frame=11 idx=007738 GeodesicLength=1.4252722904468544 rxn_smarts="[C:1]([C:2]1=[C:3]([H:11])[C:4]([H:12])([H:13])[C:5]([H:14])([H:15])[C@:6]1([O:7][H:17])[H:16])([H:8])([H:9])[H:10]>>[C:1](/[C:2](=[C:3](\[C:4]([C:5]([C:6](=[O:7])[H:16])([H:14])[H:15])([H:12])[H:13])[H:11])[H:17])([H:8])([H:9])[H:10]"
C        2.16699081      -0.16647362      -0.26633794
C        0.86365766       0.04453681       0.45158797
C        0.01755527      -0.93571564       0.85242239
C       -1.31721464      -1.01144844       0.19326990
C       -1.49793339       0.20091874      -0.71867922
C       -0.53936338       1.30503762      -0.28879030
O       -0.63590144       1.97898222       0.83536580
H        2.66770120       0.79429499      -0.40212981
H        1.99980442      -0.60606076      -1.25166535
H        2.84717951      -0.81105849       0.29261805
H        0.10802545      -1.32076208       1.86493630
H       -2.08780642      -0.99880067       0.97202606
H       -1.37400340      -1.94678079      -0.37094412
H       -1.23647692      -0.06784274      -1.74712265
H       -2.51994782       0.58353795      -0.73705206
H       -0.24098981       1.94345592      -1.13964368
H        0.77872289       1.01417897       1.46013867
17
Frame=12 idx=007738 GeodesicLength=1.5552749592788144 rxn_smarts="[C:1]([C:2]1=[C:3]([H:11])[C:4]([H:12])([H:13])[C:5]([H:14])([H:15])[C@:6]1([O:7][H:17])[H:16])([H:8])([H:9])[H:10]>>[C:1](/[C:2](=[C:3](\[C:4]([C:5]([C:6](=[O:7])[H:16])([H:14])[H:15])([H:12])[H:13])[H:11])[H:17])([H:8])([H:9])[H:10]"
C        2.17491545      -0.19331493      -0.26738568
C        0.88170478       0.03632623       0.45903258
C        0.02615246      -0.92981824       0.85739457
C       -1.30423496      -1.01226542       0.18666126
C       -1.49932454       0.20352583      -0.71782250
C       -0.56906315       1.32613938      -0.28542309
O       -0.64769430       1.98077039       0.85044196
H        2.68634702       0.76094333      -0.41077937
H        1.99668894      -0.63460600      -1.25011505
H        2.85280729      -0.84273614       0.28890533
H        0.09933533      -1.29338567       1.87913058
H       -2.08127606      -1.01230803       0.95877339
H       -1.34154475      -1.94086370      -0.38946421
H       -1.22560086      -0.05426763      -1.74602625
H       -2.52851280       0.56659353      -0.74361378
H       -0.29574585       1.98445561      -1.12877684
H        0.77504600       1.05481146       1.45906708
17
Frame=13 idx=007738 GeodesicLength=1.6853469570191226 rxn_smarts="[C:1]([C:2]1=[C:3]([H:11])[C:4]([H:12])([H:13])[C:5]([H:14])([H:15])[C@:6]1([O:7][H:17])[H:16])([H:8])([H:9])[H:10]>>[C:1](/[C:2](=[C:3](\[C:4]([C:5]([C:6](=[O:7])[H:16])([H:14])[H:15])([H:12])[H:13])[H:11])[H:17])([H:8])([H:9])[H:10]"
C        2.18314149      -0.22117397      -0.26822188
C        0.90068770       0.02771541       0.46691933
C        0.03497042      -0.92347867       0.86258367
C       -1.29071607      -1.01261530       0.17995409
C       -1.50036343       0.20628173      -0.71712426
C       -0.60049128       1.34778054      -0.28153129
O       -0.65971190       1.98254764       0.86569604
H        2.70553388       0.72619816      -0.41931924
H        1.99336195      -0.66382365      -1.24826505
H        2.85838728      -0.87586826       0.28524539
H        0.09060568      -1.26542447       1.89279266
H       -2.07415619      -1.02568612       0.94516462
H       -1.30832304      -1.93400224      -0.40790783
H       -1.21354298      -0.03992625      -1.74474907
H       -2.53660936       0.54871147      -0.75136200
H       -0.35462702       2.02623283      -1.11661616
H        0.77185289       1.09653116       1.45674098
17
Frame=14 idx=007738 GeodesicLength=1.8154689749002748 rxn_smarts="[C:1]([C:2]1=[C:3]([H:11])[C:4]([H:12])([H:13])[C:5]([H:14])([H:15])[C@:6]1([O:7][H:17])[H:16])([H:8])([H:9])[H:10]>>[C:1](/[C:2](=[C:3](\[C:4]([C:5]([C:6](=[O:7])[H:16])([H:14])[H:15])([H:12])[H:13])[H:11])[H:17])([H:8])([H:9])[H:10]"
C        2.19168648      -0.25014703      -0.26881302
C        0.92067970       0.01865313       0.47527320
C        0.04403056      -0.91665563       0.86797708
C       -1.27659627      -1.01245954       0.17312437
C       -1.50102605       0.20923622      -0.71658002
C       -0.63383926       1.36995332      -0.27704882
O       -0.67188180       1.98433081       0.88108895
H        2.72532742       0.68991690      -0.42769383
H        1.98980657      -0.69375550      -1.24609412
H        2.86386548      -0.91060757       0.28166729
H        0.08182560      -1.23676111       1.90591303
H       -2.06636673      -1.03896202       0.93114847
H       -1.27424502      -1.92611373      -0.42630376
H       -1.20021503      -0.02464120      -1.74323824
H       -2.54413893       0.52984686      -0.76038407
H       -0.41807966       2.06870891      -1.10296546
H        0.76916695       1.13945717       1.45292896
17
Frame=15 idx=007738 GeodesicLength=1.9455896092816543 rxn_smarts="[C:1]([C:2]1=[C:3]([H:11])[C:4]([H:12])([H:13])[C:5]([H:14])([H:15])[C@:6]1([O:7][H:17])[H:16])([H:8])([H:9])[H:10]>>[C:1](/[C:2](=[C:3](\[C:4]([C:5]([C:6](=[O:7])[H:16])([H:14])[H:15])([H:12])[H:13])[H:11])[H:17])([H:8])([H:9])[H:10]"
C        2.20056749      -0.28033975      -0.26912488
C        0.94175494       0.00909277       0.48411380
C        0.05336304      -0.90929101       0.87358235
C       -1.26181938      -1.01175438       0.16613605
C       -1.50128980       0.21244728      -0.71618914
C       -0.66930181       1.39264419      -0.27188848
O       -0.68411921       1.98616978       0.89658333
H        2.74581734       0.65194388      -0.43584148
H        1.98601766      -0.72444015      -1.24357816
H        2.86918335      -0.94711987       0.27820053
H        0.07300873      -1.20726995       1.91851295
H       -2.05786231      -1.05216560       0.91666010
H       -1.23922348      -1.91712616      -0.44472099
H       -1.18551955      -0.00820841      -1.74144045
H       -2.55101441       0.50995230      -0.77078030
H       -0.48659657       2.11174014      -1.08758413
H        0.76703396       1.18372494       1.44735891
17
Frame=16 idx=007738 GeodesicLength=2.0756685629745677 rxn_smarts="[C:1]([C:2]1=[C:3]([H:11])[C:4]([H:12])([H:13])[C:5]([H:14])([H:15])[C@:6]1([O:7][H:17])[H:16])([H:8])([H:9])[H:10]>>[C:1](/[C:2](=[C:3](\[C:4]([C:5]([C:6](=[O:7])[H:16])([H:14])[H:15])([H:12])[H:13])[H:11])[H:17])([H:8])([H:9])[H:10]"
C        2.20980601      -0.31187725      -0.26911217
C        0.96400080      -0.00101618       0.49347267
C        0.06299777      -0.90131529       0.87941194
C       -1.24631589      -1.01044068       0.15894421
C       -1.50112184       0.21599077      -0.71595001
C       -0.70712107       1.41582491      -0.26593463
O       -0.69630739       1.98813391       0.91212274
H        2.76710936       0.61209275      -0.44369655
H        1.98198511      -0.75594088      -1.24068149
H        2.87426513      -0.98560207       0.27488731
H        0.06415968      -1.17680762       1.93061339
H       -2.04858189      -1.06533131       0.90161354
H       -1.20313298      -1.90692863      -0.46324466
H       -1.16933687       0.00963196      -1.73928507
H       -2.55711562       0.48898060      -0.78267730
H       -0.56079894       2.15511578      -1.07015848
H        0.76550863       1.22948925       1.43967455
