16
Frame=0 idx=010634 GeodesicLength=0.0 rxn_smarts="[C:1]([C@@:2]1([H:11])[N:3]([H:12])[C:4](=[O:5])[C@:6]1([C:7]([H:14])([H:15])[H:16])[H:13])([H:8])([H:9])[H:10]>>[C:1]([C-:2]([N:3]([C:4]1=[O+:5][C@:6]1([C:7]([H:14])([H:15])[H:16])[H:13])[H:12])[H:11])([H:8])([H:9])[H:10]"
C        2.40732672      -1.04467470       0.39960073
C        1.05266841      -0.70488691       0.92089394
N        0.66166776       0.60908323       0.88124125
C       -0.52024615       1.02723247       0.48993738
O       -1.29472687       2.02813413       0.74776907
C       -1.67844075       0.39414899      -0.01748414
C       -1.96570635       0.27966705      -1.46791706
H        2.49342172      -1.00000205      -0.69859426
H        2.69425350      -2.05115069       0.70635195
H        3.16693726      -0.36089757       0.79768983
H        0.23689138      -1.41618626       0.90815358
H        1.33169753       1.31819896       1.15091394
H       -2.44053745       0.10756322       0.70017130
H       -1.05505146       0.08198436      -2.03394228
H       -2.38234077       1.22751659      -1.82259661
H       -2.70781451      -0.49573081      -1.66218866
16
Frame=1 idx=010634 GeodesicLength=0.07857276441005707 rxn_smarts="[C:1]([C@@:2]1([H:11])[N:3]([H:12])[C:4](=[O:5])[C@:6]1([C:7]([H:14])([H:15])[H:16])[H:13])([H:8])([H:9])[H:10]>>[C:1]([C-:2]([N:3]([C:4]1=[O+:5][C@:6]1([C:7]([H:14])([H:15])[H:16])[H:13])[H:12])[H:11])([H:8])([H:9])[H:10]"
C        2.37365343      -1.04715674       0.38120377
C        1.02660301      -0.68939248       0.90943969
N        0.66218506       0.63142850       0.91795221
C       -0.49226849       1.07100564       0.46200720
O       -1.30253728       2.03762701       0.73842277
C       -1.63652389       0.38716614      -0.02091657
C       -1.94442921       0.26825306      -1.46824747
H        2.45666404      -0.97947270      -0.71545049
H        2.64062862      -2.06584045       0.66506360
H        3.14705104      -0.38729606       0.79222917
H        0.21520611      -1.40302144       0.96099395
H        1.34231062       1.32776815       1.19426174
H       -2.38627497       0.07927780       0.70149370
H       -1.03576355       0.12446737      -2.05332035
H       -2.42197458       1.19209161      -1.80878508
H       -2.64452996      -0.54690542      -1.65634784
16
Frame=2 idx=010634 GeodesicLength=0.15648881718365115 rxn_smarts="[C:1]([C@@:2]1([H:11])[N:3]([H:12])[C:4](=[O:5])[C@:6]1([C:7]([H:14])([H:15])[H:16])[H:13])([H:8])([H:9])[H:10]>>[C:1]([C-:2]([N:3]([C:4]1=[O+:5][C@:6]1([C:7]([H:14])([H:15])[H:16])[H:13])[H:12])[H:11])([H:8])([H:9])[H:10]"
C        2.34236877      -1.04943568       0.36517243
C        1.00052330      -0.67435496       0.89430835
N        0.66229611       0.65160617       0.94544328
C       -0.46703424       1.11073546       0.43732403
O       -1.30855057       2.04546469       0.72961775
C       -1.59699471       0.38103601      -0.02346554
C       -1.92523874       0.25819904      -1.46754199
H        2.42771380      -0.96069538      -0.72919044
H        2.58882503      -2.07877432       0.62878754
H        3.12679952      -0.41281501       0.79103212
H        0.19795110      -1.39021416       1.00831216
H        1.35077612       1.33521190       1.23163455
H       -2.33519096       0.05399829       0.70307388
H       -1.02175386       0.16648560      -2.07076814
H       -2.45938992       1.15610685      -1.79254382
H       -2.58310075      -0.59255450      -1.65119615
16
Frame=3 idx=010634 GeodesicLength=0.23397947462039986 rxn_smarts="[C:1]([C@@:2]1([H:11])[N:3]([H:12])[C:4](=[O:5])[C@:6]1([C:7]([H:14])([H:15])[H:16])[H:13])([H:8])([H:9])[H:10]>>[C:1]([C-:2]([N:3]([C:4]1=[O+:5][C@:6]1([C:7]([H:14])([H:15])[H:16])[H:13])[H:12])[H:11])([H:8])([H:9])[H:10]"
C        2.31293275      -1.05164825       0.35101330
C        0.97463656      -0.65972050       0.87694279
N        0.66231916       0.67007202       0.96601868
C       -0.44415152       1.14717116       0.41530163
O       -1.31324990       2.05215072       0.72111735
C       -1.55961163       0.37565233      -0.02537200
C       -1.90769082       0.24917846      -1.46607211
H        2.40455477      -0.94341639      -0.74045907
H        2.53858413      -2.09039266       0.59613223
H        3.10624811      -0.43790743       0.79304474
H        0.18459395      -1.37724572       1.05111975
H        1.35763922       1.34106272       1.26426040
H       -2.28697388       0.03117304       0.70475223
H       -1.01216791       0.20832147      -2.08645289
H       -2.49488835       1.11928822      -1.77433237
H       -2.52277464      -0.63373919      -1.64701467
16
Frame=4 idx=010634 GeodesicLength=0.3113411413988387 rxn_smarts="[C:1]([C@@:2]1([H:11])[N:3]([H:12])[C:4](=[O:5])[C@:6]1([C:7]([H:14])([H:15])[H:16])[H:13])([H:8])([H:9])[H:10]>>[C:1]([C-:2]([N:3]([C:4]1=[O+:5][C@:6]1([C:7]([H:14])([H:15])[H:16])[H:13])[H:12])[H:11])([H:8])([H:9])[H:10]"
C        2.28470756      -1.05370391       0.33812722
C        0.94904703      -0.64548724       0.85885515
N        0.66226051       0.68709450       0.98202483
C       -0.42321341       1.18092123       0.39557900
O       -1.31690343       2.05810057       0.71265992
C       -1.52408119       0.37096093      -0.02670461
C       -1.89114887       0.24076617      -1.46398750
H        2.38489789      -0.92724432      -0.74998866
H        2.48971032      -2.10075920       0.56573991
H        3.08534594      -0.46258426       0.79680183
H        0.17449532      -1.36398058       1.08997251
H        1.36319674       1.34568524       1.29349295
H       -2.24136363       0.01059910       0.70646164
H       -1.00601546       0.24927667      -2.10027746
H       -2.52778703       1.08138057      -1.75489565
H       -2.46314829      -0.67102545      -1.64386109
16
Frame=5 idx=010634 GeodesicLength=0.38874782370560007 rxn_smarts="[C:1]([C@@:2]1([H:11])[N:3]([H:12])[C:4](=[O:5])[C@:6]1([C:7]([H:14])([H:15])[H:16])[H:13])([H:8])([H:9])[H:10]>>[C:1]([C-:2]([N:3]([C:4]1=[O+:5][C@:6]1([C:7]([H:14])([H:15])[H:16])[H:13])[H:12])[H:11])([H:8])([H:9])[H:10]"
C        2.25712239      -1.05551027       0.32598873
C        0.92383754      -0.63163259       0.84141173
N        0.66210724       0.70286406       0.99519273
C       -0.40386252       1.21233568       0.37800817
O       -1.31953221       2.06366005       0.70387283
C       -1.49009583       0.36692569      -0.02751609
C       -1.87497344       0.23264712      -1.46140379
H        2.36665600      -0.91179805      -0.75846266
H        2.44197888      -2.10996065       0.53657317
H        3.06407865      -0.48676412       0.80096390
H        0.16695367      -1.35039390       1.12539395
H        1.36763257       1.34930120       1.32049082
H       -2.19821929      -0.00769671       0.70810655
H       -1.00227787       0.28903594      -2.11222254
H       -2.55790728       1.04203922      -1.73475707
H       -2.40349850      -0.70505267      -1.64164044
16
Frame=6 idx=010634 GeodesicLength=0.4664827444403505 rxn_smarts="[C:1]([C@@:2]1([H:11])[N:3]([H:12])[C:4](=[O:5])[C@:6]1([C:7]([H:14])([H:15])[H:16])[H:13])([H:8])([H:9])[H:10]>>[C:1]([C-:2]([N:3]([C:4]1=[O+:5][C@:6]1([C:7]([H:14])([H:15])[H:16])[H:13])[H:12])[H:11])([H:8])([H:9])[H:10]"
C        2.22972733      -1.05698179       0.31425483
C        0.89910054      -0.61812540       0.82570938
N        0.66175953       0.71759233       1.00703326
C       -0.38566008       1.24178241       0.36224649
O       -1.32131712       2.06898635       0.69468037
C       -1.45735571       0.36343815      -0.02783470
C       -1.85873010       0.22457598      -1.45843091
H        2.34812643      -0.89705261      -0.76635987
H        2.39526319      -2.11790360       0.50811727
H        3.04246693      -0.51020635       0.80427349
H        0.16128694      -1.33671346       1.15776877
H        1.37116824       1.35224902       1.34592456
H       -2.15723618      -0.02404640       0.70968291
H       -1.00027613       0.32731799      -2.12233329
H       -2.58471688       1.00128867      -1.71436425
H       -2.34360694      -0.73620129      -1.64036832
16
Frame=7 idx=010634 GeodesicLength=0.5446154898399345 rxn_smarts="[C:1]([C@@:2]1([H:11])[N:3]([H:12])[C:4](=[O:5])[C@:6]1([C:7]([H:14])([H:15])[H:16])[H:13])([H:8])([H:9])[H:10]>>[C:1]([C-:2]([N:3]([C:4]1=[O+:5][C@:6]1([C:7]([H:14])([H:15])[H:16])[H:13])[H:12])[H:11])([H:8])([H:9])[H:10]"
C        2.20236759      -1.05806232       0.30274557
C        0.87489394      -0.60497194       0.81216641
N        0.66119296       0.73137679       1.01830331
C       -0.36828418       1.26946126       0.34801705
O       -1.32217598       2.07429957       0.68482140
C       -1.42570951       0.36047503      -0.02768477
C       -1.84224055       0.21641377      -1.45511289
H        2.32858212      -0.88277935      -0.77395349
H        2.34949979      -2.12463623       0.48006981
H        3.02060604      -0.53277795       0.80626650
H        0.15693621      -1.32321665       1.18720123
H        1.37387894       1.35461964       1.37042399
H       -2.11829181      -0.03850801       0.71125321
H       -0.99964398       0.36394959      -2.13070908
H       -2.60823462       0.95917748      -1.69399676
H       -2.28337697      -0.76482069      -1.63981149
16
Frame=8 idx=010634 GeodesicLength=0.6231139723187045 rxn_smarts="[C:1]([C@@:2]1([H:11])[N:3]([H:12])[C:4](=[O:5])[C@:6]1([C:7]([H:14])([H:15])[H:16])[H:13])([H:8])([H:9])[H:10]>>[C:1]([C-:2]([N:3]([C:4]1=[O+:5][C@:6]1([C:7]([H:14])([H:15])[H:16])[H:13])[H:12])[H:11])([H:8])([H:9])[H:10]"
C        2.17510931      -1.05871210       0.29141203
C        0.85127845      -0.59218972       0.80072088
N        0.66037825       0.74427837       1.02935015
C       -0.35150713       1.29552626       0.33502473
O       -1.32208376       2.07970044       0.67420227
C       -1.39509521       0.35801206      -0.02707767
C       -1.82555964       0.20812070      -1.45146499
H        2.30798971      -0.86887549      -0.78133519
H        2.30475681      -2.13017601       0.45243339
H        2.99862410      -0.55434622       0.80686366
H        0.15346168      -1.31023156       1.21367918
H        1.37578649       1.35645592       1.39437382
H       -2.08125598      -0.05115192       0.71290435
H       -1.00024619       0.39862866      -2.13747208
H       -2.62845368       0.91593898      -1.67382894
H       -2.22318320      -0.79097838      -1.63978560
16
Frame=9 idx=010634 GeodesicLength=0.7018535308170551 rxn_smarts="[C:1]([C@@:2]1([H:11])[N:3]([H:12])[C:4](=[O:5])[C@:6]1([C:7]([H:14])([H:15])[H:16])[H:13])([H:8])([H:9])[H:10]>>[C:1]([C-:2]([N:3]([C:4]1=[O+:5][C@:6]1([C:7]([H:14])([H:15])[H:16])[H:13])[H:12])[H:11])([H:8])([H:9])[H:10]"
C        2.14810856      -1.05890294       0.28025738
C        0.82829992      -0.57984251       0.79109776
N        0.65930448       0.75625339       1.04033641
C       -0.33509539       1.32004773       0.32297505
O       -1.32081899       2.08536642       0.66252973
C       -1.36547512       0.35608064      -0.02606497
C       -1.80881158       0.19967670      -1.44748107
H        2.28665280      -0.85503155      -0.78853851
H        2.26109940      -2.13461186       0.42520387
H        2.97668170      -0.57490958       0.80636822
H        0.15049200      -1.29797076       1.23698996
H        1.37683153       1.35763048       1.41823580
H       -2.04608986      -0.06182007       0.71471508
H       -1.00204573       0.43120372      -2.14282585
H       -2.64582558       0.87165995      -1.65382516
H       -2.16330813      -0.81482974      -1.63997372
16
Frame=10 idx=010634 GeodesicLength=0.7808046072964983 rxn_smarts="[C:1]([C@@:2]1([H:11])[N:3]([H:12])[C:4](=[O:5])[C@:6]1([C:7]([H:14])([H:15])[H:16])[H:13])([H:8])([H:9])[H:10]>>[C:1]([C-:2]([N:3]([C:4]1=[O+:5][C@:6]1([C:7]([H:14])([H:15])[H:16])[H:13])[H:12])[H:11])([H:8])([H:9])[H:10]"
C        2.12159866      -1.05871259       0.26941385
C        0.80598722      -0.56791394       0.78280910
N        0.65799664       0.76737468       1.05116914
C       -0.31888186       1.34315779       0.31149188
O       -1.31845776       2.09130769       0.64987841
C       -1.33685860       0.35460955      -0.02471079
C       -1.79228563       0.19116284      -1.44319512
H        2.26524730      -0.84129622      -0.79536633
H        2.21863883      -2.13805132       0.39851787
H        2.95486532      -0.59456748       0.80525091
H        0.14786778      -1.28662558       1.25738541
H        1.37706591       1.35822186       1.44188962
H       -2.01262692      -0.07083470       0.71675939
H       -1.00535088       0.46190224      -2.14698546
H       -2.66063762       0.82671137      -1.63393053
H       -2.10416838      -0.83644621      -1.64037734
16
Frame=11 idx=010634 GeodesicLength=0.8598914686644684 rxn_smarts="[C:1]([C@@:2]1([H:11])[N:3]([H:12])[C:4](=[O:5])[C@:6]1([C:7]([H:14])([H:15])[H:16])[H:13])([H:8])([H:9])[H:10]>>[C:1]([C-:2]([N:3]([C:4]1=[O+:5][C@:6]1([C:7]([H:14])([H:15])[H:16])[H:13])[H:12])[H:11])([H:8])([H:9])[H:10]"
C        2.09572877      -1.05818141       0.25893959
C        0.78435398      -0.55640042       0.77551683
N        0.65647094       0.77768082       1.06178629
C       -0.30275863       1.36493400       0.30035121
O       -1.31501801       2.09752412       0.63625464
C       -1.30923299       0.35354614      -0.02307652
C       -1.77613698       0.18262636      -1.43863852
H        2.24418037      -0.82762608      -0.80174493
H        2.17743910      -2.14059572       0.37244438
H        2.93326600      -0.61340499       0.80383863
H        0.14546590      -1.27624674       1.27504456
H        1.37649401       1.35824732       1.46535157
H       -1.98075908      -0.07836521       0.71905628
H       -1.01022507       0.49080508      -2.15009871
H       -2.67320499       0.78135631      -1.61408030
H       -2.04606335      -0.85589957      -1.64094502
16
Frame=12 idx=010634 GeodesicLength=0.9390185155392303 rxn_smarts="[C:1]([C@@:2]1([H:11])[N:3]([H:12])[C:4](=[O:5])[C@:6]1([C:7]([H:14])([H:15])[H:16])[H:13])([H:8])([H:9])[H:10]>>[C:1]([C-:2]([N:3]([C:4]1=[O+:5][C@:6]1([C:7]([H:14])([H:15])[H:16])[H:13])[H:12])[H:11])([H:8])([H:9])[H:10]"
C        2.07060786      -1.05732831       0.24885634
C        0.76340583      -0.54530313       0.76896890
N        0.65472168       0.78719574       1.07215729
C       -0.28665501       1.38544137       0.28941605
O       -1.31050767       2.10401488       0.62168314
C       -1.28258872       0.35285411      -0.02119642
C       -1.76047972       0.17410167      -1.43382459
H        2.22374513      -0.81398280      -0.80762921
H        2.13757364      -2.14231012       0.34700205
H        2.91193720      -0.63144979       0.80233189
H        0.14319014      -1.26687739       1.29010445
H        1.37509134       1.35771664       1.48866220
H       -1.95040481      -0.08451917       0.72162543
H       -1.01661500       0.51785670      -2.15225892
H       -2.68369319       0.73584801      -1.59426785
H       -1.98932871      -0.87325842      -1.64163075
16
Frame=13 idx=010634 GeodesicLength=1.0180693902091664 rxn_smarts="[C:1]([C@@:2]1([H:11])[N:3]([H:12])[C:4](=[O:5])[C@:6]1([C:7]([H:14])([H:15])[H:16])[H:13])([H:8])([H:9])[H:10]>>[C:1]([C-:2]([N:3]([C:4]1=[O+:5][C@:6]1([C:7]([H:14])([H:15])[H:16])[H:13])[H:12])[H:11])([H:8])([H:9])[H:10]"
C        2.04633044      -1.05615407       0.23917175
C        0.74314288      -0.53463758       0.76296824
N        0.65273632       0.79592068       1.08226780
C       -0.27050506       1.40472224       0.27858458
O       -1.30489560       2.11078478       0.60613654
C       -1.25692113       0.35251907      -0.01908934
C       -1.74540488       0.16561709      -1.42875790
H        2.20415438      -0.80031776      -0.81299924
H        2.09911819      -2.14323733       0.32220593
H        2.89092765      -0.64871117       0.80086968
H        0.14095411      -1.25852904       1.30256963
H        1.37280261       1.35660107       1.51193718
H       -1.92151702      -0.08931871       0.72449366
H       -1.02438577       0.54296757      -2.15354105
H       -2.69229917       0.69039429      -1.57447211
H       -1.93423797      -0.88862115      -1.64234536
16
Frame=14 idx=010634 GeodesicLength=1.097070110052075 rxn_smarts="[C:1]([C@@:2]1([H:11])[N:3]([H:12])[C:4](=[O:5])[C@:6]1([C:7]([H:14])([H:15])[H:16])[H:13])([H:8])([H:9])[H:10]>>[C:1]([C-:2]([N:3]([C:4]1=[O+:5][C@:6]1([C:7]([H:14])([H:15])[H:16])[H:13])[H:12])[H:11])([H:8])([H:9])[H:10]"
C        2.02294153      -1.05475620       0.22994583
C        0.72355383      -0.52435172       0.75731411
N        0.65056684       0.80396285       1.09201106
C       -0.25426945       1.42285817       0.26772529
O       -1.29834716       2.11774468       0.58980112
C       -1.23217307       0.35242340      -0.01684413
C       -1.73099215       0.15725245      -1.42350812
H        2.18560977      -0.78676598      -0.81778783
H        2.06204941      -2.14350792       0.29814136
H        2.87026422      -0.66530925       0.79964502
H        0.13876624      -1.25110771       1.31296372
H        1.36972761       1.35504374       1.53493768
H       -1.89393104      -0.09314272       0.72759339
H       -1.03367339       0.56654083      -2.15405954
H       -2.69928542       0.64516785      -1.55460528
H       -1.88080780      -0.90205246      -1.64327370
16
Frame=15 idx=010634 GeodesicLength=1.1759836353719506 rxn_smarts="[C:1]([C@@:2]1([H:11])[N:3]([H:12])[C:4](=[O:5])[C@:6]1([C:7]([H:14])([H:15])[H:16])[H:13])([H:8])([H:9])[H:10]>>[C:1]([C-:2]([N:3]([C:4]1=[O+:5][C@:6]1([C:7]([H:14])([H:15])[H:16])[H:13])[H:12])[H:11])([H:8])([H:9])[H:10]"
C        2.00046899      -1.05316162       0.22118372
C        0.70462290      -0.51443411       0.75189916
N        0.64821965       0.81136521       1.10136766
C       -0.23791021       1.43990147       0.25677578
O       -1.29090026       2.12485979       0.57271452
C       -1.20830495       0.35252646      -0.01449921
C       -1.71727349       0.14903195      -1.41810079
H        2.16820191      -0.77333748      -0.82198123
H        2.02637640      -2.14318544       0.27479544
H        2.84997002      -0.68129218       0.79874474
H        0.13659725      -1.24456104       1.32145808
H        1.36586166       1.35308724       1.55766926
H       -1.86755167      -0.09611011       0.73090020
H       -1.04440159       0.58865940      -2.15386360
H       -2.70482745       0.60030990      -1.53463966
H       -1.82914916      -0.91365944      -1.64442406
16
Frame=16 idx=010634 GeodesicLength=1.2547735755741576 rxn_smarts="[C:1]([C@@:2]1([H:11])[N:3]([H:12])[C:4](=[O:5])[C@:6]1([C:7]([H:14])([H:15])[H:16])[H:13])([H:8])([H:9])[H:10]>>[C:1]([C-:2]([N:3]([C:4]1=[O+:5][C@:6]1([C:7]([H:14])([H:15])[H:16])[H:13])[H:12])[H:11])([H:8])([H:9])[H:10]"
C        1.97892062      -1.05138733       0.21286849
C        0.68632764      -0.50487298       0.74664466
N        0.64569372       0.81817306       1.11033474
C       -0.22142304       1.45590126       0.24571529
O       -1.28262058       2.13207840       0.55496017
C       -1.18528720       0.35278516      -0.01207405
C       -1.70426555       0.14097558      -1.41255271
H        2.15195255      -0.76005276      -0.82560200
H        1.99210638      -2.14232370       0.25216833
H        2.83006305      -0.69666595       0.79817935
H        0.13443688      -1.23883512       1.32822667
H        1.36120686       1.35078787       1.58012388
H       -1.84229642      -0.09835057       0.73439321
H       -1.05640317       0.60930949      -2.15297234
H       -2.70899795       0.55601252      -1.51461531
H       -1.77941379      -0.92353492      -1.64579838
