14
Frame=0 idx=000647 GeodesicLength=0.0 rxn_smarts="[O:1]([C@@:2]1([H:8])[C:3]([H:9])([H:10])[C@@:4]2([H:11])[C:5]([H:12])([H:13])[C@@:6]12[H:14])[H:7]>>[O:1]([C@:2]1([H:8])[C:3]([H:9])([H:10])[C@@:4]([C:5][H:12])([H:11])[C:6]1([H:13])[H:14])[H:7]"
O       -0.79578748       1.92129531       0.11819869
C       -0.62664740       0.61511188       0.58402839
C       -1.04481581      -0.58010430      -0.30480256
C        0.38291379      -1.14889676      -0.17542821
C        1.45186664      -0.46813194      -0.89752589
C        0.80041154       0.05368354       0.69801865
H       -0.44711445       1.98063804      -0.77451202
H       -1.11594284       0.58051651       1.55758002
H       -1.33255374      -0.33068009      -1.32729503
H       -1.83174626      -1.18505232       0.14436570
H        0.55618518      -2.15361850       0.19268989
H        1.01182548       0.29331443      -1.56356780
H        1.68948640       0.55719978       0.10674287
H        1.30191889      -0.13527552       1.64150732
14
Frame=1 idx=000647 GeodesicLength=0.05160375021660475 rxn_smarts="[O:1]([C@@:2]1([H:8])[C:3]([H:9])([H:10])[C@@:4]2([H:11])[C:5]([H:12])([H:13])[C@@:6]12[H:14])[H:7]>>[O:1]([C@:2]1([H:8])[C:3]([H:9])([H:10])[C@@:4]([C:5][H:12])([H:11])[C:6]1([H:13])[H:14])[H:7]"
O       -0.80125398       1.92090817       0.12164373
C       -0.62785622       0.61400560       0.58441435
C       -1.04589482      -0.58047807      -0.30536546
C        0.38067559      -1.14991418      -0.17454938
C        1.44861014      -0.46632600      -0.89359188
C        0.80086859       0.05640682       0.69576486
H       -0.45011821       1.98423559      -0.76978858
H       -1.11659809       0.57632171       1.55814351
H       -1.33123249      -0.32906578      -1.32811032
H       -1.83423275      -1.18557829       0.14100156
H        0.55470778      -2.15291605       0.19773358
H        1.01472867       0.28840636      -1.57029842
H        1.70909507       0.55537657       0.10143485
H        1.29850074      -0.13138246       1.64156762
14
Frame=2 idx=000647 GeodesicLength=0.10319232368626416 rxn_smarts="[O:1]([C@@:2]1([H:8])[C:3]([H:9])([H:10])[C@@:4]2([H:11])[C:5]([H:12])([H:13])[C@@:6]12[H:14])[H:7]>>[O:1]([C@:2]1([H:8])[C:3]([H:9])([H:10])[C@@:4]([C:5][H:12])([H:11])[C:6]1([H:13])[H:14])[H:7]"
O       -0.80682029       1.92050886       0.12511898
C       -0.62915500       0.61290319       0.58481457
C       -1.04699700      -0.58085115      -0.30594064
C        0.37843570      -1.15087711      -0.17365972
C        1.44530987      -0.46440752      -0.88965913
C        0.80124681       0.05920147       0.69352812
H       -0.45315904       1.98786205      -0.76498085
H       -1.11733506       0.57210379       1.55871299
H       -1.32992106      -0.32743958      -1.32892966
H       -1.83672288      -1.18613601       0.13759362
H        0.55325772      -2.15213086       0.20279479
H        1.01770038       0.28343909      -1.57700724
H        1.72902883       0.55313868       0.09604133
H        1.29513102      -0.12731489       1.64157283
14
Frame=3 idx=000647 GeodesicLength=0.1547730530562291 rxn_smarts="[O:1]([C@@:2]1([H:8])[C:3]([H:9])([H:10])[C@@:4]2([H:11])[C:5]([H:12])([H:13])[C@@:6]12[H:14])[H:7]>>[O:1]([C@:2]1([H:8])[C:3]([H:9])([H:10])[C@@:4]([C:5][H:12])([H:11])[C:6]1([H:13])[H:14])[H:7]"
O       -0.81249276       1.92009745       0.12862433
C       -0.63054659       0.61180565       0.58522957
C       -1.04812223      -0.58122308      -0.30652818
C        0.37619555      -1.15178202      -0.17275968
C        1.44196596      -0.46237005      -0.88572630
C        0.80154377       0.06207178       0.69130927
H       -0.45624215       1.99151906      -0.76008703
H       -1.11815610       0.56786252       1.55928883
H       -1.32861971      -0.32580109      -1.32975293
H       -1.83921489      -1.18672708       0.13414132
H        0.55183774      -2.15125916       0.20787243
H        1.02074243       0.27841326      -1.58369269
H        1.74929869       0.55046005       0.09055735
H        1.29181031      -0.12306729       1.64152370
14
Frame=4 idx=000647 GeodesicLength=0.2063468396889289 rxn_smarts="[O:1]([C@@:2]1([H:8])[C:3]([H:9])([H:10])[C@@:4]2([H:11])[C:5]([H:12])([H:13])[C@@:6]12[H:14])[H:7]>>[O:1]([C@:2]1([H:8])[C:3]([H:9])([H:10])[C@@:4]([C:5][H:12])([H:11])[C:6]1([H:13])[H:14])[H:7]"
O       -0.81827801       1.91967413       0.13215957
C       -0.63203379       0.61071404       0.58565981
C       -1.04927013      -0.58159332      -0.30712828
C        0.37395694      -1.15262513      -0.17184961
C        1.43857828      -0.46020713      -0.88179319
C        0.80175729       0.06502268       0.68910874
H       -0.45937387       1.99520846      -0.75510558
H       -1.11906332       0.56359765       1.55987143
H       -1.32732862      -0.32415002      -1.33058003
H       -1.84170677      -1.18735309       0.13064413
H        0.55045064      -2.15029685       0.21296590
H        1.02385687       0.27333029      -1.59035293
H        1.76991514       0.54731227       0.08497939
H        1.28853932      -0.11863397       1.64142067
14
Frame=5 idx=000647 GeodesicLength=0.25791681617978063 rxn_smarts="[O:1]([C@@:2]1([H:8])[C:3]([H:9])([H:10])[C@@:4]2([H:11])[C:5]([H:12])([H:13])[C@@:6]12[H:14])[H:7]>>[O:1]([C@:2]1([H:8])[C:3]([H:9])([H:10])[C@@:4]([C:5][H:12])([H:11])[C:6]1([H:13])[H:14])[H:7]"
O       -0.82418344       1.91923913       0.13572465
C       -0.63361977       0.60962968       0.58610583
C       -1.05044037      -0.58196126      -0.30774103
C        0.37172175      -1.15340214      -0.17093003
C        1.43514753      -0.45791048      -0.87785805
C        0.80188498       0.06805978       0.68692707
H       -0.46256088       1.99893220      -0.75003457
H       -1.12005918       0.55930897       1.56046134
H       -1.32604796      -0.32248593      -1.33141083
H       -1.84419619      -1.18801590       0.12710152
H        0.54910012      -2.14923926       0.21807399
H        1.02704598       0.26819144      -1.59698618
H        1.79088902       0.54366187       0.07930204
H        1.28531840      -0.11400810       1.64126424
14
Frame=6 idx=000647 GeodesicLength=0.30949213890723215 rxn_smarts="[O:1]([C@@:2]1([H:8])[C:3]([H:9])([H:10])[C@@:4]2([H:11])[C:5]([H:12])([H:13])[C@@:6]12[H:14])[H:7]>>[O:1]([C@:2]1([H:8])[C:3]([H:9])([H:10])[C@@:4]([C:5][H:12])([H:11])[C:6]1([H:13])[H:14])[H:7]"
O       -0.83021649       1.91879250       0.13931970
C       -0.63530786       0.60855380       0.58656829
C       -1.05163264      -0.58232623      -0.30836653
C        0.36949180      -1.15410868      -0.17000128
C        1.43167385      -0.45547271      -0.87391947
C        0.80192397       0.07118834       0.68476544
H       -0.46581026       2.00269232      -0.74487214
H       -1.12114644       0.55499613       1.56105898
H       -1.32477788      -0.32080825      -1.33224525
H       -1.84668098      -1.18871732       0.12351279
H        0.54779008      -2.14808182       0.22319517
H        1.03031247       0.26299791      -1.60358992
H        1.81223207       0.53947669       0.07351905
H        1.28214830      -0.10918269       1.64105516
14
Frame=7 idx=000647 GeodesicLength=0.36107934591210133 rxn_smarts="[O:1]([C@@:2]1([H:8])[C:3]([H:9])([H:10])[C@@:4]2([H:11])[C:5]([H:12])([H:13])[C@@:6]12[H:14])[H:7]>>[O:1]([C@:2]1([H:8])[C:3]([H:9])([H:10])[C@@:4]([C:5][H:12])([H:11])[C:6]1([H:13])[H:14])[H:7]"
O       -0.83638464       1.91833439       0.14294517
C       -0.63710095       0.60748753       0.58704791
C       -1.05284605      -0.58268756      -0.30900507
C        0.36726953      -1.15474042      -0.16906352
C        1.42815784      -0.45288556      -0.86997599
C        0.80187192       0.07441400       0.68262481
H       -0.46912972       2.00649105      -0.73961609
H       -1.12232751       0.55065847       1.56166482
H       -1.32351789      -0.31911633      -1.33308327
H       -1.84915845      -1.18945929       0.11987680
H        0.54652359      -2.14681979       0.22832929
H        1.03365893       0.25775145      -1.61016199
H        1.83395452       0.53472306       0.06762269
H        1.27902887      -0.10415099       1.64079444
14
Frame=8 idx=000647 GeodesicLength=0.4126814151337506 rxn_smarts="[O:1]([C@@:2]1([H:8])[C:3]([H:9])([H:10])[C@@:4]2([H:11])[C:5]([H:12])([H:13])[C@@:6]12[H:14])[H:7]>>[O:1]([C@:2]1([H:8])[C:3]([H:9])([H:10])[C@@:4]([C:5][H:12])([H:11])[C:6]1([H:13])[H:14])[H:7]"
O       -0.84269704       1.91786500       0.14660138
C       -0.63900304       0.60643247       0.58754542
C       -1.05407998      -0.58304438      -0.30965689
C        0.36505746      -1.15529183      -0.16811714
C        1.42460031      -0.45013936      -0.86602608
C        0.80172575       0.07774388       0.68050608
H       -0.47252830       2.01033090      -0.73426415
H       -1.12360556       0.54629544       1.56227953
H       -1.32226791      -0.31740940      -1.33392498
H       -1.85162571      -1.19024401       0.11619256
H        0.54530576      -2.14544718       0.23347509
H        1.03708881       0.25245410      -1.61669942
H        1.85606786       0.52935796       0.06160647
H        1.27596160      -0.09890358       1.64048214
14
Frame=9 idx=000647 GeodesicLength=0.4642949709828277 rxn_smarts="[O:1]([C@@:2]1([H:8])[C:3]([H:9])([H:10])[C@@:4]2([H:11])[C:5]([H:12])([H:13])[C@@:6]12[H:14])[H:7]>>[O:1]([C@:2]1([H:8])[C:3]([H:9])([H:10])[C@@:4]([C:5][H:12])([H:11])[C:6]1([H:13])[H:14])[H:7]"
O       -0.84916192       1.91738446       0.15028873
C       -0.64101719       0.60538990       0.58806137
C       -1.05533357      -0.58339588      -0.31032238
C        0.36285812      -1.15575793      -0.16716259
C        1.42100218      -0.44722518      -0.86206893
C        0.80148325       0.08118473       0.67840937
H       -0.47601564       2.01421442      -0.72881431
H       -1.12498253       0.54190638       1.56290364
H       -1.32102769      -0.31568686      -1.33477043
H       -1.85407979      -1.19107349       0.11245909
H        0.54414106      -2.14395847       0.23863198
H        1.04060517       0.24710804      -1.62319960
H        1.87858123       0.52334174       0.05546627
H        1.27294733      -0.09343187       1.64011779
14
Frame=10 idx=000647 GeodesicLength=0.5159186101634711 rxn_smarts="[O:1]([C@@:2]1([H:8])[C:3]([H:9])([H:10])[C@@:4]2([H:11])[C:5]([H:12])([H:13])[C@@:6]12[H:14])[H:7]>>[O:1]([C@:2]1([H:8])[C:3]([H:9])([H:10])[C@@:4]([C:5][H:12])([H:11])[C:6]1([H:13])[H:14])[H:7]"
O       -0.85578970       1.91689304       0.15400818
C       -0.64314727       0.60436171       0.58859676
C       -1.05660513      -0.58374081      -0.31100196
C        0.36067522      -1.15613227      -0.16619989
C        1.41736544      -0.44413219      -0.85810188
C        0.80114183       0.08474521       0.67633566
H       -0.47960266       2.01814481      -0.72326374
H       -1.12646142       0.53749022       1.56353795
H       -1.31979579      -0.31394741      -1.33561994
H       -1.85651652      -1.19195009       0.10867463
H        0.54303502      -2.14234667       0.24379962
H        1.04421142       0.24171640      -1.62965976
H        1.90150249       0.51662332       0.04919244
H        1.26998706      -0.08772527       1.63970195
14
Frame=11 idx=000647 GeodesicLength=0.5675529567679727 rxn_smarts="[O:1]([C@@:2]1([H:8])[C:3]([H:9])([H:10])[C@@:4]2([H:11])[C:5]([H:12])([H:13])[C@@:6]12[H:14])[H:7]>>[O:1]([C@:2]1([H:8])[C:3]([H:9])([H:10])[C@@:4]([C:5][H:12])([H:11])[C:6]1([H:13])[H:14])[H:7]"
O       -0.86259045       1.91639095       0.15776074
C       -0.64539705       0.60334962       0.58915259
C       -1.05789296      -0.58407802      -0.31169605
C        0.35851268      -1.15640820      -0.16522935
C        1.41369199      -0.44084893      -0.85412287
C        0.80069870       0.08843388       0.67428625
H       -0.48330076       2.02212525      -0.71760974
H       -1.12804519       0.53304600       1.56418308
H       -1.31857112      -0.31218998      -1.33647362
H       -1.85893155      -1.19287639       0.10483765
H        0.54199362      -2.14060460       0.24897718
H        1.04791137       0.23628207      -1.63607678
H        1.92483948       0.50915122       0.04277584
H        1.26708124      -0.08177288       1.63923508
14
Frame=12 idx=000647 GeodesicLength=0.6191970379620602 rxn_smarts="[O:1]([C@@:2]1([H:8])[C:3]([H:9])([H:10])[C@@:4]2([H:11])[C:5]([H:12])([H:13])[C@@:6]12[H:14])[H:7]>>[O:1]([C@:2]1([H:8])[C:3]([H:9])([H:10])[C@@:4]([C:5][H:12])([H:11])[C:6]1([H:13])[H:14])[H:7]"
O       -0.86957521       1.91587828       0.16154772
C       -0.64777060       0.60235546       0.58972988
C       -1.05919527      -0.58440621      -0.31240524
C        0.35637434      -1.15657882      -0.16425104
C        1.40998381      -0.43736339      -0.85012902
C        0.80015109       0.09226005       0.67226195
H       -0.48712250       2.02615918      -0.71184919
H       -1.12973683       0.52857238       1.56483994
H       -1.31735214      -0.31041312      -1.33733191
H       -1.86132043      -1.19385495       0.10094607
H        0.54102334      -2.13872470       0.25416408
H        1.05171011       0.23080820      -1.64244677
H        1.94859843       0.50086994       0.03620671
H        1.26423187      -0.07556231       1.63871683
14
Frame=13 idx=000647 GeodesicLength=0.6708465971752016 rxn_smarts="[O:1]([C@@:2]1([H:8])[C:3]([H:9])([H:10])[C@@:4]2([H:11])[C:5]([H:12])([H:13])[C@@:6]12[H:14])[H:7]>>[O:1]([C@:2]1([H:8])[C:3]([H:9])([H:10])[C@@:4]([C:5][H:12])([H:11])[C:6]1([H:13])[H:14])[H:7]"
O       -0.87675498       1.91535504       0.16537106
C       -0.65027164       0.60138076       0.59032978
C       -1.06050964      -0.58472395      -0.31313054
C        0.35426471      -1.15663724      -0.16326493
C        1.40624392      -0.43366383      -0.84611770
C        0.79949648       0.09623329       0.67026352
H       -0.49108138       2.03025032      -0.70597874
H       -1.13153879       0.52406733       1.56550945
H       -1.31613645      -0.30861508      -1.33819558
H       -1.86367843      -1.19488828       0.09699702
H        0.54012982      -2.13669918       0.25936119
H        1.05561201       0.22529814      -1.64876625
H        1.97278316       0.49172338       0.02947526
H        1.26144120      -0.06908071       1.63814644
14
Frame=14 idx=000647 GeodesicLength=0.7224906426317919 rxn_smarts="[O:1]([C@@:2]1([H:8])[C:3]([H:9])([H:10])[C@@:4]2([H:11])[C:5]([H:12])([H:13])[C@@:6]12[H:14])[H:7]>>[O:1]([C@:2]1([H:8])[C:3]([H:9])([H:10])[C@@:4]([C:5][H:12])([H:11])[C:6]1([H:13])[H:14])[H:7]"
O       -0.88414299       1.91482146       0.16923250
C       -0.65290452       0.60042801       0.59095363
C       -1.06183313      -0.58502937      -0.31387257
C        0.35218945      -1.15657424      -0.16227133
C        1.40247589      -0.42973483      -0.84208572
C        0.79873237       0.10036574       0.66829193
H       -0.49519301       2.03440293      -0.69999481
H       -1.13345399       0.51952931       1.56619269
H       -1.31492166      -0.30679393      -1.33906499
H       -1.86599900      -1.19597953       0.09298820
H        0.53932232      -2.13451810       0.26456739
H        1.05962350       0.21975565      -1.65503084
H        1.99739371       0.48163942       0.02257044
H        1.25871106      -0.06231253       1.63752348
14
Frame=15 idx=000647 GeodesicLength=0.7741236164472682 rxn_smarts="[O:1]([C@@:2]1([H:8])[C:3]([H:9])([H:10])[C@@:4]2([H:11])[C:5]([H:12])([H:13])[C@@:6]12[H:14])[H:7]>>[O:1]([C@:2]1([H:8])[C:3]([H:9])([H:10])[C@@:4]([C:5][H:12])([H:11])[C:6]1([H:13])[H:14])[H:7]"
O       -0.89175249       1.91427742       0.17313463
C       -0.65567360       0.59949926       0.59160296
C       -1.06316239      -0.58532055      -0.31463246
C        0.35015443      -1.15638086      -0.16127017
C        1.39868403      -0.42556151      -0.83802904
C        0.79785588       0.10466931       0.66634855
H       -0.49947347       2.03862148      -0.69389321
H       -1.13548545       0.51495589       1.56689078
H       -1.31370438      -0.30494727      -1.33994105
H       -1.86827574      -1.19713174       0.08891608
H        0.53860907      -2.13217160       0.26978286
H        1.06375113       0.21418447      -1.66123581
H        2.02242832       0.47054707       0.01547883
H        1.25604464      -0.05524135       1.63684706
14
Frame=16 idx=000647 GeodesicLength=0.8257351565979647 rxn_smarts="[O:1]([C@@:2]1([H:8])[C:3]([H:9])([H:10])[C@@:4]2([H:11])[C:5]([H:12])([H:13])[C@@:6]12[H:14])[H:7]>>[O:1]([C@:2]1([H:8])[C:3]([H:9])([H:10])[C@@:4]([C:5][H:12])([H:11])[C:6]1([H:13])[H:14])[H:7]"
O       -0.89959687       1.91372288       0.17708058
C       -0.65858287       0.59859658       0.59227946
C       -1.06449326      -0.58559529      -0.31541156
C        0.34816639      -1.15604752      -0.16026131
C        1.39487353      -0.42112819      -0.83394331
C        0.79686466       0.10915681       0.66443481
H       -0.50394046       2.04291067      -0.68766949
H       -1.13763585       0.51034423       1.56760496
H       -1.31248018      -0.30307224      -1.34082486
H       -1.87050131      -1.19834796       0.08477650
H        0.53799899      -2.12964910       0.27500829
H        1.06800200       0.20858823      -1.66737624
H        2.04788011       0.45837086       0.00818571
H        1.25344512      -0.04784995       1.63611644
