12
Frame=0 idx=004053 GeodesicLength=0.0 rxn_smarts="[C:1]([C@@:2]1([C:5]#[C:6][H:12])[C:3]([H:10])([H:11])[O:4]1)([H:7])([H:8])[H:9]>>[C:1]([C@@:2]([C:3][H:11])([O:4][H:10])[C:5]#[C:6][H:12])([H:7])([H:8])[H:9]"
C       -1.27705239      -0.73457869      -0.18337352
C       -0.11362213       0.19512633       0.05057060
C       -0.22236822       1.62985057      -0.31136605
O       -0.19037950       0.94470274       1.29069736
C        1.18898940      -0.44184226      -0.06696144
C        2.23964349      -0.99502290      -0.21382825
H       -1.25418515      -1.56121645       0.52786873
H       -1.22022024      -1.14495491      -1.19253397
H       -2.21206343      -0.18470076      -0.08218199
H       -0.89237328       1.70066459       0.92385107
H        0.77339691       2.07157776      -0.41156666
H        3.18023452      -1.47960603      -0.33117591
12
Frame=1 idx=004053 GeodesicLength=0.046843781246385906 rxn_smarts="[C:1]([C@@:2]1([C:5]#[C:6][H:12])[C:3]([H:10])([H:11])[O:4]1)([H:7])([H:8])[H:9]>>[C:1]([C@@:2]([C:3][H:11])([O:4][H:10])[C:5]#[C:6][H:12])([H:7])([H:8])[H:9]"
C       -1.27496880      -0.73429489      -0.18234108
C       -0.11028145       0.19375323       0.05111976
C       -0.21855868       1.62920059      -0.30513033
O       -0.19013302       0.95085055       1.28645692
C        1.19183085      -0.44438521      -0.06276450
C        2.24243909      -0.99745929      -0.21063223
H       -1.25408253      -1.56003960       0.53003919
H       -1.21791714      -1.14600544      -1.19093042
H       -2.20962287      -0.18340471      -0.08285105
H       -0.91333727       1.70320305       0.91785846
H        0.77545965       2.07395012      -0.40688818
H        3.17917217      -1.48536840      -0.34393655
12
Frame=2 idx=004053 GeodesicLength=0.09367855597249086 rxn_smarts="[C:1]([C@@:2]1([C:5]#[C:6][H:12])[C:3]([H:10])([H:11])[O:4]1)([H:7])([H:8])[H:9]>>[C:1]([C@@:2]([C:3][H:11])([O:4][H:10])[C:5]#[C:6][H:12])([H:7])([H:8])[H:9]"
C       -1.27292788      -0.73399794      -0.18130631
C       -0.10695548       0.19236866       0.05164466
C       -0.21488177       1.62854942      -0.29881583
O       -0.18978021       0.95672819       1.28230724
C        1.19463216      -0.44693004      -0.05884306
C        2.24520316      -0.99982869      -0.20793163
H       -1.25392338      -1.55895633       0.53207793
H       -1.21579506      -1.14691438      -1.18938338
H       -2.20721648      -0.18212461      -0.08331389
H       -0.93377076       1.70573900       0.91174028
H        0.77736037       2.07631672      -0.40232235
H        3.17805535      -1.49095000      -0.35585366
12
Frame=3 idx=004053 GeodesicLength=0.14050469281200603 rxn_smarts="[C:1]([C@@:2]1([C:5]#[C:6][H:12])[C:3]([H:10])([H:11])[O:4]1)([H:7])([H:8])[H:9]>>[C:1]([C@@:2]([C:3][H:11])([O:4][H:10])[C:5]#[C:6][H:12])([H:7])([H:8])[H:9]"
C       -1.27088812      -0.73370124      -0.18026732
C       -0.10363392       0.19097616       0.05223382
C       -0.21127637       1.62787360      -0.29245294
O       -0.18946594       0.96242819       1.27827527
C        1.19741966      -0.44948123      -0.05489409
C        2.24797890      -1.00215323      -0.20523303
H       -1.25376102      -1.55792749       0.53405145
H       -1.21367725      -1.14777021      -1.18785305
H       -2.20481626      -0.18086589      -0.08373522
H       -0.95381744       1.70834853       0.90536254
H        0.77917174       2.07865280      -0.39778348
H        3.17676603      -1.49637998      -0.36770395
12
Frame=4 idx=004053 GeodesicLength=0.18731948468628096 rxn_smarts="[C:1]([C@@:2]1([C:5]#[C:6][H:12])[C:3]([H:10])([H:11])[O:4]1)([H:7])([H:8])[H:9]>>[C:1]([C@@:2]([C:3][H:11])([O:4][H:10])[C:5]#[C:6][H:12])([H:7])([H:8])[H:9]"
C       -1.26892130      -0.73338440      -0.17922073
C       -0.10033553       0.18954750       0.05281614
C       -0.20774927       1.62716539      -0.28602698
O       -0.18904882       0.96786157       1.27434230
C        1.20014376      -0.45210166      -0.05116270
C        2.25068416      -1.00452551      -0.20289093
H       -1.25361818      -1.55696998       0.53591966
H       -1.21175324      -1.14850294      -1.18636342
H       -2.20246696      -0.17958354      -0.08398672
H       -0.97339391       1.71099672       0.89881241
H        0.78088855       2.08092984      -0.39332397
H        3.17557074      -1.50143299      -0.37891507
12
Frame=5 idx=004053 GeodesicLength=0.23411795728653081 rxn_smarts="[C:1]([C@@:2]1([C:5]#[C:6][H:12])[C:3]([H:10])([H:11])[O:4]1)([H:7])([H:8])[H:9]>>[C:1]([C@@:2]([C:3][H:11])([O:4][H:10])[C:5]#[C:6][H:12])([H:7])([H:8])[H:9]"
C       -1.26713285      -0.73301678      -0.17816377
C       -0.09709257       0.18804961       0.05327641
C       -0.20432968       1.62642286      -0.27951446
O       -0.18832337       0.97289798       1.27047856
C        1.20273218      -0.45486444      -0.04804110
C        2.25320556      -1.00705077      -0.20144364
H       -1.25351068      -1.55611514       0.53761391
H       -1.21031275      -1.14899812      -1.18495718
H       -2.20023838      -0.17821974      -0.08386259
H       -0.99236623       1.71362844       0.89224462
H        0.78247942       2.08312191      -0.38903562
H        3.17488936      -1.50585581      -0.38859514
12
Frame=6 idx=004053 GeodesicLength=0.28088270783439473 rxn_smarts="[C:1]([C@@:2]1([C:5]#[C:6][H:12])[C:3]([H:10])([H:11])[O:4]1)([H:7])([H:8])[H:9]>>[C:1]([C@@:2]([C:3][H:11])([O:4][H:10])[C:5]#[C:6][H:12])([H:7])([H:8])[H:9]"
C       -1.26561020      -0.73256883      -0.17709476
C       -0.09393446       0.18645950       0.05351821
C       -0.20103453       1.62564154      -0.27290832
O       -0.18712392       0.97744290       1.26665692
C        1.20512140      -0.45782855      -0.04584809
C        2.25544675      -1.00982006      -0.20127307
H       -1.25345506      -1.55537948       0.53908173
H       -1.20959281      -1.14916207      -1.18366788
H       -2.19818712      -0.17672165      -0.08319948
H       -1.01065444       1.71618633       0.88580175
H        0.78392422       2.08520402      -0.38499720
H        3.17510017      -1.50945365      -0.39606982
12
Frame=7 idx=004053 GeodesicLength=0.32765413023735135 rxn_smarts="[C:1]([C@@:2]1([C:5]#[C:6][H:12])[C:3]([H:10])([H:11])[O:4]1)([H:7])([H:8])[H:9]>>[C:1]([C@@:2]([C:3][H:11])([O:4][H:10])[C:5]#[C:6][H:12])([H:7])([H:8])[H:9]"
C       -1.26415649      -0.73209735      -0.17601361
C       -0.09080592       0.18485379       0.05372858
C       -0.19784084       1.62484692      -0.26623199
O       -0.18578679       0.98172637       1.26294396
C        1.20745410      -0.46081732      -0.04396722
C        2.25762949      -1.01257601      -0.20153370
H       -1.25337690      -1.55472115       0.54044271
H       -1.20908686      -1.14918700      -1.18242190
H       -2.19619229      -0.17521363      -0.08232777
H       -1.02858984       1.71880966       0.87920808
H        0.78523527       2.08727629      -0.38102075
H        3.17551707      -1.51290058      -0.40280638
12
Frame=8 idx=004053 GeodesicLength=0.37442813134783465 rxn_smarts="[C:1]([C@@:2]1([C:5]#[C:6][H:12])[C:3]([H:10])([H:11])[O:4]1)([H:7])([H:8])[H:9]>>[C:1]([C@@:2]([C:3][H:11])([O:4][H:10])[C:5]#[C:6][H:12])([H:7])([H:8])[H:9]"
C       -1.26263578      -0.73163930      -0.17491889
C       -0.08766455       0.18328127       0.05403787
C       -0.19472183       1.62405065      -0.25950704
O       -0.18453199       0.98590973       1.25937924
C        1.20982411      -0.46372222      -0.04196484
C        2.25988935      -1.01516760      -0.20166389
H       -1.25322681      -1.55410917       0.54177669
H       -1.20845081      -1.14920171      -1.18116790
H       -2.19416348      -0.17377373      -0.08147101
H       -1.04640070       1.72157320       0.87227221
H        0.78643601       2.08939332      -0.37697673
H        3.17564645      -1.51659443      -0.40979573
12
Frame=9 idx=004053 GeodesicLength=0.42116302383110316 rxn_smarts="[C:1]([C@@:2]1([C:5]#[C:6][H:12])[C:3]([H:10])([H:11])[O:4]1)([H:7])([H:8])[H:9]>>[C:1]([C@@:2]([C:3][H:11])([O:4][H:10])[C:5]#[C:6][H:12])([H:7])([H:8])[H:9]"
C       -1.26123888      -0.73114491      -0.17380500
C       -0.08456661       0.18164930       0.05432295
C       -0.19163425       1.62319396      -0.25273285
O       -0.18312586       0.98981925       1.25591803
C        1.21209333      -0.46676198      -0.04024778
C        2.26201233      -1.01794626      -0.20210363
H       -1.25314932      -1.55355844       0.54301384
H       -1.20810055      -1.14906608      -1.17994997
H       -2.19221944      -0.17226736      -0.08039574
H       -1.06385358       1.72442427       0.86513217
H        0.78759022       2.09141369      -0.37298032
H        3.17619260      -1.51975544      -0.41617171
12
Frame=10 idx=004053 GeodesicLength=0.46791046761205213 rxn_smarts="[C:1]([C@@:2]1([C:5]#[C:6][H:12])[C:3]([H:10])([H:11])[O:4]1)([H:7])([H:8])[H:9]>>[C:1]([C@@:2]([C:3][H:11])([O:4][H:10])[C:5]#[C:6][H:12])([H:7])([H:8])[H:9]"
C       -1.25992566      -0.73062641      -0.17266746
C       -0.08149704       0.17997045       0.05462854
C       -0.18856053       1.62227885      -0.24590782
O       -0.18163152       0.99350336       1.25257892
C        1.21429109      -0.46990860      -0.03867131
C        2.26403723      -1.02086403      -0.20271059
H       -1.25313970      -1.55305447       0.54419135
H       -1.20792677      -1.14882847      -1.17874481
H       -2.19033261      -0.17071575      -0.07917896
H       -1.08105140       1.72739583       0.85770322
H        0.78872026       2.09335209      -0.36897499
H        3.17701665      -1.52250285      -0.42224609
12
Frame=11 idx=004053 GeodesicLength=0.514644109200487 rxn_smarts="[C:1]([C@@:2]1([C:5]#[C:6][H:12])[C:3]([H:10])([H:11])[O:4]1)([H:7])([H:8])[H:9]>>[C:1]([C@@:2]([C:3][H:11])([O:4][H:10])[C:5]#[C:6][H:12])([H:7])([H:8])[H:9]"
C       -1.25861692      -0.73010258      -0.17150515
C       -0.07843272       0.17828775       0.05499016
C       -0.18553143       1.62133843      -0.23902385
O       -0.18012019       0.99702380       1.24938096
C        1.21647646      -0.47305977      -0.03712854
C        2.26605527      -1.02375287      -0.20339983
H       -1.25311331      -1.55259954       0.54532942
H       -1.20778232      -1.14852775      -1.17753938
H       -2.18845473      -0.16917844      -0.07788067
H       -1.09809872       1.73049826       0.84992868
H        0.78977708       2.09528712      -0.36490726
H        3.17784153      -1.52521440      -0.42824455
12
Frame=12 idx=004053 GeodesicLength=0.5613675670314462 rxn_smarts="[C:1]([C@@:2]1([C:5]#[C:6][H:12])[C:3]([H:10])([H:11])[O:4]1)([H:7])([H:8])[H:9]>>[C:1]([C@@:2]([C:3][H:11])([O:4][H:10])[C:5]#[C:6][H:12])([H:7])([H:8])[H:9]"
C       -1.25742296      -0.72954243      -0.17031473
C       -0.07540811       0.17655855       0.05530880
C       -0.18254784       1.62035382      -0.23206810
O       -0.17841578       1.00026455       1.24629575
C        1.21856960      -0.47631455      -0.03595028
C        2.26794719      -1.02677055      -0.20453800
H       -1.25311941      -1.55221357       0.54637236
H       -1.20794090      -1.14806348      -1.17636729
H       -2.18665595      -0.16758649      -0.07632650
H       -1.11486849       1.73368927       0.84193215
H        0.79076466       2.09716272      -0.36086337
H        3.17909799      -1.52753785      -0.43348081
12
Frame=13 idx=004053 GeodesicLength=0.6080854642090356 rxn_smarts="[C:1]([C@@:2]1([C:5]#[C:6][H:12])[C:3]([H:10])([H:11])[O:4]1)([H:7])([H:8])[H:9]>>[C:1]([C@@:2]([C:3][H:11])([O:4][H:10])[C:5]#[C:6][H:12])([H:7])([H:8])[H:9]"
C       -1.25623332      -0.72897695      -0.16909349
C       -0.07238826       0.17482576       0.05568110
C       -0.17960419       1.61934482      -0.22504352
O       -0.17667995       1.00333905       1.24335808
C        1.22065074      -0.47957279      -0.03482427
C        2.26983822      -1.02975026      -0.20576154
H       -1.25309870      -1.55188328       0.54737421
H       -1.20814142      -1.14752761      -1.17519235
H       -2.18486608      -0.16601150      -0.07467299
H       -1.13152591       1.73702206       0.83355307
H        0.79168274       2.09903857      -0.35673884
H        3.18036614      -1.52984786      -0.43863946
12
Frame=14 idx=004053 GeodesicLength=0.6547994913090739 rxn_smarts="[C:1]([C@@:2]1([C:5]#[C:6][H:12])[C:3]([H:10])([H:11])[O:4]1)([H:7])([H:8])[H:9]>>[C:1]([C@@:2]([C:3][H:11])([O:4][H:10])[C:5]#[C:6][H:12])([H:7])([H:8])[H:9]"
C       -1.25500075      -0.72841627      -0.16783950
C       -0.06935792       0.17311726       0.05612551
C       -0.17672382       1.61833432      -0.21793967
O       -0.17494305       1.00628068       1.24058077
C        1.22275720      -0.48276745      -0.03370683
C        2.27178639      -1.03257469      -0.20706175
H       -1.25298379      -1.55162207       0.54833297
H       -1.20831134      -1.14692296      -1.17401451
H       -2.18305742      -0.16449460      -0.07292602
H       -1.14814003       1.74049695       0.82474861
H        0.79249629       2.10096560      -0.35250512
H        3.18147824      -1.53239679      -0.44379446
12
Frame=15 idx=004053 GeodesicLength=0.70151352662761 rxn_smarts="[C:1]([C@@:2]1([C:5]#[C:6][H:12])[C:3]([H:10])([H:11])[O:4]1)([H:7])([H:8])[H:9]>>[C:1]([C@@:2]([C:3][H:11])([O:4][H:10])[C:5]#[C:6][H:12])([H:7])([H:8])[H:9]"
C       -1.25360836      -0.72789244      -0.16655052
C       -0.06627571       0.17147702       0.05674690
C       -0.17390152       1.61734420      -0.21075589
O       -0.17336657       1.00920469       1.23800241
C        1.22497721      -0.48579640      -0.03226965
C        2.27392059      -1.03508313      -0.20806914
H       -1.25271547      -1.55141150       0.54930959
H       -1.20817174      -1.14634825      -1.17279699
H       -2.18115459      -0.16310640      -0.07125201
H       -1.16487349       1.74415109       0.81533674
H        0.79320585       2.10300781      -0.34804918
H        3.18196381      -1.53554669      -0.44965227
12
Frame=16 idx=004053 GeodesicLength=0.7482201526925321 rxn_smarts="[C:1]([C@@:2]1([C:5]#[C:6][H:12])[C:3]([H:10])([H:11])[O:4]1)([H:7])([H:8])[H:9]>>[C:1]([C@@:2]([C:3][H:11])([O:4][H:10])[C:5]#[C:6][H:12])([H:7])([H:8])[H:9]"
C       -1.25236144      -0.72732423      -0.16521613
C       -0.06324117       0.16976890       0.05732008
C       -0.17109385       1.61629195      -0.20348096
O       -0.17155988       1.01182676       1.23554612
C        1.22707909      -0.48897823      -0.03124297
C        2.27587372      -1.03781000      -0.20959188
H       -1.25250506      -1.55127584       0.55019184
H       -1.20840524      -1.14558117      -1.17160254
H       -2.17934632      -0.16164029      -0.06926571
H       -1.18135988       1.74791749       0.80560576
H        0.79388157       2.10496009      -0.34358018
H        3.18303847      -1.53815543      -0.45468343
