13
Frame=0 idx=008556 GeodesicLength=0.0 rxn_smarts="[N:1](=[C:2](/[O:3][C:4]([C:5]([C:6]#[N:7])([H:12])[H:13])([H:10])[H:11])[H:9])\[H:8]>>[C:4](=[C:5]([H:12])[H:13])([H:10])[H:11].[N:1](=[C:2](/[O:3][C:6]#[N:7])[H:9])\[H:8]"
N       -2.20242545       0.39974993      -1.49151413
C       -1.47120263       0.91381376      -0.61330895
O       -0.38352550       0.21193237      -0.18078304
C        0.81753597      -1.37666727      -0.19963323
C        1.51217220      -0.65659604       0.80778095
C        0.55221264       0.70927610       0.87205842
N        0.57260703       1.70625266       1.49766296
H       -2.96789835       1.02491561      -1.71947645
H       -1.56900115       1.87699438      -0.11749980
H        1.10306098      -1.31483377      -1.24141170
H        0.06490537      -2.11449189       0.04449273
H        1.47171467      -1.08188713       1.80524270
H        2.49984416      -0.29845868       0.53638959
13
Frame=1 idx=008556 GeodesicLength=0.11469275209744607 rxn_smarts="[N:1](=[C:2](/[O:3][C:4]([C:5]([C:6]#[N:7])([H:12])[H:13])([H:10])[H:11])[H:9])\[H:8]>>[C:4](=[C:5]([H:12])[H:13])([H:10])[H:11].[N:1](=[C:2](/[O:3][C:6]#[N:7])[H:9])\[H:8]"
N       -2.17494697       0.41454808      -1.53134366
C       -1.48367174       0.90286875      -0.60801816
O       -0.45180339       0.17215977      -0.09891651
C        0.80438211      -1.37005778      -0.20080050
C        1.52037517      -0.65778766       0.79723258
C        0.56021389       0.72978457       0.89463209
N        0.61994467       1.73939787       1.49368070
H       -2.93470852       1.04151320      -1.77275662
H       -1.61069508       1.85583095      -0.09780228
H        1.05524225      -1.29032115      -1.25050580
H        0.09917974      -2.14889362       0.05728293
H        1.48541300      -1.07468336       1.79887400
H        2.51107488      -0.31435963       0.51844123
13
Frame=2 idx=008556 GeodesicLength=0.22925569134604984 rxn_smarts="[N:1](=[C:2](/[O:3][C:4]([C:5]([C:6]#[N:7])([H:12])[H:13])([H:10])[H:11])[H:9])\[H:8]>>[C:4](=[C:5]([H:12])[H:13])([H:10])[H:11].[N:1](=[C:2](/[O:3][C:6]#[N:7])[H:9])\[H:8]"
N       -2.14743990       0.41707988      -1.55644804
C       -1.49933413       0.88630653      -0.59357922
O       -0.50604774       0.14623140      -0.02796001
C        0.78941731      -1.35802873      -0.20668040
C        1.52364655      -0.66113705       0.78908414
C        0.57308776       0.75517820       0.91267375
N        0.67213454       1.77528276       1.48474918
H       -2.90109740       1.04372538      -1.81675941
H       -1.64886217       1.83716096      -0.08441411
H        1.01543826      -1.26006473      -1.26073502
H        0.12495264      -2.17123135       0.05364423
H        1.48184673      -1.07046771       1.79400632
H        2.52225755      -0.34003555       0.51241860
13
Frame=3 idx=008556 GeodesicLength=0.3440341107456245 rxn_smarts="[N:1](=[C:2](/[O:3][C:4]([C:5]([C:6]#[N:7])([H:12])[H:13])([H:10])[H:11])[H:9])\[H:8]>>[C:4](=[C:5]([H:12])[H:13])([H:10])[H:11].[N:1](=[C:2](/[O:3][C:6]#[N:7])[H:9])\[H:8]"
N       -2.12069272       0.41419606      -1.57345965
C       -1.51873566       0.86593484      -0.57374830
O       -0.55043241       0.12812057       0.03365232
C        0.77418648      -1.34356837      -0.21455974
C        1.52440779      -0.66558853       0.78257907
C        0.58861968       0.78328741       0.92701314
N        0.72654043       1.81196227       1.47150457
H       -2.86689166       1.04036737      -1.85524910
H       -1.68693842       1.81826550      -0.07194693
H        0.98223158      -1.22829444      -1.27083980
H        0.14574766      -2.18649637       0.04087930
H        1.46869705      -1.06663915       1.79059470
H        2.53326020      -0.37154714       0.51358042
13
Frame=4 idx=008556 GeodesicLength=0.4589302337867913 rxn_smarts="[N:1](=[C:2](/[O:3][C:4]([C:5]([C:6]#[N:7])([H:12])[H:13])([H:10])[H:11])[H:9])\[H:8]>>[C:4](=[C:5]([H:12])[H:13])([H:10])[H:11].[N:1](=[C:2](/[O:3][C:6]#[N:7])[H:9])\[H:8]"
N       -2.09473216       0.40896138      -1.58533337
C       -1.54007503       0.84339284      -0.55186862
O       -0.58875032       0.11388731       0.08883045
C        0.75884606      -1.32824959      -0.22283629
C        1.52386123      -0.67030837       0.77681327
C        0.60525636       0.81289696       0.93864677
N        0.78172975       1.84860758       1.45422081
H       -2.82943864       1.03717836      -1.89145092
H       -1.72807909       1.79619698      -0.05670608
H        0.95305698      -1.19710337      -1.28019622
H        0.16377763      -2.19769971       0.02382276
H        1.45107180      -1.06157082       1.78802322
H        2.54347543      -0.40618956       0.51803421
13
Frame=5 idx=008556 GeodesicLength=0.5739123002444888 rxn_smarts="[N:1](=[C:2](/[O:3][C:4]([C:5]([C:6]#[N:7])([H:12])[H:13])([H:10])[H:11])[H:9])\[H:8]>>[C:4](=[C:5]([H:12])[H:13])([H:10])[H:11].[N:1](=[C:2](/[O:3][C:6]#[N:7])[H:9])\[H:8]"
N       -2.06920268       0.40289293      -1.59388287
C       -1.56187196       0.81968424      -0.52994568
O       -0.62312969       0.10168295       0.13923683
C        0.74348290      -1.31260379      -0.23099409
C        1.52239782      -0.67501956       0.77151943
C        0.62206228       0.84328827       0.94869531
N        0.83677766       1.88451001       1.43391538
H       -2.78969406       1.03498169      -1.92458601
H       -1.77143998       1.77131505      -0.03981873
H        0.92679924      -1.16682294      -1.28869912
H        0.18026803      -2.20624134       0.00421121
H        1.43110153      -1.05504173       1.78595486
H        2.55244890      -0.44262578       0.52439346
13
Frame=6 idx=008556 GeodesicLength=0.6889407496826656 rxn_smarts="[N:1](=[C:2](/[O:3][C:4]([C:5]([C:6]#[N:7])([H:12])[H:13])([H:10])[H:11])[H:9])\[H:8]>>[C:4](=[C:5]([H:12])[H:13])([H:10])[H:11].[N:1](=[C:2](/[O:3][C:6]#[N:7])[H:9])\[H:8]"
N       -2.04449684       0.39653347      -1.59989197
C       -1.58345444       0.79517250      -0.50888802
O       -0.65475957       0.09047835       0.18570757
C        0.72823602      -1.29693893      -0.23879020
C        1.52026930      -0.67955934       0.76656901
C        0.63878228       0.87431625       0.95742907
N        0.89124619       1.91918101       1.41161131
H       -2.74820122       1.03445168      -1.95445202
H       -1.81630214       1.74390362      -0.02221563
H        0.90285886      -1.13760216      -1.29634896
H        0.19595499      -2.21285407      -0.01702353
H        1.40983050      -1.04684721       1.78423991
H        2.56003606      -0.48023517       0.53205346
13
Frame=7 idx=008556 GeodesicLength=0.8040043309812978 rxn_smarts="[N:1](=[C:2](/[O:3][C:4]([C:5]([C:6]#[N:7])([H:12])[H:13])([H:10])[H:11])[H:9])\[H:8]>>[C:4](=[C:5]([H:12])[H:13])([H:10])[H:11].[N:1](=[C:2](/[O:3][C:6]#[N:7])[H:9])\[H:8]"
N       -2.02050107       0.39028592      -1.60408469
C       -1.60435157       0.77020319      -0.48918755
O       -0.68443507       0.07974327       0.22886380
C        0.71316036      -1.28133029      -0.24617613
C        1.51757446      -0.68390731       0.76195550
C        0.65532659       0.90589281       0.96524854
N        0.94518283       1.95243378       1.38791619
H       -2.70602568       1.03523018      -1.98064674
H       -1.86194253       1.71444947      -0.00477866
H        0.88091665      -1.10926276      -1.30321297
H        0.21124387      -2.21788203      -0.03954457
H        1.38772079      -1.03707476       1.78278958
H        2.56613037      -0.51878148       0.54085771
13
Frame=8 idx=008556 GeodesicLength=0.9190846012082217 rxn_smarts="[N:1](=[C:2](/[O:3][C:4]([C:5]([C:6]#[N:7])([H:12])[H:13])([H:10])[H:11])[H:9])\[H:8]>>[C:4](=[C:5]([H:12])[H:13])([H:10])[H:11].[N:1](=[C:2](/[O:3][C:6]#[N:7])[H:9])\[H:8]"
N       -1.99730415       0.38427029      -1.60681622
C       -1.62447218       0.74484353      -0.47090943
O       -0.71274612       0.06905848       0.26920524
C        0.69827588      -1.26584884      -0.25311327
C        1.51440893      -0.68802063       0.75762764
C        0.67174017       0.93806639       0.97224274
N        0.99872051       1.98418040       1.36323396
H       -2.66338356       1.03742954      -2.00337484
H       -1.90810120       1.68308469       0.01213568
H        0.86064623      -1.08171495      -1.30934269
H        0.22641518      -2.22155251      -0.06304697
H        1.36512357      -1.02567839       1.78151788
H        2.57067673      -0.55811801       0.55064028
13
Frame=9 idx=008556 GeodesicLength=1.0341504251609817 rxn_smarts="[N:1](=[C:2](/[O:3][C:4]([C:5]([C:6]#[N:7])([H:12])[H:13])([H:10])[H:11])[H:9])\[H:8]>>[C:4](=[C:5]([H:12])[H:13])([H:10])[H:11].[N:1](=[C:2](/[O:3][C:6]#[N:7])[H:9])\[H:8]"
N       -1.97435490       0.37913398      -1.60892308
C       -1.64331569       0.71957678      -0.45452913
O       -0.73993222       0.05836277       0.30676450
C        0.68373399      -1.25046648      -0.25965584
C        1.51080472      -0.69199572       0.75373801
C        0.68827928       0.97091705       0.97847719
N        1.05224632       2.01420663       1.33838742
H       -2.62277684       1.03971514      -2.02191245
H       -1.95405518       1.65037244       0.02777179
H        0.84221033      -1.05472605      -1.31479808
H        0.24158591      -2.22386544      -0.08758261
H        1.34192113      -1.01278752       1.78047972
H        2.57365315      -0.59844358       0.56178256
13
Frame=10 idx=008556 GeodesicLength=1.1492014961129366 rxn_smarts="[N:1](=[C:2](/[O:3][C:4]([C:5]([C:6]#[N:7])([H:12])[H:13])([H:10])[H:11])[H:9])\[H:8]>>[C:4](=[C:5]([H:12])[H:13])([H:10])[H:11].[N:1](=[C:2](/[O:3][C:6]#[N:7])[H:9])\[H:8]"
N       -1.95200983       0.37462093      -1.61020216
C       -1.66131578       0.69404726      -0.43955534
O       -0.76647952       0.04720286       0.34208284
C        0.66945630      -1.23529383      -0.26574614
C        1.50685623      -0.69573204       0.75012684
C        0.70497727       1.00454982       0.98379396
N        1.10587393       2.04264129       1.31321316
H       -2.58269876       1.04320618      -2.03733669
H       -2.00025797       1.61586970       0.04252625
H        0.82511979      -1.02835994      -1.31960426
H        0.25696107      -2.22503219      -0.11277303
H        1.31853180      -0.99816932       1.77953844
H        2.57498547      -0.63955071       0.57393614
13
Frame=11 idx=008556 GeodesicLength=1.2642220799117163 rxn_smarts="[N:1](=[C:2](/[O:3][C:4]([C:5]([C:6]#[N:7])([H:12])[H:13])([H:10])[H:11])[H:9])\[H:8]>>[C:4](=[C:5]([H:12])[H:13])([H:10])[H:11].[N:1](=[C:2](/[O:3][C:6]#[N:7])[H:9])\[H:8]"
N       -1.93002333       0.37105926      -1.61097265
C       -1.67843939       0.66830656      -0.42600199
O       -0.79261582       0.03537372       0.37529317
C        0.65550305      -1.22037421      -0.27139671
C        1.50260086      -0.69924676       0.74682997
C        0.72199640       1.03906900       0.98805071
N        1.15987727       2.06946176       1.28791776
H       -2.54382041       1.04772679      -2.04964820
H       -2.04664849       1.57953286       0.05630743
H        0.80932644      -1.00256052      -1.32379056
H        0.27264513      -2.22510842      -0.13852880
H        1.29498763      -0.98175091       1.77868451
H        2.57461066      -0.68148913       0.58725536
13
Frame=12 idx=008556 GeodesicLength=1.379202571151606 rxn_smarts="[N:1](=[C:2](/[O:3][C:4]([C:5]([C:6]#[N:7])([H:12])[H:13])([H:10])[H:11])[H:9])\[H:8]>>[C:4](=[C:5]([H:12])[H:13])([H:10])[H:11].[N:1](=[C:2](/[O:3][C:6]#[N:7])[H:9])\[H:8]"
N       -1.90835878       0.36854868      -1.61130899
C       -1.69475083       0.64231189      -0.41376829
O       -0.81857550       0.02263533       0.40658244
C        0.64189309      -1.20574440      -0.27662287
C        1.49807139      -0.70253646       0.74384321
C        0.73946390       1.07456789       0.99110353
N        1.21447099       2.09467915       1.26258530
H       -2.50621168       1.05338413      -2.05905311
H       -2.09324444       1.54124022       0.06909802
H        0.79469951      -0.97726538      -1.32738645
H        0.28873038      -2.22414582      -0.16475628
H        1.27137572      -0.96343533       1.77786760
H        2.57243626      -0.72423990       0.60181589
13
Frame=13 idx=008556 GeodesicLength=1.4941408224961705 rxn_smarts="[N:1](=[C:2](/[O:3][C:4]([C:5]([C:6]#[N:7])([H:12])[H:13])([H:10])[H:11])[H:9])\[H:8]>>[C:4](=[C:5]([H:12])[H:13])([H:10])[H:11].[N:1](=[C:2](/[O:3][C:6]#[N:7])[H:9])\[H:8]"
N       -1.88715377       0.36701139      -1.61113735
C       -1.71038401       0.61593799      -0.40268623
O       -0.84458932       0.00870825       0.43615461
C        0.62862005      -1.19144224      -0.28144386
C        1.49329144      -0.70557826       0.74113556
C        0.75747955       1.11114673       0.99275896
N        1.26980576       2.11832737       1.23720345
H       -2.46945014       1.06052727      -2.06579497
H       -2.14011586       1.50079573       0.08092804
H        0.78105498      -0.95241809      -1.33042341
H        0.30529244      -2.22219146      -0.19136464
H        1.24780072      -0.94308919       1.77700956
H        2.56834817      -0.76773551       0.61766028
13
Frame=14 idx=008556 GeodesicLength=1.6090309624642813 rxn_smarts="[N:1](=[C:2](/[O:3][C:4]([C:5]([C:6]#[N:7])([H:12])[H:13])([H:10])[H:11])[H:9])\[H:8]>>[C:4](=[C:5]([H:12])[H:13])([H:10])[H:11].[N:1](=[C:2](/[O:3][C:6]#[N:7])[H:9])\[H:8]"
N       -1.86633217       0.36656412      -1.61050656
C       -1.72533323       0.58919397      -0.39271208
O       -0.87081998      -0.00663208       0.46410184
C        0.61571461      -1.17747566      -0.28589966
C        1.48826727      -0.70839197       0.73873615
C        0.77619902       1.14888543       0.99287120
N        1.32609134       2.14039745       1.21182076
H       -2.43378780       1.06910243      -2.06988314
H       -2.18720197       1.45811565       0.09171879
H        0.76834166      -0.92791120      -1.33292887
H        0.32238562      -2.21924263      -0.21835157
H        1.22426516      -0.92063446       1.77605503
H        2.56221048      -0.81197105       0.63497814
13
Frame=15 idx=008556 GeodesicLength=1.723873463033278 rxn_smarts="[N:1](=[C:2](/[O:3][C:4]([C:5]([C:6]#[N:7])([H:12])[H:13])([H:10])[H:11])[H:9])\[H:8]>>[C:4](=[C:5]([H:12])[H:13])([H:10])[H:11].[N:1](=[C:2](/[O:3][C:6]#[N:7])[H:9])\[H:8]"
N       -1.84594916       0.36720126      -1.60935953
C       -1.73965522       0.56201581      -0.38374420
O       -0.89743826      -0.02366661       0.49052650
C        0.60318923      -1.16385846      -0.29002945
C        1.48299761      -0.71097537       0.73665083
C        0.79576835       1.18787720       0.99122451
N        1.38348780       2.16088961       1.18643690
H       -2.39909080       1.07926331      -2.07135914
H       -2.23447988       1.41305130       0.10143758
H        0.75646019      -0.90365514      -1.33493081
H        0.34006224      -2.21530049      -0.24570255
H        1.20078901      -0.89594438       1.77491734
H        2.55385887      -0.85689803       0.65393203
13
Frame=16 idx=008556 GeodesicLength=1.8386679875227465 rxn_smarts="[N:1](=[C:2](/[O:3][C:4]([C:5]([C:6]#[N:7])([H:12])[H:13])([H:10])[H:11])[H:9])\[H:8]>>[C:4](=[C:5]([H:12])[H:13])([H:10])[H:11].[N:1](=[C:2](/[O:3][C:6]#[N:7])[H:9])\[H:8]"
N       -1.82601559       0.36894160      -1.60762600
C       -1.75336495       0.53438191      -0.37569072
O       -0.92460264      -0.04269669       0.51550261
C        0.59105874      -1.15058594      -0.29388557
C        1.47746270      -0.71335126       0.73490755
C        0.81636016       1.22818388       0.98766075
N        1.44214040       2.17980759       1.16094621
H       -2.36531495       1.09108308      -2.07018500
H       -2.28190013       1.36548083       0.11003328
H        0.74535184      -0.87951815      -1.33645319
H        0.35838412      -2.21034383      -0.27345614
H        1.17734691      -0.86892021       1.77350024
H        2.54309339      -0.90246281       0.67474599
