15
Frame=0 idx=009698 GeodesicLength=0.0 rxn_smarts="[O:1]([C:2]([C:3]1([H:11])[C:4]([H:12])([H:13])[C:5](=[O:6])[C:7]1([H:14])[H:15])([H:9])[H:10])[H:8]>>[C:4](=[C:5]=[O:6])([H:12])[H:13].[O:1](/[C:2](=[C:3](\[C:7]([H:10])([H:14])[H:15])[H:11])[H:9])[H:8]"
O       -1.65794620       0.96799829       0.59216263
C       -1.56718904      -0.25940917      -0.07872623
C       -0.12908239      -0.66293097      -0.13275069
C        0.84198526      -0.34379402       1.06932515
C        1.93863725       0.23284410       0.31852669
O        3.03886185       0.60551328       0.33073452
C        0.34571186       0.23361344      -1.24572535
H       -2.55045617       1.30455275       0.50735518
H       -2.30896123      -0.98067014       0.28739454
H       -0.88222923       0.22788067      -1.58697680
H       -0.04578766      -1.70988502      -0.42530463
H        0.38848353       0.43833259       1.69004272
H        1.16317903      -1.18027001       1.69015613
H        0.44722748       1.28650599      -0.98066262
H        0.97756566      -0.16028181      -2.03555119
15
Frame=1 idx=009698 GeodesicLength=0.10490069601821095 rxn_smarts="[O:1]([C:2]([C:3]1([H:11])[C:4]([H:12])([H:13])[C:5](=[O:6])[C:7]1([H:14])[H:15])([H:9])[H:10])[H:8]>>[C:4](=[C:5]=[O:6])([H:12])[H:13].[O:1](/[C:2](=[C:3](\[C:7]([H:10])([H:14])[H:15])[H:11])[H:9])[H:8]"
O       -1.65751861       0.97105433       0.58913616
C       -1.57074255      -0.25449375      -0.08526845
C       -0.13987329      -0.66783482      -0.14104584
C        0.85643776      -0.34243006       1.07794049
C        1.94777672       0.23734227       0.32558034
O        3.04742221       0.61484355       0.34284561
C        0.35188624       0.23001166      -1.24847347
H       -2.55475691       1.29962887       0.52668770
H       -2.31233053      -0.97516864       0.28138269
H       -0.89333324       0.22755853      -1.59739343
H       -0.06471940      -1.71503883      -0.43489532
H        0.38945259       0.43697107       1.69114173
H        1.17527654      -1.17925990       1.69887575
H        0.44112254       1.28571032      -0.99073928
H        0.98389992      -0.16889460      -2.03577465
15
Frame=2 idx=009698 GeodesicLength=0.20976970248162013 rxn_smarts="[O:1]([C:2]([C:3]1([H:11])[C:4]([H:12])([H:13])[C:5](=[O:6])[C:7]1([H:14])[H:15])([H:9])[H:10])[H:8]>>[C:4](=[C:5]=[O:6])([H:12])[H:13].[O:1](/[C:2](=[C:3](\[C:7]([H:10])([H:14])[H:15])[H:11])[H:9])[H:8]"
O       -1.65705982       0.97409543       0.58603113
C       -1.57441526      -0.24954247      -0.09195445
C       -0.15094048      -0.67287571      -0.14966627
C        0.87116531      -0.34088653       1.08691951
C        1.95703335       0.24201360       0.33282575
O        3.05602586       0.62444808       0.35505674
C        0.35817597       0.22628776      -1.25105833
H       -2.55846806       1.29451687       0.54639020
H       -2.31591733      -0.96954634       0.27520499
H       -0.90476996       0.22728794      -1.60799141
H       -0.08398746      -1.72023212      -0.44488895
H        0.39031067       0.43554825       1.69218247
H        1.18761526      -1.17817308       1.70781628
H        0.43493728       1.28470693      -1.00103556
H        0.99029469      -0.17764860      -2.03583210
15
Frame=3 idx=009698 GeodesicLength=0.31461549954926793 rxn_smarts="[O:1]([C:2]([C:3]1([H:11])[C:4]([H:12])([H:13])[C:5](=[O:6])[C:7]1([H:14])[H:15])([H:9])[H:10])[H:8]>>[C:4](=[C:5]=[O:6])([H:12])[H:13].[O:1](/[C:2](=[C:3](\[C:7]([H:10])([H:14])[H:15])[H:11])[H:9])[H:8]"
O       -1.65656977       0.97710850       0.58285739
C       -1.57821146      -0.24455999      -0.09878141
C       -0.16229715      -0.67806182      -0.15862869
C        0.88618471      -0.33914644       1.09629138
C        1.96641196       0.24686375       0.34027195
O        3.06467556       0.63433794       0.36736028
C        0.36458207       0.22243780      -1.25345932
H       -2.56155815       1.28922287       0.56642648
H       -2.31972816      -0.96380593       0.26886363
H       -0.91656122       0.22708203      -1.61876762
H       -0.10361421      -1.72546618      -0.45532471
H        0.39105964       0.43405628       1.69316503
H        1.20020989      -1.17700697       1.71698788
H        0.42867085       1.28348148      -1.01155335
H        0.99674544      -0.18654330      -2.03570892
15
Frame=4 idx=009698 GeodesicLength=0.4194516913740688 rxn_smarts="[O:1]([C:2]([C:3]1([H:11])[C:4]([H:12])([H:13])[C:5](=[O:6])[C:7]1([H:14])[H:15])([H:9])[H:10])[H:8]>>[C:4](=[C:5]=[O:6])([H:12])[H:13].[O:1](/[C:2](=[C:3](\[C:7]([H:10])([H:14])[H:15])[H:11])[H:9])[H:8]"
O       -1.65604634       0.98008505       0.57961645
C       -1.58213577      -0.23954918      -0.10575155
C       -0.17395852      -0.68340133      -0.16795356
C        0.90151159      -0.33718758       1.10608741
C        1.97591704       0.25189920       0.34792921
O        3.07337328       0.64452916       0.37975337
C        0.37110808       0.21845373      -1.25565708
H       -2.56398909       1.28373875       0.58679063
H       -2.32377113      -0.95794508       0.26235690
H       -0.92872845       0.22695428      -1.62972356
H       -0.12362844      -1.73074134      -0.46624766
H        0.39169790       0.43248870       1.69408754
H        1.21307149      -1.17575442       1.72640349
H        0.42232636       1.28201463      -1.02230152
H        1.00325201      -0.19558458      -2.03539007
15
Frame=5 idx=009698 GeodesicLength=0.5242834394848013 rxn_smarts="[O:1]([C:2]([C:3]1([H:11])[C:4]([H:12])([H:13])[C:5](=[O:6])[C:7]1([H:14])[H:15])([H:9])[H:10])[H:8]>>[C:4](=[C:5]=[O:6])([H:12])[H:13].[O:1](/[C:2](=[C:3](\[C:7]([H:10])([H:14])[H:15])[H:11])[H:9])[H:8]"
O       -1.65548730       0.98301260       0.57631869
C       -1.58619313      -0.23451485      -0.11286458
C       -0.18593962      -0.68890376      -0.17766115
C        0.91716362      -0.33498691       1.11634233
C        1.98555368       0.25712757       0.35580836
O        3.08212120       0.65503389       0.39222576
C        0.37775554       0.21432821      -1.25762888
H       -2.56572659       1.27806771       0.60745509
H       -2.32805450      -0.95196504       0.25568444
H       -0.94129366       0.22691951      -1.64085784
H       -0.14405572      -1.73605847      -0.47770267
H        0.39222544       0.43083409       1.69494821
H        1.22621443      -1.17440901       1.73607496
H        0.41590448       1.28028786      -1.03328440
H        1.00981213      -0.20477340      -2.03485830
15
Frame=6 idx=009698 GeodesicLength=0.6291251287565783 rxn_smarts="[O:1]([C:2]([C:3]1([H:11])[C:4]([H:12])([H:13])[C:5](=[O:6])[C:7]1([H:14])[H:15])([H:9])[H:10])[H:8]>>[C:4](=[C:5]=[O:6])([H:12])[H:13].[O:1](/[C:2](=[C:3](\[C:7]([H:10])([H:14])[H:15])[H:11])[H:9])[H:8]"
O       -1.65488840       0.98588085       0.57296625
C       -1.59038873      -0.22945901      -0.12012206
C       -0.19825842      -0.69457769      -0.18777505
C        0.93315860      -0.33251864       1.12709193
C        1.99532647       0.26255874       0.36392194
O        3.09092036       0.66587535       0.40477556
C        0.38452902       0.21005000      -1.25935190
H       -2.56672891       1.27220355       0.62841044
H       -2.33258659      -0.94586246       0.24884705
H       -0.95428367       0.22699302      -1.65217212
H       -0.16493107      -1.74141465      -0.48974492
H        0.39264167       0.42907826       1.69574721
H        1.23965301      -1.17296342       1.74601426
H        0.40940971       1.27827658      -1.04451357
H        1.01642694      -0.21412047      -2.03409502
15
Frame=7 idx=009698 GeodesicLength=0.7339677657244565 rxn_smarts="[O:1]([C:2]([C:3]1([H:11])[C:4]([H:12])([H:13])[C:5](=[O:6])[C:7]1([H:14])[H:15])([H:9])[H:10])[H:8]>>[C:4](=[C:5]=[O:6])([H:12])[H:13].[O:1](/[C:2](=[C:3](\[C:7]([H:10])([H:14])[H:15])[H:11])[H:9])[H:8]"
O       -1.65424300       0.98867791       0.56957074
C       -1.59472662      -0.22438563      -0.12752188
C       -0.21093157      -0.70043273      -0.19831782
C        0.94951721      -0.32976237       1.13837029
C        2.00523995       0.26820365       0.37228206
O        3.09977350       0.67707112       0.41739304
C        0.39143077       0.20560836      -1.26080126
H       -2.56697117       1.26614924       0.64962479
H       -2.33737511      -0.93963673       0.24184660
H       -0.96772343       0.22719332      -1.66366341
H       -0.18628817      -1.74680879      -0.50242645
H        0.39294845       0.42720734       1.69648457
H        1.25340626      -1.17141210       1.75623382
H        0.40284612       1.27595754      -1.05599513
H        1.02309682      -0.22363013      -2.03307997
15
Frame=8 idx=009698 GeodesicLength=0.8388294216523486 rxn_smarts="[O:1]([C:2]([C:3]1([H:11])[C:4]([H:12])([H:13])[C:5](=[O:6])[C:7]1([H:14])[H:15])([H:9])[H:10])[H:8]>>[C:4](=[C:5]=[O:6])([H:12])[H:13].[O:1](/[C:2](=[C:3](\[C:7]([H:10])([H:14])[H:15])[H:11])[H:9])[H:8]"
O       -1.65354464       0.99139566       0.56612986
C       -1.59921300      -0.21929387      -0.13507098
C       -0.22398032      -0.70647723      -0.20931968
C        0.96625827      -0.32668161       1.15022244
C        2.01529870       0.27407455       0.38090452
O        3.10868173       0.68864492       0.43007398
C        0.39846749       0.20098656      -1.26195085
H       -2.56640752       1.25988320       0.67111648
H       -2.34243105      -0.93328098       0.23467647
H       -0.98163980       0.22754098      -1.67533695
H       -0.20816687      -1.75223496      -0.51581129
H        0.39314201       0.42520839       1.69715643
H        1.26748539      -1.16974201       1.76674761
H        0.39622418       1.27329693      -1.06774834
H        1.02982545      -0.23332052      -2.03178971
15
Frame=9 idx=009698 GeodesicLength=0.9436899494894155 rxn_smarts="[O:1]([C:2]([C:3]1([H:11])[C:4]([H:12])([H:13])[C:5](=[O:6])[C:7]1([H:14])[H:15])([H:9])[H:10])[H:8]>>[C:4](=[C:5]=[O:6])([H:12])[H:13].[O:1](/[C:2](=[C:3](\[C:7]([H:10])([H:14])[H:15])[H:11])[H:9])[H:8]"
O       -1.65278992       0.99403658       0.56262498
C       -1.60385584      -0.21418120      -0.14278542
C       -0.23742698      -0.71271823      -0.22081345
C        0.98339106      -0.32324773       1.16268229
C        2.02550091       0.28018845       0.38980955
O        3.11763733       0.70062434       0.44282130
C        0.40564826       0.19616583      -1.26278101
H       -2.56494048       1.25336030       0.69296247
H       -2.34776935      -0.92678798       0.22731924
H       -0.99605565       0.22805032      -1.68720635
H       -0.23060824      -1.75768830      -0.52995661
H        0.39320177       0.42308618       1.69775098
H        1.28188975      -1.16793490       1.77757552
H        0.38955435       1.27025731      -1.07980184
H        1.03662304      -0.24321097      -2.03020166
15
Frame=10 idx=009698 GeodesicLength=1.0485597245551523 rxn_smarts="[O:1]([C:2]([C:3]1([H:11])[C:4]([H:12])([H:13])[C:5](=[O:6])[C:7]1([H:14])[H:15])([H:9])[H:10])[H:8]>>[C:4](=[C:5]=[O:6])([H:12])[H:13].[O:1](/[C:2](=[C:3](\[C:7]([H:10])([H:14])[H:15])[H:11])[H:9])[H:8]"
O       -1.65196110       0.99656819       0.55910963
C       -1.60865757      -0.20905839      -0.15064277
C       -0.25129149      -0.71916999      -0.23282423
C        1.00095488      -0.31942635       1.17580860
C        2.03585703       0.28656008       0.39900805
O        3.12664881       0.71303249       0.45560569
C        0.41296546       0.19113224      -1.26324711
H       -2.56260338       1.24663677       0.71499127
H       -2.35339132      -0.92016160       0.21980513
H       -1.01101151       0.22875687      -1.69924825
H       -0.25364989      -1.76316187      -0.54493810
H        0.39315749       0.42077612       1.69828280
H        1.29666518      -1.16599500       1.78871510
H        0.38283743       1.26681131      -1.09214163
H        1.04347999      -0.25330087      -2.02828418
15
Frame=11 idx=009698 GeodesicLength=1.1534474640596433 rxn_smarts="[O:1]([C:2]([C:3]1([H:11])[C:4]([H:12])([H:13])[C:5](=[O:6])[C:7]1([H:14])[H:15])([H:9])[H:10])[H:8]>>[C:4](=[C:5]=[O:6])([H:12])[H:13].[O:1](/[C:2](=[C:3](\[C:7]([H:10])([H:14])[H:15])[H:11])[H:9])[H:8]"
O       -1.65104693       0.99898854       0.55557022
C       -1.61362564      -0.20392057      -0.15865608
C       -0.26560294      -0.72583992      -0.24539108
C        1.01896902      -0.31516845       1.18965240
C        2.04636766       0.29321222       0.40852123
O        3.13571412       0.72590453       0.46842429
C        0.42042864       0.18585685      -1.26332074
H       -2.55932830       1.23966593       0.73725861
H       -2.35931107      -0.91338845       0.21212354
H       -1.02653734       0.22968765      -1.71147194
H       -0.27735065      -1.76864024      -0.56084044
H        0.39299968       0.41825615       1.69875009
H        1.31182212      -1.16389919       1.80018288
H        0.37609268       1.26290968      -1.10479806
H        1.05040896      -0.26362472      -2.02600492
15
Frame=12 idx=009698 GeodesicLength=1.2583465929238453 rxn_smarts="[O:1]([C:2]([C:3]1([H:11])[C:4]([H:12])([H:13])[C:5](=[O:6])[C:7]1([H:14])[H:15])([H:9])[H:10])[H:8]>>[C:4](=[C:5]=[O:6])([H:12])[H:13].[O:1](/[C:2](=[C:3](\[C:7]([H:10])([H:14])[H:15])[H:11])[H:9])[H:8]"
O       -1.65003115       1.00128663       0.55201656
C       -1.61876628      -0.19876759      -0.16682743
C       -0.28038961      -0.73273767      -0.25855181
C        1.03746050      -0.31042957       1.20426921
C        2.05703551       0.30016723       0.41836818
O        3.14483246       0.73927547       0.48126486
C        0.42804121       0.18031163      -1.26296587
H       -2.55507825       1.23243189       0.75974953
H       -2.36553899      -0.90645982       0.20427692
H       -1.04266764       0.23087603      -1.72387581
H       -0.30176309      -1.77410787      -0.57774841
H        0.39273081       0.41549037       1.69915294
H        1.32738175      -1.16163315       1.81198644
H        0.36933585       1.25850530      -1.11778811
H        1.05741693      -0.27420889      -2.02332719
15
Frame=13 idx=009698 GeodesicLength=1.3632407150612074 rxn_smarts="[O:1]([C:2]([C:3]1([H:11])[C:4]([H:12])([H:13])[C:5](=[O:6])[C:7]1([H:14])[H:15])([H:9])[H:10])[H:8]>>[C:4](=[C:5]=[O:6])([H:12])[H:13].[O:1](/[C:2](=[C:3](\[C:7]([H:10])([H:14])[H:15])[H:11])[H:9])[H:8]"
O       -1.64889485       1.00344275       0.54847182
C       -1.62408478      -0.19360216      -0.17515398
C       -0.29567890      -0.73987311      -0.27234578
C        1.05645866      -0.30515933       1.21972072
C        2.06786379       0.30745177       0.42856999
O        3.15400431       0.75317751       0.49410547
C        0.43580393       0.17446829      -1.26214023
H       -2.54983174       1.22494071       0.78241417
H       -2.37208311      -0.89937286       0.19627119
H       -1.05943980       0.23236138      -1.73645175
H       -0.32693869      -1.77954861      -0.59574941
H        0.39236159       0.41242356       1.69949367
H        1.34337053      -1.15918155       1.82412992
H        0.36258150       1.25354669      -1.13112578
H        1.06450757      -0.28507503      -2.02021003
15
Frame=14 idx=009698 GeodesicLength=1.4681335752956821 rxn_smarts="[O:1]([C:2]([C:3]1([H:11])[C:4]([H:12])([H:13])[C:5](=[O:6])[C:7]1([H:14])[H:15])([H:9])[H:10])[H:8]>>[C:4](=[C:5]=[O:6])([H:12])[H:13].[O:1](/[C:2](=[C:3](\[C:7]([H:10])([H:14])[H:15])[H:11])[H:9])[H:8]"
O       -1.64761567       1.00545332       0.54493022
C       -1.62958899      -0.18841716      -0.18364693
C       -0.31150829      -0.74725365      -0.28682295
C        1.07599042      -0.29929233       1.23607559
C        2.07884912       0.31509985       0.43915227
O        3.16322198       0.76766152       0.50693565
C        0.44372403       0.16828247      -1.26080407
H       -2.54352642       1.21714185       0.80529487
H       -2.37895718      -0.89210945       0.18810172
H       -1.07689097       0.23418676      -1.74920469
H       -0.35295131      -1.78493316      -0.61495368
H        0.39188879       0.40900823       1.69977148
H        1.35980573      -1.15651823       1.83661934
H        0.35585908       1.24796526      -1.14484535
H        1.07169969      -0.29627527      -2.01660346
15
Frame=15 idx=009698 GeodesicLength=1.5730098592609791 rxn_smarts="[O:1]([C:2]([C:3]1([H:11])[C:4]([H:12])([H:13])[C:5](=[O:6])[C:7]1([H:14])[H:15])([H:9])[H:10])[H:8]>>[C:4](=[C:5]=[O:6])([H:12])[H:13].[O:1](/[C:2](=[C:3](\[C:7]([H:10])([H:14])[H:15])[H:11])[H:9])[H:8]"
O       -1.64616860       1.00730394       0.54140221
C       -1.63528549      -0.18321013      -0.19231211
C       -0.32791478      -0.75488704      -0.30203493
C        1.09608459      -0.29276058       1.25340653
C        2.08998836       0.32314970       0.45014161
O        3.17247835       0.78277542       0.51973469
C        0.45180471       0.16170894      -1.25891136
H       -2.53611570       1.20901023       0.82839646
H       -2.38617339      -0.88465785       0.17976543
H       -1.09506085       0.23640331      -1.76213154
H       -0.37986925      -1.79023156      -0.63547139
H        0.39131847       0.40518050       1.69998556
H        1.37670907      -1.15361627       1.84945644
H        0.34919649       1.24168907      -1.15897501
H        1.07900802      -0.30785767      -2.01245259
15
Frame=16 idx=009698 GeodesicLength=1.6778536521724587 rxn_smarts="[O:1]([C:2]([C:3]1([H:11])[C:4]([H:12])([H:13])[C:5](=[O:6])[C:7]1([H:14])[H:15])([H:9])[H:10])[H:8]>>[C:4](=[C:5]=[O:6])([H:12])[H:13].[O:1](/[C:2](=[C:3](\[C:7]([H:10])([H:14])[H:15])[H:11])[H:9])[H:8]"
O       -1.64452329       1.00898670       0.53789065
C       -1.64118210      -0.17797244      -0.20116069
C       -0.34494114      -0.76277953      -0.31803957
C        1.11676970      -0.28548264       1.27179383
C        2.10127314       0.33164624       0.46156671
O        3.18175993       0.79858042       0.53248279
C        0.46004997       0.15469210      -1.25641410
H       -2.52753730       1.20049723       0.85175355
H       -2.39374651      -0.87699828       0.17125548
H       -1.11398754       0.23906933      -1.77523235
H       -0.40777181      -1.79540558      -0.65742352
H        0.39065441       0.40086265       1.70013431
H        1.39409967      -1.15044189       1.86263782
H        0.34263104       1.23463306      -1.17355254
H        1.08645182      -0.31988736      -2.00769237
