20
Frame=0 idx=009137 GeodesicLength=0.0 rxn_smarts="[C:1]([C@@:2]1([H:11])[N:3]([C:4]([H:12])([H:13])[H:14])[C:5]1([C:6]([H:15])([H:16])[H:17])[C:7]([H:18])([H:19])[H:20])([H:8])([H:9])[H:10]>>[C:1]([N+:3]1([C:4]([H:12])([H:13])[H:14])[C-:2]([H:11])[C:5]1([C:6]([H:15])([H:16])[H:17])[C:7]([H:18])([H:19])[H:20])([H:8])([H:9])[H:10]"
C       -1.71325871       1.22286516       0.18013938
C       -0.02233173       0.83852525       1.03970021
N       -0.65118448      -0.11127814      -0.24769167
C       -1.19990357      -1.41476495       0.05248821
C        0.75149949       0.18945062      -0.03005606
C        1.62659783      -0.99229183       0.33271745
C        1.36050509       1.05783289      -1.11060920
H       -2.55130706       0.69926363      -0.30951495
H       -2.08713536       1.55258467       1.15087954
H       -1.43591554       2.08280370      -0.41547695
H       -0.14296346       0.16219003       1.89575713
H       -0.78803307      -2.14633487      -0.64542489
H       -1.02767485      -1.76180460       1.07571150
H       -2.27992431      -1.37099044      -0.11109508
H        2.58359571      -0.61844292       0.70068507
H        1.19415645      -1.61032704       1.11778024
H        1.83099973      -1.62105565      -0.53879523
H        0.68720206       1.87215017      -1.37345951
H        1.57016869       0.47501338      -2.01146043
H        2.29490708       1.49461096      -0.75227475
20
Frame=1 idx=009137 GeodesicLength=0.05553971930720543 rxn_smarts="[C:1]([C@@:2]1([H:11])[N:3]([C:4]([H:12])([H:13])[H:14])[C:5]1([C:6]([H:15])([H:16])[H:17])[C:7]([H:18])([H:19])[H:20])([H:8])([H:9])[H:10]>>[C:1]([N+:3]1([C:4]([H:12])([H:13])[H:14])[C-:2]([H:11])[C:5]1([C:6]([H:15])([H:16])[H:17])[C:7]([H:18])([H:19])[H:20])([H:8])([H:9])[H:10]"
C       -1.71128436       1.23239136       0.17115918
C       -0.03480568       0.82516379       1.04101412
N       -0.65299676      -0.11690614      -0.23595066
C       -1.19962593      -1.42251734       0.05789390
C        0.75131163       0.18652494      -0.02664069
C        1.63185653      -0.99236196       0.33225334
C        1.35500950       1.05901549      -1.10629438
H       -2.55137923       0.72258712      -0.32842320
H       -2.09894245       1.56955873       1.13406511
H       -1.41719600       2.08797078      -0.42280128
H       -0.14805821       0.15301974       1.90079728
H       -0.80547847      -2.14387662      -0.66068983
H       -1.00209007      -1.78369375       1.07133867
H       -2.28337715      -1.37777377      -0.07683526
H        2.58957724      -0.61495245       0.69477419
H        1.20645414      -1.61201710       1.11984970
H        1.83432749      -1.62106885      -0.53979275
H        0.68230484       1.87387322      -1.36799656
H        1.56477759       0.47890358      -2.00895772
H        2.28961538       1.49615923      -0.74876316
20
Frame=2 idx=009137 GeodesicLength=0.11098211118260187 rxn_smarts="[C:1]([C@@:2]1([H:11])[N:3]([C:4]([H:12])([H:13])[H:14])[C:5]1([C:6]([H:15])([H:16])[H:17])[C:7]([H:18])([H:19])[H:20])([H:8])([H:9])[H:10]>>[C:1]([N+:3]1([C:4]([H:12])([H:13])[H:14])[C-:2]([H:11])[C:5]1([C:6]([H:15])([H:16])[H:17])[C:7]([H:18])([H:19])[H:20])([H:8])([H:9])[H:10]"
C       -1.70914116       1.24170545       0.16227817
C       -0.04732360       0.81181456       1.04225384
N       -0.65496166      -0.12259215      -0.22441982
C       -1.19933444      -1.43037502       0.06326322
C        0.75092231       0.18363216      -0.02324719
C        1.63699366      -0.99228902       0.33185252
C        1.34945927       1.06012022      -1.10198733
H       -2.55091996       0.74612351      -0.34767594
H       -2.11048638       1.58625996       1.11709476
H       -1.39849281       2.09304736      -0.42944313
H       -0.15316301       0.14391818       1.90573135
H       -0.82364901      -2.14111645      -0.67560511
H       -0.97647267      -1.80548246       1.06607273
H       -2.28610050      -1.38490328      -0.04217319
H        2.59538205      -0.61126717       0.68889574
H        1.21870157      -1.61342554       1.12205608
H        1.83752465      -1.62105812      -0.54063773
H        0.67745269       1.87556455      -1.36264256
H        1.55935345       0.48267859      -2.00642186
H        2.28425555       1.49764467      -0.74524454
20
Frame=3 idx=009137 GeodesicLength=0.16630671624788929 rxn_smarts="[C:1]([C@@:2]1([H:11])[N:3]([C:4]([H:12])([H:13])[H:14])[C:5]1([C:6]([H:15])([H:16])[H:17])[C:7]([H:18])([H:19])[H:20])([H:8])([H:9])[H:10]>>[C:1]([N+:3]1([C:4]([H:12])([H:13])[H:14])[C-:2]([H:11])[C:5]1([C:6]([H:15])([H:16])[H:17])[C:7]([H:18])([H:19])[H:20])([H:8])([H:9])[H:10]"
C       -1.70684345       1.25080625       0.15352894
C       -0.05987325       0.79848569       1.04340707
N       -0.65707698      -0.12832731      -0.21311430
C       -1.19902737      -1.43832998       0.06858333
C        0.75033766       0.18077027      -0.01988913
C        1.64200932      -0.99207581       0.33151908
C        1.34385838       1.06114427      -1.09770670
H       -2.54992905       0.76988429      -0.36721890
H       -2.12176484       1.60267024       1.10001399
H       -1.37983183       2.09804542      -0.43536920
H       -0.15827205       0.13489660       1.91054782
H       -0.84251000      -2.13809318      -0.69008222
H       -0.95090157      -1.82708876       1.05992678
H       -2.28805251      -1.39242566      -0.00726043
H        2.60100434      -0.60739052       0.68306932
H        1.23088003      -1.61455412       1.12439385
H        1.84060896      -1.62102592      -0.54132456
H        0.67264328       1.87721799      -1.35741687
H        1.55390646       0.48632873      -2.00386808
H        2.27883446       1.49906150      -0.74173978
20
Frame=4 idx=009137 GeodesicLength=0.22149863154538096 rxn_smarts="[C:1]([C@@:2]1([H:11])[N:3]([C:4]([H:12])([H:13])[H:14])[C:5]1([C:6]([H:15])([H:16])[H:17])[C:7]([H:18])([H:19])[H:20])([H:8])([H:9])[H:10]>>[C:1]([N+:3]1([C:4]([H:12])([H:13])[H:14])[C-:2]([H:11])[C:5]1([C:6]([H:15])([H:16])[H:17])[C:7]([H:18])([H:19])[H:20])([H:8])([H:9])[H:10]"
C       -1.70441447       1.25970871       0.14493920
C       -0.07244111       0.78519480       1.04447321
N       -0.65934490      -0.13409716      -0.20205006
C       -1.19870193      -1.44638420       0.07383647
C        0.74956460       0.17793960      -0.01657657
C        1.64691489      -0.99173981       0.33126344
C        1.33820396       1.06209230      -1.09347489
H       -2.54841617       0.79389934      -0.38700637
H       -2.13278471       1.61880193       1.08286562
H       -1.36124155       2.10298458      -0.44055199
H       -0.16337247       0.12597270       1.91525473
H       -0.86202296      -2.13487194      -0.70405223
H       -0.92543779      -1.84844065       1.05292671
H       -2.28920828      -1.40040064       0.02774263
H        2.60645399      -0.60334010       0.67732923
H        1.24298796      -1.61542433       1.12687011
H        1.84360705      -1.62099809      -0.54185293
H        0.66786074       1.87884525      -1.35234399
H        1.54843754       0.48984489      -2.00132586
H        2.27335560       1.50041281      -0.73826646
20
Frame=5 idx=009137 GeodesicLength=0.2765420368571863 rxn_smarts="[C:1]([C@@:2]1([H:11])[N:3]([C:4]([H:12])([H:13])[H:14])[C:5]1([C:6]([H:15])([H:16])[H:17])[C:7]([H:18])([H:19])[H:20])([H:8])([H:9])[H:10]>>[C:1]([N+:3]1([C:4]([H:12])([H:13])[H:14])[C-:2]([H:11])[C:5]1([C:6]([H:15])([H:16])[H:17])[C:7]([H:18])([H:19])[H:20])([H:8])([H:9])[H:10]"
C       -1.70183548       1.26837783       0.13653142
C       -0.08502485       0.77190628       1.04540076
N       -0.66174379      -0.13993388      -0.19123003
C       -1.19835638      -1.45451262       0.07902524
C        0.74860514       0.17512246      -0.01333229
C        1.65166798      -0.99122798       0.33107395
C        1.33252327       1.06292971      -1.08928816
H       -2.54635642       0.81814089      -0.40693604
H       -2.14350263       1.63457697       1.06568794
H       -1.34274205       2.10784782      -0.44501130
H       -0.16849735       0.11712446       1.91977174
H       -0.88213975      -2.13136613      -0.71748436
H       -0.90014133      -1.86951534       1.04505212
H       -2.28954389      -1.40879324       0.06285450
H        2.61165971      -0.59905645       0.67165853
H        1.25493879      -1.61597992       1.12942840
H        1.84651573      -1.62088139      -0.54218552
H        0.66314850       1.88035925      -1.34742815
H        1.54299685       0.49321069      -1.99874292
H        2.26782795       1.50167057      -0.73484583
20
Frame=6 idx=009137 GeodesicLength=0.3314537767714465 rxn_smarts="[C:1]([C@@:2]1([H:11])[N:3]([C:4]([H:12])([H:13])[H:14])[C:5]1([C:6]([H:15])([H:16])[H:17])[C:7]([H:18])([H:19])[H:20])([H:8])([H:9])[H:10]>>[C:1]([N+:3]1([C:4]([H:12])([H:13])[H:14])[C-:2]([H:11])[C:5]1([C:6]([H:15])([H:16])[H:17])[C:7]([H:18])([H:19])[H:20])([H:8])([H:9])[H:10]"
C       -1.69918296       1.27688829       0.12831498
C       -0.09762002       0.75866635       1.04624185
N       -0.66429385      -0.14580868      -0.18067765
C       -1.19798477      -1.46274263       0.08412189
C        0.74747403       0.17231869      -0.01015264
C        1.65634033      -0.99061607       0.33097491
C        1.32679676       1.06367789      -1.08518277
H       -2.54380729       0.84271580      -0.42704926
H       -2.15400741       1.65009795       1.04851857
H       -1.32439366       2.11271384      -0.44871020
H       -0.17361780       0.10838777       1.92419000
H       -0.90282719      -2.12772827      -0.73035415
H       -0.87501207      -1.89026630       1.03637031
H       -2.28907352      -1.41768312       0.09790263
H        2.61671401      -0.59461956       0.66612475
H        1.26681862      -1.61631013       1.13212078
H        1.84941600      -1.62078868      -0.54235726
H        0.65844334       1.88183083      -1.34270600
H        1.53756324       0.49641417      -1.99621219
H        2.26225421       1.50285186      -0.73147854
20
Frame=7 idx=009137 GeodesicLength=0.3861846033747589 rxn_smarts="[C:1]([C@@:2]1([H:11])[N:3]([C:4]([H:12])([H:13])[H:14])[C:5]1([C:6]([H:15])([H:16])[H:17])[C:7]([H:18])([H:19])[H:20])([H:8])([H:9])[H:10]>>[C:1]([N+:3]1([C:4]([H:12])([H:13])[H:14])[C-:2]([H:11])[C:5]1([C:6]([H:15])([H:16])[H:17])[C:7]([H:18])([H:19])[H:20])([H:8])([H:9])[H:10]"
C       -1.69636336       1.28516739       0.12030012
C       -0.11022016       0.74544299       1.04695007
N       -0.66701438      -0.15171005      -0.17035975
C       -1.19760532      -1.47105846       0.08915020
C        0.74614028       0.16954108      -0.00704333
C        1.66086534      -0.98985875       0.33093850
C        1.32099435       1.06435032      -1.08114860
H       -2.54064246       0.86758303      -0.44733489
H       -2.16422438       1.66524758       1.03130960
H       -1.30599232       2.11745152      -0.45158561
H       -0.17874950       0.09974232       1.92843946
H       -0.92393245      -2.12398505      -0.74251111
H       -0.85014648      -1.91056548       1.02700184
H       -2.28785620      -1.42706707       0.13272750
H        2.62154206      -0.58998685       0.66068214
H        1.27854517      -1.61637318       1.13489486
H        1.85223866      -1.62064057      -0.54238122
H        0.65375675       1.88326809      -1.33812009
H        1.53205550       0.49950313      -1.99370678
H        2.25660891       1.50394801      -0.72820289
20
Frame=8 idx=009137 GeodesicLength=0.44082418495915676 rxn_smarts="[C:1]([C@@:2]1([H:11])[N:3]([C:4]([H:12])([H:13])[H:14])[C:5]1([C:6]([H:15])([H:16])[H:17])[C:7]([H:18])([H:19])[H:20])([H:8])([H:9])[H:10]>>[C:1]([N+:3]1([C:4]([H:12])([H:13])[H:14])[C-:2]([H:11])[C:5]1([C:6]([H:15])([H:16])[H:17])[C:7]([H:18])([H:19])[H:20])([H:8])([H:9])[H:10]"
C       -1.69343774       1.29325552       0.11246837
C       -0.12282307       0.73223345       1.04749947
N       -0.66984980      -0.15768701      -0.16032462
C       -1.19719466      -1.47946598       0.09411288
C        0.74463540       0.16676490      -0.00402737
C        1.66524522      -0.98894869       0.33097555
C        1.31516630       1.06492611      -1.07717909
H       -2.53685291       0.89279515      -0.46777145
H       -2.17417111       1.68007664       1.01409777
H       -1.28773052       2.12222437      -0.45368748
H       -0.18391234       0.09119007       1.93248169
H       -0.94572963      -2.12008477      -0.75400582
H       -0.82546905      -1.93054674       1.01673901
H       -2.28573813      -1.43704403       0.16760443
H        2.62611966      -0.58513146       0.65534854
H        1.29010064      -1.61615806       1.13774095
H        1.85501321      -1.62042624      -0.54220106
H        0.64911523       1.88459075      -1.33373482
H        1.52661744       0.50244173      -1.99117269
H        2.25089585       1.50499428      -0.72496426
20
Frame=9 idx=009137 GeodesicLength=0.49537201785655166 rxn_smarts="[C:1]([C@@:2]1([H:11])[N:3]([C:4]([H:12])([H:13])[H:14])[C:5]1([C:6]([H:15])([H:16])[H:17])[C:7]([H:18])([H:19])[H:20])([H:8])([H:9])[H:10]>>[C:1]([N+:3]1([C:4]([H:12])([H:13])[H:14])[C-:2]([H:11])[C:5]1([C:6]([H:15])([H:16])[H:17])[C:7]([H:18])([H:19])[H:20])([H:8])([H:9])[H:10]"
C       -1.69047885       1.30122158       0.10482905
C       -0.13545067       0.71906333       1.04795524
N       -0.67284346      -0.16371564      -0.15056988
C       -1.19675496      -1.48797998       0.09898728
C        0.74296472       0.16398238      -0.00109029
C        1.66956213      -0.98795388       0.33110073
C        1.30928654       1.06540960      -1.07331133
H       -2.53251528       0.91846043      -0.48841998
H       -2.18397005       1.69466702       0.99690711
H       -1.26961140       2.12706222      -0.45497940
H       -0.18910684       0.08274637       1.93642354
H       -0.96805416      -2.11613489      -0.76484500
H       -0.80097461      -1.95016995       1.00572012
H       -2.28281235      -1.44758508       0.20236376
H        2.63055772      -0.58013791       0.65017398
H        1.30157935      -1.61574622       1.14070458
H        1.85784552      -1.62023310      -0.54187724
H        0.64445074       1.88585799      -1.32956341
H        1.52120128       0.50521800      -1.98872102
H        2.24512463       1.50596774      -0.72178785
20
Frame=10 idx=009137 GeodesicLength=0.5497838912355795 rxn_smarts="[C:1]([C@@:2]1([H:11])[N:3]([C:4]([H:12])([H:13])[H:14])[C:5]1([C:6]([H:15])([H:16])[H:17])[C:7]([H:18])([H:19])[H:20])([H:8])([H:9])[H:10]>>[C:1]([N+:3]1([C:4]([H:12])([H:13])[H:14])[C-:2]([H:11])[C:5]1([C:6]([H:15])([H:16])[H:17])[C:7]([H:18])([H:19])[H:20])([H:8])([H:9])[H:10]"
C       -1.68735020       1.30894509       0.09738361
C       -0.14808394       0.70588771       1.04822601
N       -0.67598828      -0.16979575      -0.14106735
C       -1.19630322      -1.49657789       0.10380266
C        0.74109614       0.16121332       0.00174652
C        1.67369796      -0.98678721       0.33127447
C        1.30334294       1.06581790      -1.06951313
H       -2.52742879       0.94446473      -0.50919945
H       -2.19346433       1.70886184       0.97967814
H       -1.25143336       2.13179445      -0.45542171
H       -0.19435812       0.07438617       1.94012670
H       -0.99085260      -2.11212704      -0.77485921
H       -0.77677537      -1.96930357       0.99400212
H       -2.27908533      -1.45870842       0.23692671
H        2.63471549      -0.57491466       0.64508976
H        1.31283010      -1.61504904       1.14369297
H        1.86060246      -1.61992521      -0.54139364
H        0.63981035       1.88704085      -1.32554657
H        1.51576170       0.50789167      -1.98625563
H        2.23926639       1.50688506      -0.71869297
20
Frame=11 idx=009137 GeodesicLength=0.6041354177043021 rxn_smarts="[C:1]([C@@:2]1([H:11])[N:3]([C:4]([H:12])([H:13])[H:14])[C:5]1([C:6]([H:15])([H:16])[H:17])[C:7]([H:18])([H:19])[H:20])([H:8])([H:9])[H:10]>>[C:1]([N+:3]1([C:4]([H:12])([H:13])[H:14])[C-:2]([H:11])[C:5]1([C:6]([H:15])([H:16])[H:17])[C:7]([H:18])([H:19])[H:20])([H:8])([H:9])[H:10]"
C       -1.68421524       1.31658121       0.09011162
C       -0.16074967       0.69275167       1.04839924
N       -0.67928979      -0.17594457      -0.13185742
C       -1.19581586      -1.50529982       0.10853139
C        0.73906645       0.15842708       0.00449807
C        1.67778156      -0.98554508       0.33154122
C        1.29733983       1.06613178      -1.06582294
H       -2.52171651       0.97100267      -0.53022428
H       -2.20285707       1.72284584       0.96245622
H       -1.23340871       2.13665954      -0.45501450
H       -0.19966078       0.06613970       1.94372805
H       -1.01421598      -2.10813062      -0.78418868
H       -0.75273031      -1.98809126       0.98151953
H       -2.27452353      -1.47045336       0.27140152
H        2.63873904      -0.56955215       0.64018527
H        1.32400348      -1.61417270       1.14679188
H        1.86344880      -1.61964485      -0.54076518
H        0.63512706       1.88816558      -1.32175014
H        1.51033623       0.51039328      -1.98388312
H        2.23334101       1.50773607      -0.71565777
20
Frame=12 idx=009137 GeodesicLength=0.6584701883967333 rxn_smarts="[C:1]([C@@:2]1([H:11])[N:3]([C:4]([H:12])([H:13])[H:14])[C:5]1([C:6]([H:15])([H:16])[H:17])[C:7]([H:18])([H:19])[H:20])([H:8])([H:9])[H:10]>>[C:1]([N+:3]1([C:4]([H:12])([H:13])[H:14])[C-:2]([H:11])[C:5]1([C:6]([H:15])([H:16])[H:17])[C:7]([H:18])([H:19])[H:20])([H:8])([H:9])[H:10]"
C       -1.68092836       1.32399861       0.08298798
C       -0.17344689       0.67958161       1.04837097
N       -0.68272835      -0.18218201      -0.12291353
C       -1.19531219      -1.51411768       0.11322175
C        0.73683941       0.15563484       0.00714161
C        1.68167900      -0.98411943       0.33186445
C        1.29127912       1.06636304      -1.06220448
H       -2.51515013       0.99798240      -0.55142778
H       -2.21199011       1.73644507       0.94514263
H       -1.21533663       2.14149532      -0.45373946
H       -0.20506702       0.05794496       1.94706507
H       -1.03822405      -2.10404642      -0.79268608
H       -0.72889611      -2.00649806       0.96820368
H       -2.26905823      -1.48283895       0.30592967
H        2.64245062      -0.56392714       0.63538720
H        1.33493131      -1.61301665       1.14991065
H        1.86625526      -1.61921841      -0.53995109
H        0.63047024       1.88917164      -1.31813246
H        1.50493103       0.51279457      -1.98148317
H        2.22730210       1.50855269      -0.71268761
20
Frame=13 idx=009137 GeodesicLength=0.7127629283012156 rxn_smarts="[C:1]([C@@:2]1([H:11])[N:3]([C:4]([H:12])([H:13])[H:14])[C:5]1([C:6]([H:15])([H:16])[H:17])[C:7]([H:18])([H:19])[H:20])([H:8])([H:9])[H:10]>>[C:1]([N+:3]1([C:4]([H:12])([H:13])[H:14])[C-:2]([H:11])[C:5]1([C:6]([H:15])([H:16])[H:17])[C:7]([H:18])([H:19])[H:20])([H:8])([H:9])[H:10]"
C       -1.67761960       1.33133412       0.07601090
C       -0.18618726       0.66644091       1.04822540
N       -0.68633417      -0.18849885      -0.11426297
C       -1.19477801      -1.52307797       0.11782961
C        0.73443923       0.15281976       0.00969005
C        1.68550965      -0.98261471       0.33228035
C        1.28513871       1.06651126      -1.05869721
H       -2.50784875       1.02554234      -0.57286691
H       -2.22101391       1.74984727       0.92779374
H       -1.19735805       2.14644790      -0.45159023
H       -0.21054743       0.04985652       1.95028160
H       -1.06280809      -2.10002750      -0.80043312
H       -0.70521281      -2.02455622       0.95412172
H       -2.26273076      -1.49587556       0.34038824
H        2.64600172      -0.55814782       0.63079212
H        1.34574998      -1.61169725       1.15311997
H        1.86916473      -1.61880008      -0.53899658
H        0.62574909       1.89012715      -1.31473378
H        1.49951900       0.51504229      -1.97917816
H        2.22116673       1.50932646      -0.70977475
20
Frame=14 idx=009137 GeodesicLength=0.7670293967880948 rxn_smarts="[C:1]([C@@:2]1([H:11])[N:3]([C:4]([H:12])([H:13])[H:14])[C:5]1([C:6]([H:15])([H:16])[H:17])[C:7]([H:18])([H:19])[H:20])([H:8])([H:9])[H:10]>>[C:1]([N+:3]1([C:4]([H:12])([H:13])[H:14])[C-:2]([H:11])[C:5]1([C:6]([H:15])([H:16])[H:17])[C:7]([H:18])([H:19])[H:20])([H:8])([H:9])[H:10]"
C       -1.67422010       1.33848571       0.06917941
C       -0.19897567       0.65327478       1.04788903
N       -0.69009634      -0.19490152      -0.10589254
C       -1.19423212      -1.53213170       0.12238842
C        0.73185244       0.14998649       0.01212042
C        1.68919459      -0.98094950       0.33274697
C        1.27894105       1.06656832      -1.05527790
H       -2.49966431       1.05360381      -0.59445878
H       -2.22985121       1.76290837       0.91036273
H       -1.17936960       2.15137928      -0.44852979
H       -0.21614877       0.04184446       1.95326198
H       -1.08797261      -2.09603417      -0.80728026
H       -0.68176263      -2.04215454       0.93927643
H       -2.25552793      -1.50955561       0.37477527
H        2.64929322      -0.55213922       0.62633208
H        1.35633984      -1.61012627       1.15633308
H        1.87210799      -1.61824859      -0.53789345
H        0.62102907       1.89097121      -1.31150641
H        1.49412240       0.51717939      -1.97689307
H        2.21494070       1.51003929      -0.70693361
20
Frame=15 idx=009137 GeodesicLength=0.8212437010214975 rxn_smarts="[C:1]([C@@:2]1([H:11])[N:3]([C:4]([H:12])([H:13])[H:14])[C:5]1([C:6]([H:15])([H:16])[H:17])[C:7]([H:18])([H:19])[H:20])([H:8])([H:9])[H:10]>>[C:1]([N+:3]1([C:4]([H:12])([H:13])[H:14])[C-:2]([H:11])[C:5]1([C:6]([H:15])([H:16])[H:17])[C:7]([H:18])([H:19])[H:20])([H:8])([H:9])[H:10]"
C       -1.67075846       1.34553699       0.06249171
C       -0.21180539       0.64012224       1.04738515
N       -0.69401897      -0.20139094      -0.09781212
C       -1.19364921      -1.54132508       0.12686724
C        0.72907873       0.14713019       0.01443721
C        1.69275615      -0.97917536       0.33329913
C        1.27265107       1.06654459      -1.05197042
H       -2.49065423       1.08221785      -0.61611942
H       -2.23847678       1.77577746       0.89288416
H       -1.16142782       2.15635136      -0.44461807
H       -0.22184863       0.03393326       1.95605478
H       -1.11361427      -2.09214532      -0.81326593
H       -0.65855180      -2.05933684       0.92369261
H       -2.24741485      -1.52390983       0.40896789
H        2.65233978      -0.54593757       0.62208778
H        1.36672414      -1.60838144       1.15958903
H        1.87513050      -1.61764045      -0.53663645
H        0.61624477       1.89173769      -1.30849466
H        1.48870546       0.51917722      -1.97467218
H        2.20858982       1.51071399      -0.70416744
20
Frame=16 idx=009137 GeodesicLength=0.8754444996545114 rxn_smarts="[C:1]([C@@:2]1([H:11])[N:3]([C:4]([H:12])([H:13])[H:14])[C:5]1([C:6]([H:15])([H:16])[H:17])[C:7]([H:18])([H:19])[H:20])([H:8])([H:9])[H:10]>>[C:1]([N+:3]1([C:4]([H:12])([H:13])[H:14])[C-:2]([H:11])[C:5]1([C:6]([H:15])([H:16])[H:17])[C:7]([H:18])([H:19])[H:20])([H:8])([H:9])[H:10]"
C       -1.66724679       1.35247437       0.05592144
C       -0.22469525       0.62696321       1.04670403
N       -0.69810713      -0.20797628      -0.09002850
C       -1.19304299      -1.55064901       0.13127610
C        0.72612114       0.14424405       0.01663218
C        1.69620014      -0.97727810       0.33392912
C        1.26628386       1.06643717      -1.04877506
H       -2.48075240       1.11141791      -0.63787045
H       -2.24692823       1.78842927       0.87532305
H       -1.14352242       2.16135337      -0.43981677
H       -0.22767822       0.02610984       1.95864849
H       -1.13983041      -2.08836216      -0.81835155
H       -0.63555142      -2.07610705       0.90732447
H       -2.23837740      -1.53894373       0.44306452
H        2.65514577      -0.53952831       0.61805877
H        1.37689562      -1.60645094       1.16287390
H        1.87825544      -1.61694279      -0.53523148
H        0.61140506       1.89240738      -1.30569934
H        1.48330140       0.52104872      -1.97251477
H        2.20212425       1.51135307      -0.70146813
