15
Frame=0 idx=010863 GeodesicLength=0.0 rxn_smarts="[C:1]([C@@:2]12[C:3]([H:11])([H:12])[C@:4]1([O:5][H:13])[C:6]([H:14])([H:15])[O:7]2)([H:8])([H:9])[H:10]>>[C:1](=[C:2]1[C:3]([H:11])([H:12])[C@:4]1([O:5][H:13])[C:6]([O:7][H:10])([H:14])[H:15])([H:8])[H:9]"
C        1.86204116      -0.15681889       0.65293236
C        0.68374800      -0.33781258      -0.05759596
C       -0.13015957      -0.86583253      -1.15616212
C       -0.78668109      -0.27160074       0.09141945
O       -1.45321577      -1.08570329       0.98785624
C       -0.95511576       1.22799682       0.02372056
O        0.33338540       1.57634887      -0.43386274
H        2.80541594      -0.43062208       0.19706096
H        1.79835829      -0.19997150       1.73460341
H        1.37145287       1.03633715       0.31271005
H       -0.16377247      -0.38025512      -2.12153033
H       -0.13866812      -1.95267753      -1.16379443
H       -2.29605187      -1.34104051       0.60661470
H       -1.73038139       1.54292578      -0.68575506
H       -1.20035560       1.63872610       1.01178285
15
Frame=1 idx=010863 GeodesicLength=0.05930272951244493 rxn_smarts="[C:1]([C@@:2]12[C:3]([H:11])([H:12])[C@:4]1([O:5][H:13])[C:6]([H:14])([H:15])[O:7]2)([H:8])([H:9])[H:10]>>[C:1](=[C:2]1[C:3]([H:11])([H:12])[C@:4]1([O:5][H:13])[C:6]([O:7][H:10])([H:14])[H:15])([H:8])[H:9]"
C        1.86450862      -0.15589693       0.65147288
C        0.68392529      -0.33243339      -0.05765288
C       -0.12889868      -0.86863813      -1.15355228
C       -0.78631579      -0.27121429       0.09086592
O       -1.45435270      -1.08066751       0.99049451
C       -0.95982061       1.22802642       0.02035559
O        0.33043430       1.58040644      -0.43185085
H        2.80420648      -0.43427672       0.18993720
H        1.80252036      -0.22856425       1.73181526
H        1.37832994       1.06058777       0.32281587
H       -0.16400077      -0.38314168      -2.11916082
H       -0.13360285      -1.95537646      -1.15853221
H       -2.29598253      -1.33797988       0.60783848
H       -1.73335654       1.53955984      -0.69202903
H       -1.20759452       1.63960876       1.00718236
15
Frame=2 idx=010863 GeodesicLength=0.11858246005536584 rxn_smarts="[C:1]([C@@:2]12[C:3]([H:11])([H:12])[C@:4]1([O:5][H:13])[C:6]([H:14])([H:15])[O:7]2)([H:8])([H:9])[H:10]>>[C:1](=[C:2]1[C:3]([H:11])([H:12])[C@:4]1([O:5][H:13])[C:6]([O:7][H:10])([H:14])[H:15])([H:8])[H:9]"
C        1.86689503      -0.15490562       0.65010969
C        0.68404308      -0.32732087      -0.05758193
C       -0.12765769      -0.87155676      -1.15085840
C       -0.78599720      -0.27089187       0.09034617
O       -1.45568581      -1.07562671       0.99308579
C       -0.96440644       1.22799106       0.01700229
O        0.32766484       1.58430600      -0.42962311
H        2.80289278      -0.43742795       0.18271365
H        1.80683367      -0.25723037       1.72832176
H        1.38515459       1.08514663       0.33322590
H       -0.16410615      -0.38612898      -2.11670525
H       -0.12866454      -1.95816902      -1.15319940
H       -2.29610321      -1.33484040       0.60897038
H       -1.73606948       1.53622527      -0.69837194
H       -1.21479348       1.64042959       1.00256441
15
Frame=3 idx=010863 GeodesicLength=0.1778438592789809 rxn_smarts="[C:1]([C@@:2]12[C:3]([H:11])([H:12])[C@:4]1([O:5][H:13])[C:6]([H:14])([H:15])[O:7]2)([H:8])([H:9])[H:10]>>[C:1](=[C:2]1[C:3]([H:11])([H:12])[C@:4]1([O:5][H:13])[C:6]([O:7][H:10])([H:14])[H:15])([H:8])[H:9]"
C        1.86919493      -0.15385296       0.64885219
C        0.68409981      -0.32248817      -0.05738358
C       -0.12644348      -0.87459364      -1.14808309
C       -0.78572805      -0.27063810       0.08985896
O       -1.45722055      -1.07058367       0.99562673
C       -0.96886688       1.22788872       0.01366294
O        0.32508246       1.58804064      -0.42717579
H        2.80148032      -0.44005873       0.17540259
H        1.81130483      -0.28595327       1.72412156
H        1.39193023       1.11002968       0.34392357
H       -0.16409263      -0.38921889      -2.11416525
H       -0.12386436      -1.96106167      -1.14780009
H       -2.29642066      -1.33162085       0.61000684
H       -1.73851309       1.53292546      -0.70477916
H       -1.22194286       1.64118546       0.99793157
15
Frame=4 idx=010863 GeodesicLength=0.2370841790520246 rxn_smarts="[C:1]([C@@:2]12[C:3]([H:11])([H:12])[C@:4]1([O:5][H:13])[C:6]([H:14])([H:15])[O:7]2)([H:8])([H:9])[H:10]>>[C:1](=[C:2]1[C:3]([H:11])([H:12])[C@:4]1([O:5][H:13])[C:6]([O:7][H:10])([H:14])[H:15])([H:8])[H:9]"
C        1.87140269      -0.15274925       0.64771078
C        0.68409386      -0.31794876      -0.05705833
C       -0.12526302      -0.87775358      -1.14522963
C       -0.78551123      -0.27045822       0.08940283
O       -1.45896259      -1.06554272       0.99811296
C       -0.97319550       1.22771711       0.01034138
O        0.32269281       1.59160312      -0.42450359
H        2.79997377      -0.44215800       0.16801809
H        1.81593953      -0.31470356       1.71921406
H        1.39866163       1.13525069       0.35488707
H       -0.16396438      -0.39241194      -2.11154266
H       -0.11921344      -1.96406035      -1.14234019
H       -2.29694181      -1.32832105       0.61094275
H       -1.74068023       1.52966453      -0.71124414
H       -1.22903208       1.64187198       0.99328862
15
Frame=5 idx=010863 GeodesicLength=0.29629190210753603 rxn_smarts="[C:1]([C@@:2]12[C:3]([H:11])([H:12])[C@:4]1([O:5][H:13])[C:6]([H:14])([H:15])[O:7]2)([H:8])([H:9])[H:10]>>[C:1](=[C:2]1[C:3]([H:11])([H:12])[C@:4]1([O:5][H:13])[C:6]([O:7][H:10])([H:14])[H:15])([H:8])[H:9]"
C        1.87351331      -0.15160723       0.64669656
C        0.68402412      -0.31371319      -0.05660735
C       -0.12412259      -0.88104033      -1.14230147
C       -0.78534908      -0.27035688       0.08897627
O       -1.46091639      -1.06050818       1.00053985
C       -0.97738640       1.22747443       0.00704210
O        0.32049977       1.59498763      -0.42160229
H        2.79837968      -0.44371645       0.16057583
H        1.82073939      -0.34345304       1.71360357
H        1.40535422       1.16082090       0.36608608
H       -0.16372647      -0.39570797      -2.10883958
H       -0.11472109      -1.96717020      -1.13682532
H       -2.29767215      -1.32494142       0.61177284
H       -1.74256603       1.52644658      -0.71775875
H       -1.23605030       1.64248535       0.98864166
15
Frame=6 idx=010863 GeodesicLength=0.35549550638699723 rxn_smarts="[C:1]([C@@:2]12[C:3]([H:11])([H:12])[C@:4]1([O:5][H:13])[C:6]([H:14])([H:15])[O:7]2)([H:8])([H:9])[H:10]>>[C:1](=[C:2]1[C:3]([H:11])([H:12])[C@:4]1([O:5][H:13])[C:6]([O:7][H:10])([H:14])[H:15])([H:8])[H:9]"
C        1.87552031      -0.15043829       0.64582022
C        0.68388930      -0.30979536      -0.05603238
C       -0.12302966      -0.88445911      -1.13930284
C       -0.78524415      -0.27033992       0.08857750
O       -1.46308661      -1.05548538       1.00290219
C       -0.98143402       1.22715797       0.00376915
O        0.31850891       1.59818633      -0.41846846
H        2.79669833      -0.44473442       0.15309347
H        1.82571334      -0.37217144       1.70728853
H        1.41201591       1.18677215       0.37750158
H       -0.16338434      -0.39910790      -2.10605842
H       -0.11039849      -1.97039762      -1.13126275
H       -2.29861750      -1.32148283       0.61249107
H       -1.74416464       1.52327469      -0.72431506
H       -1.24298668       1.64302112       0.98399619
15
Frame=7 idx=010863 GeodesicLength=0.41469194793817105 rxn_smarts="[C:1]([C@@:2]12[C:3]([H:11])([H:12])[C@:4]1([O:5][H:13])[C:6]([H:14])([H:15])[O:7]2)([H:8])([H:9])[H:10]>>[C:1](=[C:2]1[C:3]([H:11])([H:12])[C@:4]1([O:5][H:13])[C:6]([O:7][H:10])([H:14])[H:15])([H:8])[H:9]"
C        1.87741675      -0.14925394       0.64509210
C        0.68368802      -0.30620866      -0.05533489
C       -0.12199124      -0.88801426      -1.13623840
C       -0.78519914      -0.27041332       0.08820452
O       -1.46547825      -1.05048033       1.00519403
C       -0.98533267       1.22676500       0.00052802
O        0.31672512       1.60119213      -0.41509518
H        2.79493090      -0.44521312       0.14558980
H        1.83086847      -0.40082024       1.70027181
H        1.41865626       1.21312563       0.38910441
H       -0.16294303      -0.40261088      -2.10320167
H       -0.10625624      -1.97374837      -1.12566075
H       -2.29978377      -1.31794611       0.61309046
H       -1.74547035       1.52015287      -0.73090376
H       -1.24983083       1.64347360       0.97935951
15
Frame=8 idx=010863 GeodesicLength=0.47387791536862517 rxn_smarts="[C:1]([C@@:2]12[C:3]([H:11])([H:12])[C@:4]1([O:5][H:13])[C:6]([H:14])([H:15])[O:7]2)([H:8])([H:9])[H:10]>>[C:1](=[C:2]1[C:3]([H:11])([H:12])[C@:4]1([O:5][H:13])[C:6]([O:7][H:10])([H:14])[H:15])([H:8])[H:9]"
C        1.87919792      -0.14807458       0.64452129
C        0.68341902      -0.30296310      -0.05451673
C       -0.12101335      -0.89170882      -1.13311304
C       -0.78521594      -0.27058218       0.08785501
O       -1.46809429      -1.04549926       1.00740884
C       -0.98907659       1.22629325      -0.00267429
O        0.31515119       1.60399851      -0.41147842
H        2.79308129      -0.44515693       0.13807929
H        1.83620213      -0.42935390       1.69256648
H        1.42528419       1.23990074       0.40086037
H       -0.16240789      -0.40621559      -2.10027204
H       -0.10230339      -1.97722669      -1.12002828
H       -2.30117492      -1.31433381       0.61356313
H       -1.74647894       1.51708526      -0.73751298
H       -1.25657042       1.64383709       0.97474136
15
Frame=9 idx=010863 GeodesicLength=0.5331014809762278 rxn_smarts="[C:1]([C@@:2]12[C:3]([H:11])([H:12])[C@:4]1([O:5][H:13])[C:6]([H:14])([H:15])[O:7]2)([H:8])([H:9])[H:10]>>[C:1](=[C:2]1[C:3]([H:11])([H:12])[C@:4]1([O:5][H:13])[C:6]([O:7][H:10])([H:14])[H:15])([H:8])[H:9]"
C        1.88086681      -0.14692698       0.64409744
C        0.68308445      -0.30006989      -0.05358552
C       -0.12010146      -0.89554534      -1.12993543
C       -0.78529093      -0.27085146       0.08752598
O       -1.47092855      -1.04054842       1.00954564
C       -0.99265805       1.22573872      -0.00583477
O        0.31379167       1.60659734      -0.40762227
H        2.79113876      -0.44459462       0.13056078
H        1.84169585      -0.45771072       1.68419511
H        1.43190059       1.26713950       0.41278497
H       -0.16178474      -0.40992084      -2.09727593
H       -0.09855084      -1.98083559      -1.11437908
H       -2.30278679      -1.31064895       0.61390973
H       -1.74718496       1.51406927      -0.74413299
H       -1.26319180       1.64410798       0.97014633
15
Frame=10 idx=010863 GeodesicLength=0.5923093041879273 rxn_smarts="[C:1]([C@@:2]12[C:3]([H:11])([H:12])[C@:4]1([O:5][H:13])[C:6]([H:14])([H:15])[O:7]2)([H:8])([H:9])[H:10]>>[C:1](=[C:2]1[C:3]([H:11])([H:12])[C@:4]1([O:5][H:13])[C:6]([O:7][H:10])([H:14])[H:15])([H:8])[H:9]"
C        1.88241224      -0.14581325       0.64384537
C        0.68268081      -0.29753848      -0.05253772
C       -0.11926198      -0.89952758      -1.12670687
C       -0.78543121      -0.27122699       0.08721645
O       -1.47399301      -1.03563490       1.01159439
C       -0.99607477       1.22510058      -0.00894408
O        0.31264908       1.60898464      -0.40350932
H        2.78911725      -0.44351058       0.12306989
H        1.84736944      -0.48588601       1.67516239
H        1.43852058       1.29485601       0.42478871
H       -0.16107788      -0.41372448      -2.09421246
H       -0.09500513      -1.98458116      -1.10871691
H       -2.30463175      -1.30689182       0.61411680
H       -1.74758519       1.51111469      -0.75075301
H       -1.26968849       1.64427933       0.96558638
15
Frame=11 idx=010863 GeodesicLength=0.6515104204087865 rxn_smarts="[C:1]([C@@:2]12[C:3]([H:11])([H:12])[C@:4]1([O:5][H:13])[C:6]([H:14])([H:15])[O:7]2)([H:8])([H:9])[H:10]>>[C:1](=[C:2]1[C:3]([H:11])([H:12])[C@:4]1([O:5][H:13])[C:6]([O:7][H:10])([H:14])[H:15])([H:8])[H:9]"
C        1.88383306      -0.14475314       0.64376965
C        0.68220875      -0.29537445      -0.05137715
C       -0.11850011      -0.90365752      -1.12343237
C       -0.78563707      -0.27171317       0.08692507
O       -1.47728696      -1.03076447       1.01355075
C       -0.99932330       1.22437762      -0.01199739
O        0.31172446       1.61115580      -0.39913674
H        2.78701830      -0.44191774       0.11562130
H        1.85322105      -0.51385393       1.66548635
H        1.44514863       1.32308608       0.43684180
H       -0.16029388      -0.41762510      -2.09108501
H       -0.09167306      -1.98846659      -1.10304972
H       -2.30671081      -1.30306509       0.61417976
H       -1.74767736       1.50822393      -0.75736461
H       -1.27605170       1.64434777       0.96106833
15
Frame=12 idx=010863 GeodesicLength=0.7106962609481885 rxn_smarts="[C:1]([C@@:2]12[C:3]([H:11])([H:12])[C@:4]1([O:5][H:13])[C:6]([H:14])([H:15])[O:7]2)([H:8])([H:9])[H:10]>>[C:1](=[C:2]1[C:3]([H:11])([H:12])[C@:4]1([O:5][H:13])[C:6]([O:7][H:10])([H:14])[H:15])([H:8])[H:9]"
C        1.88512605      -0.14376353       0.64387542
C        0.68166822      -0.29358520      -0.05010546
C       -0.11782006      -0.90793666      -1.12011711
C       -0.78590930      -0.27231471       0.08664970
O       -1.48081246      -1.02594544       1.01540924
C       -1.00239907       1.22356786      -0.01498713
O        0.31101923       1.61310588      -0.39449803
H        2.78484332      -0.43982979       0.10823138
H        1.85924622      -0.54158390       1.65518957
H        1.45179245       1.35186326       0.44889737
H       -0.15943693      -0.42161960      -2.08789655
H       -0.08856123      -1.99249500      -1.09738685
H       -2.30902618      -1.29917139       0.61409140
H       -1.74745865       1.50540051      -0.76395544
H       -1.28227161       1.64430771       0.95660250
15
Frame=13 idx=010863 GeodesicLength=0.769881834109971 rxn_smarts="[C:1]([C@@:2]12[C:3]([H:11])([H:12])[C@:4]1([O:5][H:13])[C:6]([H:14])([H:15])[O:7]2)([H:8])([H:9])[H:10]>>[C:1](=[C:2]1[C:3]([H:11])([H:12])[C@:4]1([O:5][H:13])[C:6]([O:7][H:10])([H:14])[H:15])([H:8])[H:9]"
C        1.88628837      -0.14285773       0.64416641
C        0.68105976      -0.29217769      -0.04872556
C       -0.11722658      -0.91236708      -1.11676624
C       -0.78624804      -0.27303662       0.08638907
O       -1.48456884      -1.02118442       1.01716394
C       -1.00529981       1.22266893      -0.01790722
O        0.31053427       1.61482996      -0.38958921
H        2.78258729      -0.43726974       0.10091932
H        1.86544672      -0.56905419       1.64428826
H        1.45846248       1.38123687       0.46092172
H       -0.15851289      -0.42570612      -2.08464986
H       -0.08567577      -1.99666985      -1.09173722
H       -2.31157853      -1.29521399       0.61384478
H       -1.74692774       1.50264577      -0.77051525
H       -1.28834071       1.64415587       0.95219706
15
Frame=14 idx=010863 GeodesicLength=0.8290508718383929 rxn_smarts="[C:1]([C@@:2]12[C:3]([H:11])([H:12])[C@:4]1([O:5][H:13])[C:6]([H:14])([H:15])[O:7]2)([H:8])([H:9])[H:10]>>[C:1](=[C:2]1[C:3]([H:11])([H:12])[C@:4]1([O:5][H:13])[C:6]([O:7][H:10])([H:14])[H:15])([H:8])[H:9]"
C        1.88732010      -0.14206069       0.64464763
C        0.68038344      -0.29115625      -0.04723941
C       -0.11672287      -0.91694887      -1.11338512
C       -0.78665378      -0.27388302       0.08614110
O       -1.48855662      -1.01649017       1.01880959
C       -1.00802117       1.22167983      -0.02074933
O        0.31027043       1.61632377      -0.38440295
H        2.78025550      -0.43425242       0.09369779
H        1.87181187      -0.59623344       1.63281274
H        1.46516154       1.41124047       0.47286136
H       -0.15752529      -0.42988006      -2.08134810
H       -0.08302185      -2.00099266      -1.08611088
H       -2.31436977      -1.29119672       0.61343296
H       -1.74608261       1.49996420      -0.77703130
H       -1.29424893       1.64388603       0.94786392
15
Frame=15 idx=010863 GeodesicLength=0.8882093098856139 rxn_smarts="[C:1]([C@@:2]12[C:3]([H:11])([H:12])[C@:4]1([O:5][H:13])[C:6]([H:14])([H:15])[O:7]2)([H:8])([H:9])[H:10]>>[C:1](=[C:2]1[C:3]([H:11])([H:12])[C@:4]1([O:5][H:13])[C:6]([O:7][H:10])([H:14])[H:15])([H:8])[H:9]"
C        1.88821991      -0.14139092       0.64532383
C        0.67963991      -0.29052557      -0.04564862
C       -0.11631206      -0.92168319      -1.10997799
C       -0.78712639      -0.27485799       0.08590472
O       -1.49277572      -1.01186938       1.02034077
C       -1.01056060       1.22059886      -0.02350674
O        0.31022828       1.61758290      -0.37893373
H        2.77784561      -0.43079716       0.08658304
H        1.87834031      -0.62310858       1.62078246
H        1.47189369       1.44192552       0.48467379
H       -0.15647785      -0.43413903      -2.07799333
H       -0.08060410      -2.00546596      -1.08051585
H       -2.31740003      -1.28712176       0.61284877
H       -1.74492170       1.49735785      -0.78349302
H       -1.29998926       1.64349440       0.94361191
15
Frame=16 idx=010863 GeodesicLength=0.9473508065219493 rxn_smarts="[C:1]([C@@:2]12[C:3]([H:11])([H:12])[C@:4]1([O:5][H:13])[C:6]([H:14])([H:15])[O:7]2)([H:8])([H:9])[H:10]>>[C:1](=[C:2]1[C:3]([H:11])([H:12])[C@:4]1([O:5][H:13])[C:6]([O:7][H:10])([H:14])[H:15])([H:8])[H:9]"
C        1.88898825      -0.14087164       0.64619934
C        0.67882963      -0.29028960      -0.04395468
C       -0.11599679      -0.92657000      -1.10654988
C       -0.78766574      -0.27596565       0.08567851
O       -1.49722600      -1.00733043       1.02175202
C       -1.01291504       1.21942469      -0.02617132
O        0.31040846       1.61860291      -0.37317414
H        2.77535776      -0.42692501       0.07958879
H        1.88502547      -0.64965808       1.60822401
H        1.47866152       1.47333937       0.49630903
H       -0.15537359      -0.43847860      -2.07458811
H       -0.07842681      -2.01009114      -1.07496184
H       -2.32067019      -1.28299285       0.61208462
H       -1.74344305       1.49483011      -0.78988862
H       -1.30555390       1.64297593       0.93945228
