10
Frame=0 idx=004555 GeodesicLength=0.0 rxn_smarts="[C:1]([C:2]#[C:3][C:4]([H:8])([H:9])[H:10])([H:5])([H:6])[H:7]>>[C:1]([C:3](=[C:2])[C:4]([H:8])([H:9])[H:10])([H:5])([H:6])[H:7]"
C       -1.39622451      -0.16837717       0.02661325
C       -0.70915106       0.70594406      -1.36266921
C        0.19537707       0.34969804      -0.56982793
C        1.44514820       0.07452499       0.14495546
H       -1.90601830      -0.98159999      -0.47889440
H       -2.09216487       0.57556239       0.39918244
H       -0.87830082      -0.59415029       0.89346371
H        1.45875068       0.54399968       1.13004873
H        2.26409383       0.49137908      -0.44143067
H        1.61848977      -0.99698079       0.25855861
10
Frame=1 idx=004555 GeodesicLength=0.056014632740216154 rxn_smarts="[C:1]([C:2]#[C:3][C:4]([H:8])([H:9])[H:10])([H:5])([H:6])[H:7]>>[C:1]([C:3](=[C:2])[C:4]([H:8])([H:9])[H:10])([H:5])([H:6])[H:7]"
C       -1.40952856      -0.16263497       0.03073609
C       -0.69105471       0.64336442      -1.38738640
C        0.19931618       0.34166490      -0.55918805
C        1.45820889       0.07823930       0.14360863
H       -1.94631882      -0.96748497      -0.46095266
H       -2.08729749       0.60423188       0.39147617
H       -0.91157429      -0.59799266       0.90423524
H        1.45976096       0.50497481       1.14795586
H        2.26441605       0.54702159      -0.42108658
H        1.66407178      -0.99138430       0.21060169
10
Frame=2 idx=004555 GeodesicLength=0.11192485995402814 rxn_smarts="[C:1]([C:2]#[C:3][C:4]([H:8])([H:9])[H:10])([H:5])([H:6])[H:7]>>[C:1]([C:3](=[C:2])[C:4]([H:8])([H:9])[H:10])([H:5])([H:6])[H:7]"
C       -1.42315629      -0.15668558       0.03478076
C       -0.67198171       0.57675052      -1.40917571
C        0.20339886       0.33087305      -0.54939297
C        1.47156188       0.08205703       0.14190884
H       -1.98829237      -0.95073986      -0.44346283
H       -2.08090425       0.63376532       0.38287363
H       -0.94661853      -0.60122853       0.91529748
H        1.46132457       0.46309015       1.16432895
H        2.26195427       0.60417339      -0.39807288
H        1.71271358      -0.98205549       0.16091473
10
Frame=3 idx=004555 GeodesicLength=0.1677201104617142 rxn_smarts="[C:1]([C:2]#[C:3][C:4]([H:8])([H:9])[H:10])([H:5])([H:6])[H:7]>>[C:1]([C:3](=[C:2])[C:4]([H:8])([H:9])[H:10])([H:5])([H:6])[H:7]"
C       -1.43709553      -0.15052176       0.03869902
C       -0.65226216       0.50624402      -1.42767673
C        0.20774690       0.31651495      -0.54061973
C        1.48525193       0.08596765       0.13990223
H       -2.03201382      -0.93085724      -0.42683912
H       -2.07258530       0.66412207       0.37361541
H       -0.98357761      -0.60411099       0.92646244
H        1.46366873       0.41853791       1.17884017
H        2.25616351       0.66253966      -0.37241241
H        1.76470335      -0.96843629       0.11002874
10
Frame=4 idx=004555 GeodesicLength=0.2233663328953659 rxn_smarts="[C:1]([C:2]#[C:3][C:4]([H:8])([H:9])[H:10])([H:5])([H:6])[H:7]>>[C:1]([C:3](=[C:2])[C:4]([H:8])([H:9])[H:10])([H:5])([H:6])[H:7]"
C       -1.45131980      -0.14410384       0.04245895
C       -0.63221463       0.43178923      -1.44263126
C        0.21244837       0.29802330      -0.53278372
C        1.49931826       0.08993638       0.13761537
H       -2.07732134      -0.90745845      -0.41139960
H       -2.06206304       0.69524288       0.36373278
H       -1.02265785      -0.60660047       0.93769319
H        1.46717912       0.37127819       1.19124287
H        2.24643946       0.72185494      -0.34405970
H        1.82019147      -0.94996216       0.05813113
10
Frame=5 idx=004555 GeodesicLength=0.27868315307363123 rxn_smarts="[C:1]([C:2]#[C:3][C:4]([H:8])([H:9])[H:10])([H:5])([H:6])[H:7]>>[C:1]([C:3](=[C:2])[C:4]([H:8])([H:9])[H:10])([H:5])([H:6])[H:7]"
C       -1.46575437      -0.13737424       0.04601144
C       -0.61210089       0.35331683      -1.45367907
C        0.21755862       0.27509048      -0.52552897
C        1.51373523       0.09393215       0.13513356
H       -2.12371376      -0.88030858      -0.39749783
H       -2.04919793       0.72699146       0.35305863
H       -1.06408812      -0.60845637       0.94899138
H        1.47255414       0.32115962       1.20134905
H        2.23196786       0.78166102      -0.31314805
H        1.87903922      -0.92601238       0.00530986
10
Frame=6 idx=004555 GeodesicLength=0.333623908201566 rxn_smarts="[C:1]([C:2]#[C:3][C:4]([H:8])([H:9])[H:10])([H:5])([H:6])[H:7]>>[C:1]([C:3](=[C:2])[C:4]([H:8])([H:9])[H:10])([H:5])([H:6])[H:7]"
C       -1.48034412      -0.13026249       0.04934228
C       -0.59213055       0.27067581      -1.46049096
C        0.22306941       0.24784357      -0.51834299
C        1.52851009       0.09790022       0.13237151
H       -2.17040664      -0.84957517      -0.38537478
H       -2.03416438       0.75913003       0.34118961
H       -1.10810590      -0.60896063       0.96063821
H        1.48054067       0.26780344       1.20886382
H        2.21233582       0.84143176      -0.27943005
H        1.94069560      -0.89598653      -0.04876666
10
Frame=7 idx=004555 GeodesicLength=0.3881341574739118 rxn_smarts="[C:1]([C:2]#[C:3][C:4]([H:8])([H:9])[H:10])([H:5])([H:6])[H:7]>>[C:1]([C:3](=[C:2])[C:4]([H:8])([H:9])[H:10])([H:5])([H:6])[H:7]"
C       -1.49500332      -0.12268983       0.05240393
C       -0.57245869       0.18364971      -1.46260651
C        0.22900507       0.21622051      -0.51069307
C        1.54360637       0.10182098       0.12935711
H       -2.21674053      -0.81531738      -0.37535494
H       -2.01697791       0.79150696       0.32774016
H       -1.15494815      -0.60752383       0.97275303
H        1.49209032       0.21085385       1.21349734
H        2.18687613       0.90057695      -0.24274636
H        2.00455070      -0.85909791      -0.10435068
10
Frame=8 idx=004555 GeodesicLength=0.4421519981439326 rxn_smarts="[C:1]([C:2]#[C:3][C:4]([H:8])([H:9])[H:10])([H:5])([H:6])[H:7]>>[C:1]([C:3](=[C:2])[C:4]([H:8])([H:9])[H:10])([H:5])([H:6])[H:7]"
C       -1.50961119      -0.11468865       0.05512847
C       -0.55323119       0.09236249      -1.45941892
C        0.23535855       0.18040737      -0.50194276
C        1.55893779       0.10572797       0.12611936
H       -2.26201712      -0.77766590      -0.36799796
H       -1.99765748       0.82376009       0.31256374
H       -1.20474095      -0.60383717       0.98525214
H        1.50824338       0.15065404       1.21482392
H        2.15535799       0.95798856      -0.20315333
H        2.06936022      -0.81470881      -0.16137465
10
Frame=9 idx=004555 GeodesicLength=0.4955359257216287 rxn_smarts="[C:1]([C:2]#[C:3][C:4]([H:8])([H:9])[H:10])([H:5])([H:6])[H:7]>>[C:1]([C:3](=[C:2])[C:4]([H:8])([H:9])[H:10])([H:5])([H:6])[H:7]"
C       -1.52399169      -0.10636643       0.05742698
C       -0.53453207      -0.00256579      -1.45018361
C        0.24207959       0.14108812      -0.49132489
C        1.57433664       0.10967778       0.12273888
H       -2.30525800      -0.73703864      -0.36402039
H       -1.97641643       0.85531824       0.29566470
H       -1.25747176      -0.59777467       0.99786256
H        1.53014118       0.08817872       1.21241797
H        2.11803424       1.01215394      -0.16107876
H        2.13307830      -0.76267128      -0.21950344
10
Frame=10 idx=004555 GeodesicLength=0.5484743995261012 rxn_smarts="[C:1]([C:2]#[C:3][C:4]([H:8])([H:9])[H:10])([H:5])([H:6])[H:7]>>[C:1]([C:3](=[C:2])[C:4]([H:8])([H:9])[H:10])([H:5])([H:6])[H:7]"
C       -1.53806704      -0.09780402       0.05925136
C       -0.51639965      -0.10070580      -1.43424333
C        0.24911084       0.09906901      -0.47817273
C        1.58972112       0.11369527       0.11917478
H       -2.34562940      -0.69410030      -0.36396767
H       -1.95364517       0.88573164       0.27693517
H       -1.31319601      -0.58894797       1.01044751
H        1.55868965       0.02418703       1.20586137
H        2.07567382       1.06188870      -0.11648569
H        2.19374184      -0.70301355      -0.27880076
10
Frame=11 idx=004555 GeodesicLength=0.6010269988316289 rxn_smarts="[C:1]([C:2]#[C:3][C:4]([H:8])([H:9])[H:10])([H:5])([H:6])[H:7]>>[C:1]([C:3](=[C:2])[C:4]([H:8])([H:9])[H:10])([H:5])([H:6])[H:7]"
C       -1.55172180      -0.08916106       0.06055432
C       -0.49884742      -0.20113497      -1.41088793
C        0.25637745       0.05522039      -0.46183525
C        1.60496356       0.11782535       0.11537636
H       -2.38230046      -0.64950237      -0.36851558
H       -1.92967671       0.91447633       0.25666605
H       -1.37191520      -0.57743370       1.02256473
H        1.59450343      -0.03988374       1.19472485
H        2.02947221       1.10594919      -0.06974160
H        2.24914493      -0.63635543      -0.33890596
10
Frame=12 idx=004555 GeodesicLength=0.653598026773341 rxn_smarts="[C:1]([C:2]#[C:3][C:4]([H:8])([H:9])[H:10])([H:5])([H:6])[H:7]>>[C:1]([C:3](=[C:2])[C:4]([H:8])([H:9])[H:10])([H:5])([H:6])[H:7]"
C       -1.56506398      -0.08062721       0.06132150
C       -0.48187329      -0.30327022      -1.37947768
C        0.26382097       0.01005356      -0.44163987
C        1.62005206       0.12223076       0.11137348
H       -2.41499262      -0.60348112      -0.37847712
H       -1.90470725       0.94121833       0.23543167
H       -1.43394067      -0.56371482       1.03361573
H        1.63820354      -0.10258566       1.17879297
H        1.98093625       1.14355711      -0.02137656
H        2.29756498      -0.56338073      -0.39956411
10
Frame=13 idx=004555 GeodesicLength=0.7055333080113255 rxn_smarts="[C:1]([C:2]#[C:3][C:4]([H:8])([H:9])[H:10])([H:5])([H:6])[H:7]>>[C:1]([C:3](=[C:2])[C:4]([H:8])([H:9])[H:10])([H:5])([H:6])[H:7]"
C       -1.57783256      -0.07258199       0.06156057
C       -0.46529395      -0.40459468      -1.33938658
C        0.27129150      -0.03472424      -0.41684576
C        1.63464053       0.12696587       0.10722901
H       -2.44234557      -0.55695151      -0.39469512
H       -1.87912589       0.96511687       0.21445838
H       -1.49909165      -0.54916459       1.04247110
H        1.68941013      -0.16085292       1.15819328
H        1.93268169       1.17375142       0.02680578
H        2.33566578      -0.48696423      -0.45979065
10
Frame=14 idx=004555 GeodesicLength=0.7573393025361671 rxn_smarts="[C:1]([C:2]#[C:3][C:4]([H:8])([H:9])[H:10])([H:5])([H:6])[H:7]>>[C:1]([C:3](=[C:2])[C:4]([H:8])([H:9])[H:10])([H:5])([H:6])[H:7]"
C       -1.59040543      -0.06511832       0.06137395
C       -0.44920145      -0.50397783      -1.29072526
C        0.27875492      -0.07850031      -0.38714776
C        1.64898938       0.13204478       0.10275485
H       -2.46415922      -0.51081528      -0.41739694
H       -1.85391827       0.98608793       0.19445574
H       -1.56778249      -0.53390422       1.04875430
H        1.74764604      -0.21391912       1.13289793
H        1.88687053       1.19683039       0.07451284
H        2.36320598      -0.40872802      -0.51947966
10
Frame=15 idx=004555 GeodesicLength=0.8090369559705555 rxn_smarts="[C:1]([C:2]#[C:3][C:4]([H:8])([H:9])[H:10])([H:5])([H:6])[H:7]>>[C:1]([C:3](=[C:2])[C:4]([H:8])([H:9])[H:10])([H:5])([H:6])[H:7]"
C       -1.60265112      -0.05806154       0.06073279
C       -0.43344400      -0.60224362      -1.23258866
C        0.28630558      -0.12222494      -0.35165306
C        1.66298579       0.13732429       0.09782289
H       -2.47979600      -0.46507127      -0.44668828
H       -1.82857514       1.00463495       0.17507060
H       -1.64077279      -0.51716905       1.05202289
H        1.81310401      -0.26262099       1.10202699
H        1.84318449       1.21350547       0.12318545
H        2.37965918      -0.32807330      -0.57993162
10
Frame=16 idx=004555 GeodesicLength=0.8602281598754384 rxn_smarts="[C:1]([C:2]#[C:3][C:4]([H:8])([H:9])[H:10])([H:5])([H:6])[H:7]>>[C:1]([C:3](=[C:2])[C:4]([H:8])([H:9])[H:10])([H:5])([H:6])[H:7]"
C       -1.61438441      -0.05149401       0.05969392
C       -0.41799150      -0.69817980      -1.16456054
C        0.29393273      -0.16579518      -0.30941411
C        1.67628542       0.14277763       0.09235967
H       -2.48810462      -0.42006320      -0.48285450
H       -1.80302609       1.02067716       0.15709056
H       -1.71825842      -0.49946653       1.05121508
H        1.88506699      -0.30620325       1.06501814
H        1.80283919       1.22396355       0.17227523
H        2.38364071      -0.24621635      -0.64082346
