17
Frame=0 idx=008502 GeodesicLength=0.0 rxn_smarts="[C:1]([C@@:2]1([H:11])[C:3]([H:12])([H:13])[C@@:4]2([H:14])[O:5][C:6]([H:15])([H:16])[C@@:7]12[H:17])([H:8])([H:9])[H:10]>>[C:1]([C@@:2]1([H:11])[C:3]([H:12])([H:13])[C@@:4]([C:7](=[C:6]([H:15])[H:16])[H:17])([H:14])[O:5]1)([H:8])([H:9])[H:10]"
C        1.92835853      -0.34501641      -0.90112787
C        1.00775014       0.23955240       0.09942677
C        0.12791375       1.43131625      -0.20996240
C       -1.11896045       0.62063390      -0.04114995
O       -0.62556117      -0.71110976      -0.54021475
C       -1.31045488      -1.30442430       0.60903219
C       -1.21266037      -0.00817848       1.34654817
H        2.16583444      -1.38114510      -0.65768652
H        2.86688846       0.22328637      -0.85296126
H        1.53903320      -0.29071562      -1.91628834
H        1.25388835       0.09119486       1.13893943
H        0.22211620       2.22278620       0.53630506
H        0.29438203       1.82006575      -1.21841268
H       -2.02623804       0.87739286      -0.61318085
H       -0.82258215      -2.21372730       0.97062972
H       -2.30320944      -1.56994119       0.20120843
H       -1.98649853       0.29802959       2.04889484
17
Frame=1 idx=008502 GeodesicLength=0.08267215878823918 rxn_smarts="[C:1]([C@@:2]1([H:11])[C:3]([H:12])([H:13])[C@@:4]2([H:14])[O:5][C:6]([H:15])([H:16])[C@@:7]12[H:17])([H:8])([H:9])[H:10]>>[C:1]([C@@:2]1([H:11])[C:3]([H:12])([H:13])[C@@:4]([C:7](=[C:6]([H:15])[H:16])[H:17])([H:14])[O:5]1)([H:8])([H:9])[H:10]"
C        1.93087170      -0.34577762      -0.89245221
C        0.99430595       0.23249108       0.09969641
C        0.12487749       1.43217606      -0.21419089
C       -1.12472765       0.62153974      -0.04781567
O       -0.64100949      -0.70156796      -0.56572324
C       -1.31908513      -1.31158340       0.60906939
C       -1.19806237      -0.01692960       1.33611860
H        2.17260916      -1.38053505      -0.64695079
H        2.86487602       0.22893525      -0.84085286
H        1.54913078      -0.29626436      -1.91090026
H        1.26044660       0.10396559       1.13795200
H        0.22181536       2.22627728       0.52865030
H        0.29485044       1.81870813      -1.22264687
H       -2.03725875       0.89607438      -0.60097479
H       -0.83288076      -2.22084398       0.97261852
H       -2.30912604      -1.58177346       0.20126935
H       -1.95163332       0.29510794       2.05713300
17
Frame=2 idx=008502 GeodesicLength=0.1653348012825531 rxn_smarts="[C:1]([C@@:2]1([H:11])[C:3]([H:12])([H:13])[C@@:4]2([H:14])[O:5][C:6]([H:15])([H:16])[C@@:7]12[H:17])([H:8])([H:9])[H:10]>>[C:1]([C@@:2]1([H:11])[C:3]([H:12])([H:13])[C@@:4]([C:7](=[C:6]([H:15])[H:16])[H:17])([H:14])[O:5]1)([H:8])([H:9])[H:10]"
C        1.93311072      -0.34651908      -0.88386632
C        0.98102373       0.22542442       0.10004967
C        0.12200227       1.43302213      -0.21813955
C       -1.13043413       0.62249908      -0.05444167
O       -0.65624672      -0.69160811      -0.59100812
C       -1.32768244      -1.31879123       0.60953085
C       -1.18400236      -0.02567818       1.32530293
H        2.17929466      -1.37981364      -0.63619651
H        2.86255686       0.23458833      -0.82937503
H        1.55861741      -0.30196925      -1.90540018
H        1.26697610       0.11687203       1.13641923
H        0.22167190       2.22959932       0.52141252
H        0.29550072       1.81757451      -1.22649437
H       -2.04758598       0.91465623      -0.58863202
H       -0.84346137      -2.22785897       0.97582572
H       -2.31442505      -1.59398414       0.20061309
H       -1.91691633       0.29198657       2.06439975
17
Frame=3 idx=008502 GeodesicLength=0.24795496987771354 rxn_smarts="[C:1]([C@@:2]1([H:11])[C:3]([H:12])([H:13])[C@@:4]2([H:14])[O:5][C:6]([H:15])([H:16])[C@@:7]12[H:17])([H:8])([H:9])[H:10]>>[C:1]([C@@:2]1([H:11])[C:3]([H:12])([H:13])[C@@:4]([C:7](=[C:6]([H:15])[H:16])[H:17])([H:14])[O:5]1)([H:8])([H:9])[H:10]"
C        1.93507709      -0.34722819      -0.87539447
C        0.96790540       0.21835843       0.10047250
C        0.11929130       1.43385509      -0.22179659
C       -1.13606682       0.62350582      -0.06103536
O       -0.67124468      -0.68123337      -0.61607543
C       -1.33623199      -1.32604057       0.61044933
C       -1.17049033      -0.03440456       1.31412434
H        2.18587791      -1.37897562      -0.62548125
H        2.85993600       0.24024399      -0.81852794
H        1.56750144      -0.30778831      -1.89980989
H        1.27340670       0.12978879       1.13434059
H        0.22169042       2.23274760       0.51461071
H        0.29633257       1.81667745      -1.22993301
H       -2.05720035       0.93311477      -0.57620196
H       -0.85431889      -2.23473447       0.98034485
H       -2.31904685      -1.60659717       0.19922833
H       -1.88241893       0.28871032       2.07068525
17
Frame=4 idx=008502 GeodesicLength=0.33055168224339393 rxn_smarts="[C:1]([C@@:2]1([H:11])[C:3]([H:12])([H:13])[C@@:4]2([H:14])[O:5][C:6]([H:15])([H:16])[C@@:7]12[H:17])([H:8])([H:9])[H:10]>>[C:1]([C@@:2]1([H:11])[C:3]([H:12])([H:13])[C@@:4]([C:7](=[C:6]([H:15])[H:16])[H:17])([H:14])[O:5]1)([H:8])([H:9])[H:10]"
C        1.93680848      -0.34789067      -0.86705200
C        0.95495930       0.21130481       0.10096119
C        0.11673268       1.43468022      -0.22516676
C       -1.14163073       0.62455972      -0.06760307
O       -0.68598485      -0.67044095      -0.64093546
C       -1.34477638      -1.33333468       0.61183942
C       -1.15752510      -0.04309709       1.30259532
H        2.19240837      -1.37799464      -0.61480447
H        2.85705308       0.24592438      -0.80831070
H        1.57582644      -0.31372259      -1.89416000
H        1.27968446       0.14262373       1.13171474
H        0.22185347       2.23573028       0.50824309
H        0.29733269       1.81601954      -1.23297340
H       -2.06613053       0.95142938      -0.56368179
H       -0.86552631      -2.24147032       0.98622002
H       -2.32300030      -1.61963176       0.19708588
H       -1.84808478       0.28531065       2.07602800
17
Frame=5 idx=008502 GeodesicLength=0.4131308245221172 rxn_smarts="[C:1]([C@@:2]1([H:11])[C:3]([H:12])([H:13])[C@@:4]2([H:14])[O:5][C:6]([H:15])([H:16])[C@@:7]12[H:17])([H:8])([H:9])[H:10]>>[C:1]([C@@:2]1([H:11])[C:3]([H:12])([H:13])[C@@:4]([C:7](=[C:6]([H:15])[H:16])[H:17])([H:14])[O:5]1)([H:8])([H:9])[H:10]"
C        1.93832928      -0.34849361      -0.85886853
C        0.94218904       0.20426588       0.10149970
C        0.11432414       1.43550244      -0.22824949
C       -1.14712719       0.62565773      -0.07415747
O       -0.70045355      -0.65922765      -0.66559811
C       -1.35333295      -1.34065802       0.61374448
C       -1.14512807      -0.05174260       1.29073899
H        2.19889313      -1.37687160      -0.60423072
H        2.85395066       0.25162546      -0.79871273
H        1.58362682      -0.31971511      -1.88849401
H        1.28577318       0.15524651       1.12856978
H        0.22215888       2.23854643       0.50232265
H        0.29849768       1.81562124      -1.23561781
H       -2.07437533       0.96958055      -0.55112266
H       -0.87710262      -2.24801699       0.99353870
H       -2.32624392      -1.63311685       0.19420851
H       -1.81397918       0.28179618       2.08042873
17
Frame=6 idx=008502 GeodesicLength=0.4957031914433905 rxn_smarts="[C:1]([C@@:2]1([H:11])[C:3]([H:12])([H:13])[C@@:4]2([H:14])[O:5][C:6]([H:15])([H:16])[C@@:7]12[H:17])([H:8])([H:9])[H:10]>>[C:1]([C@@:2]1([H:11])[C:3]([H:12])([H:13])[C@@:4]([C:7](=[C:6]([H:15])[H:16])[H:17])([H:14])[O:5]1)([H:8])([H:9])[H:10]"
C        1.93963928      -0.34901780      -0.85087327
C        0.92959354       0.19723751       0.10206425
C        0.11207332       1.43631513      -0.23103011
C       -1.15254534       0.62678911      -0.08071140
O       -0.71462825      -0.64759615      -0.69009540
C       -1.36188742      -1.34802039       0.61620394
C       -1.13329676      -0.06033036       1.27857451
H        2.20529812      -1.37560283      -0.59384215
H        2.85063503       0.25734503      -0.78971544
H        1.59092144      -0.32569262      -1.88283903
H        1.29161525       0.16755256       1.12490794
H        0.22261932       2.24117343       0.49687510
H        0.29983750       1.81549180      -1.23783369
H       -2.08193667       0.98754191      -0.53858012
H       -0.88911585      -2.25433436       1.00242578
H       -2.32865093      -1.64709709       0.19058130
H       -1.78017159       0.27824510       2.08388778
17
Frame=7 idx=008502 GeodesicLength=0.5782455888221657 rxn_smarts="[C:1]([C@@:2]1([H:11])[C:3]([H:12])([H:13])[C@@:4]2([H:14])[O:5][C:6]([H:15])([H:16])[C@@:7]12[H:17])([H:8])([H:9])[H:10]>>[C:1]([C@@:2]1([H:11])[C:3]([H:12])([H:13])[C@@:4]([C:7](=[C:6]([H:15])[H:16])[H:17])([H:14])[O:5]1)([H:8])([H:9])[H:10]"
C        1.94076826      -0.34946542      -0.84307551
C        0.91716524       0.19022471       0.10264179
C        0.10996330       1.43712817      -0.23352117
C       -1.15789874       0.62796436      -0.08726966
O       -0.72850858      -0.63552848      -0.71444236
C       -1.37048105      -1.35540803       0.61922717
C       -1.12203654      -0.06885095       1.26611450
H        2.21166299      -1.37418218      -0.58362936
H        2.84713840       0.26308552      -0.78130764
H        1.59775208      -0.33166602      -1.87722185
H        1.29717951       0.17946621       1.12076214
H        0.22321847       2.24362537       0.49189218
H        0.30133482       1.81563831      -1.23964332
H       -2.08884586       1.00531943      -0.52604943
H       -0.90156775      -2.26040313       1.01290227
H       -2.33023314      -1.66160121       0.18617588
H       -1.74661140       0.27465332       2.08644436
17
Frame=8 idx=008502 GeodesicLength=0.6607683300731428 rxn_smarts="[C:1]([C@@:2]1([H:11])[C:3]([H:12])([H:13])[C@@:4]2([H:14])[O:5][C:6]([H:15])([H:16])[C@@:7]12[H:17])([H:8])([H:9])[H:10]>>[C:1]([C@@:2]1([H:11])[C:3]([H:12])([H:13])[C@@:4]([C:7](=[C:6]([H:15])[H:16])[H:17])([H:14])[O:5]1)([H:8])([H:9])[H:10]"
C        1.94172644      -0.34983312      -0.83548643
C        0.90489390       0.18322826       0.10320848
C        0.10798514       1.43794791      -0.23572762
C       -1.16318934       0.62918731      -0.09384159
O       -0.74208834      -0.62300668      -0.73867827
C       -1.37913160      -1.36281306       0.62282376
C       -1.11133764      -0.07730742       1.25336081
H        2.21799336      -1.37260403      -0.57360780
H        2.84346406       0.26885372      -0.77346451
H        1.60414800      -0.33762822      -1.87166255
H        1.30243424       0.19092434       1.11615750
H        0.22395031       2.24590550       0.48737757
H        0.30298031       1.81606903      -1.24104913
H       -2.09512172       1.02291098      -0.51353231
H       -0.91454372      -2.26617880       1.02504506
H       -2.33091461      -1.67668528       0.18095481
H       -1.71324879       0.27102956       2.08812223
17
Frame=9 idx=008502 GeodesicLength=0.7432624377481551 rxn_smarts="[C:1]([C@@:2]1([H:11])[C:3]([H:12])([H:13])[C@@:4]2([H:14])[O:5][C:6]([H:15])([H:16])[C@@:7]12[H:17])([H:8])([H:9])[H:10]>>[C:1]([C@@:2]1([H:11])[C:3]([H:12])([H:13])[C@@:4]([C:7](=[C:6]([H:15])[H:16])[H:17])([H:14])[O:5]1)([H:8])([H:9])[H:10]"
C        1.94252118      -0.35011736      -0.82813423
C        0.89277197       0.17623873       0.10374267
C        0.10614055       1.43877632      -0.23764081
C       -1.16841985       0.63046113      -0.10043836
O       -0.75536106      -0.61001734      -0.76282875
C       -1.38785372      -1.37022480       0.62703384
C       -1.10121238      -0.08568377       1.24033189
H        2.22427069      -1.37088015      -0.56384062
H        2.83963493       0.27463192      -0.76617429
H        1.61013090      -0.34352552      -1.86619828
H        1.30735291       0.20183893       1.11112747
H        0.22482439       2.24800267       0.48335467
H        0.30478210       1.81680510      -1.24203624
H       -2.10077710       1.04030563      -0.50107007
H       -0.92805651      -2.27159742       1.03894868
H       -2.33059937      -1.69241725       0.17490659
H       -1.68014964       0.26740317       2.08891585
17
Frame=10 idx=008502 GeodesicLength=0.825760185957247 rxn_smarts="[C:1]([C@@:2]1([H:11])[C:3]([H:12])([H:13])[C@@:4]2([H:14])[O:5][C:6]([H:15])([H:16])[C@@:7]12[H:17])([H:8])([H:9])[H:10]>>[C:1]([C@@:2]1([H:11])[C:3]([H:12])([H:13])[C@@:4]([C:7](=[C:6]([H:15])[H:16])[H:17])([H:14])[O:5]1)([H:8])([H:9])[H:10]"
C        1.94316847      -0.35031708      -0.82104864
C        0.88079312       0.16924396       0.10422547
C        0.10442158       1.43960821      -0.23924579
C       -1.17360223       0.63178100      -0.10707540
O       -0.76832835      -0.59654645      -0.78694072
C       -1.39666779      -1.37764069       0.63189817
C       -1.09167137      -0.09398380       1.22703689
H        2.23049083      -1.36902517      -0.55439712
H        2.83568070       0.28040612      -0.75941896
H        1.61573158      -0.34931282      -1.86087313
H        1.31192378       0.21213634       1.10569073
H        0.22583564       2.24989540       0.47986359
H        0.30673687       1.81785935      -1.24257935
H       -2.10584966       1.05749585      -0.48871167
H       -0.94222167      -2.27658828       1.05468827
H       -2.32907330      -1.70884206       0.16804813
H       -1.64736820       0.26383012       2.08883955
17
Frame=11 idx=008502 GeodesicLength=0.9082581302958364 rxn_smarts="[C:1]([C@@:2]1([H:11])[C:3]([H:12])([H:13])[C@@:4]2([H:14])[O:5][C:6]([H:15])([H:16])[C@@:7]12[H:17])([H:8])([H:9])[H:10]>>[C:1]([C@@:2]1([H:11])[C:3]([H:12])([H:13])[C@@:4]([C:7](=[C:6]([H:15])[H:16])[H:17])([H:14])[O:5]1)([H:8])([H:9])[H:10]"
C        1.94364332      -0.35042454      -0.81422409
C        0.86892436       0.16224064       0.10462983
C        0.10282540       1.44045008      -0.24055839
C       -1.17871461       0.63315613      -0.11376178
O       -0.78097798      -0.58255388      -0.81101941
C       -1.40561228      -1.38503271       0.63742863
C       -1.08269942      -0.10221468       1.21345195
H        2.23661261      -1.36703009      -0.54527390
H        2.83156215       0.28618536      -0.75315932
H        1.62095227      -0.35496596      -1.85567587
H        1.31611117       0.22175771       1.09986725
H        0.22698383       2.25158063       0.47687783
H        0.30884405       1.81924867      -1.24268310
H       -2.11029329       1.07447561      -0.47643964
H       -0.95711047      -2.28108176       1.07233566
H       -2.32624549      -1.72603910       0.16036391
H       -1.61480559       0.26024788       2.08784043
17
Frame=12 idx=008502 GeodesicLength=0.9907424027729692 rxn_smarts="[C:1]([C@@:2]1([H:11])[C:3]([H:12])([H:13])[C@@:4]2([H:14])[O:5][C:6]([H:15])([H:16])[C@@:7]12[H:17])([H:8])([H:9])[H:10]>>[C:1]([C@@:2]1([H:11])[C:3]([H:12])([H:13])[C@@:4]([C:7](=[C:6]([H:15])[H:16])[H:17])([H:14])[O:5]1)([H:8])([H:9])[H:10]"
C        1.94398546      -0.35046022      -0.80770070
C        0.85716767       0.15521346       0.10493288
C        0.10134127       1.44130710      -0.24156035
C       -1.18379984       0.63460009      -0.12050404
O       -0.79333312      -0.56801965      -0.83513484
C       -1.41471760      -1.39239463       0.64365209
C       -1.07431645      -0.11036140       1.19961051
H        2.24266453      -1.36493189      -0.53654153
H        2.82734462       0.29193333      -0.74738682
H        1.62584117      -0.36047271      -1.85067715
H        1.31992596       0.23066444       1.09370520
H        0.22826888       2.25305855       0.47445567
H        0.31109954       1.82098522      -1.24233456
H       -2.11420858       1.09126453      -0.46428027
H       -0.97278239      -2.28499995       1.09198729
H       -2.32194940      -1.74411942       0.15178766
H       -1.58253173       0.25673315       2.08598896
17
Frame=13 idx=008502 GeodesicLength=1.0732084424605035 rxn_smarts="[C:1]([C@@:2]1([H:11])[C:3]([H:12])([H:13])[C@@:4]2([H:14])[O:5][C:6]([H:15])([H:16])[C@@:7]12[H:17])([H:8])([H:9])[H:10]>>[C:1]([C@@:2]1([H:11])[C:3]([H:12])([H:13])[C@@:4]([C:7](=[C:6]([H:15])[H:16])[H:17])([H:14])[O:5]1)([H:8])([H:9])[H:10]"
C        1.94414849      -0.35042565      -0.80148424
C        0.84548503       0.14814303       0.10510512
C        0.09997715       1.44217380      -0.24225034
C       -1.18884000       0.63612293      -0.12731211
O       -0.80538705      -0.55289352      -0.85931432
C       -1.42399394      -1.39970379       0.65059892
C       -1.06651310      -0.11843074       1.18550287
H        2.24855955      -1.36274237      -0.52822858
H        2.82297905       0.29762796      -0.74206938
H        1.63038195      -0.36578415      -1.84587700
H        1.32331997       0.23879837       1.08721457
H        0.22971104       2.25429614       0.47259965
H        0.31352424       1.82308620      -1.24151093
H       -2.11757539       1.10787205      -0.45225062
H       -0.98929719      -2.28823439       1.11372406
H       -2.31592716      -1.76319408       0.14229190
H       -1.55055264       0.25328819       2.08326045
17
Frame=14 idx=008502 GeodesicLength=1.1556855172405842 rxn_smarts="[C:1]([C@@:2]1([H:11])[C:3]([H:12])([H:13])[C@@:4]2([H:14])[O:5][C:6]([H:15])([H:16])[C@@:7]12[H:17])([H:8])([H:9])[H:10]>>[C:1]([C@@:2]1([H:11])[C:3]([H:12])([H:13])[C@@:4]([C:7](=[C:6]([H:15])[H:16])[H:17])([H:14])[O:5]1)([H:8])([H:9])[H:10]"
C        1.94415874      -0.35033163      -0.79560217
C        0.83386291       0.14102007       0.10512052
C        0.09871526       1.44305812      -0.24262274
C       -1.19386448       0.63773931      -0.13419559
O       -0.81716112      -0.53713233      -0.88360733
C       -1.43351550      -1.40693475       0.65828976
C       -1.05930508      -0.12642970       1.17112447
H        2.25433261      -1.36048031      -0.52037591
H        2.81850038       0.30326545      -0.73719060
H        1.63460687      -0.37089943      -1.84132357
H        1.32631475       0.24611923       1.08042303
H        0.23129711       2.25529478       0.47134415
H        0.31610207       1.82556862      -1.24020643
H       -2.12044033       1.12431633      -0.44033693
H       -1.00687467      -2.29067945       1.13768399
H       -2.30791882      -1.78339868       0.13180815
H       -1.51881071       0.24990439       2.07966721
17
Frame=15 idx=008502 GeodesicLength=1.2381866622190225 rxn_smarts="[C:1]([C@@:2]1([H:11])[C:3]([H:12])([H:13])[C@@:4]2([H:14])[O:5][C:6]([H:15])([H:16])[C@@:7]12[H:17])([H:8])([H:9])[H:10]>>[C:1]([C@@:2]1([H:11])[C:3]([H:12])([H:13])[C@@:4]([C:7](=[C:6]([H:15])[H:16])[H:17])([H:14])[O:5]1)([H:8])([H:9])[H:10]"
C        1.94398842      -0.35018831      -0.79007316
C        0.82226931       0.13381460       0.10495267
C        0.09755783       1.44395181      -0.24265854
C       -1.19886729       0.63945475      -0.14116694
O       -0.82865959      -0.52068773      -0.90805250
C       -1.44334671      -1.41405299       0.66675217
C       -1.05270061      -0.13436740       1.15645475
H        2.25991704      -1.35817536      -0.51304390
H        2.81388898       0.30881578      -0.73271777
H        1.63851310      -0.37576843      -1.83704014
H        1.32887808       0.25256278       1.07333969
H        0.23303631       2.25602085       0.47072485
H        0.31884924       1.82845349      -1.23837706
H       -2.12280084       1.14059254      -0.42857465
H       -1.02562806      -2.29218118       1.16387603
H       -2.29753086      -1.80483326       0.12044822
H       -1.48736434       0.24658806       2.07515627
17
Frame=16 idx=008502 GeodesicLength=1.3207049575310985 rxn_smarts="[C:1]([C@@:2]1([H:11])[C:3]([H:12])([H:13])[C@@:4]2([H:14])[O:5][C:6]([H:15])([H:16])[C@@:7]12[H:17])([H:8])([H:9])[H:10]>>[C:1]([C@@:2]1([H:11])[C:3]([H:12])([H:13])[C@@:4]([C:7](=[C:6]([H:15])[H:16])[H:17])([H:14])[O:5]1)([H:8])([H:9])[H:10]"
C        1.94361876      -0.35001997      -0.78492711
C        0.81067266       0.12650692       0.10456936
C        0.09650091       1.44486057      -0.24234341
C       -1.20387291       0.64130291      -0.14823114
O       -0.83990688      -0.50348682      -0.93269905
C       -1.45353477      -1.42102260       0.67601760
C       -1.04671759      -0.14223819       1.14150158
H        2.26527324      -1.35586793      -0.50628453
H        2.80913963       0.31423916      -0.72864242
H        1.64209238      -0.38038090      -1.83306990
H        1.33100295       0.25808091       1.06598698
H        0.23494058       2.25645555       0.47078631
H        0.32177634       1.83176622      -1.23599851
H       -2.12469832       1.15675147      -0.41695490
H       -1.04573343      -2.29258501       1.19247686
H       -2.28433706      -1.82772767       0.10806625
H       -1.45621651       0.24336537       2.06974601
