15
Frame=0 idx=009281 GeodesicLength=0.0 rxn_smarts="[C:1]([C:2]([C:3]([H:12])([H:13])[H:14])([C:4](=[O:5])[C:6]#[C:7][H:15])[H:11])([H:8])([H:9])[H:10]>>[C:1]([C:2]([C:3]([H:12])([H:13])[H:14])([C:4]#[C:6][C:7](=[O:5])[H:15])[H:11])([H:8])([H:9])[H:10]"
C       -1.20616664       0.53107824      -1.17122994
C       -0.18377308      -0.40924601      -0.53508245
C       -0.70415470      -1.04332263       0.75520126
C        1.10605174       0.28451617      -0.30595381
O        0.95330306       1.55816410       0.78139591
C        2.44146927       0.19231760      -0.31547668
C        2.04251483       0.83906731       0.90046187
H       -1.46260673       1.33544513      -0.48072610
H       -2.11516863      -0.02013765      -1.41656975
H       -0.81857126       0.97739368      -2.08754697
H        0.07245541      -1.20215434      -1.24447151
H       -0.92945761      -0.27618778       1.49730395
H       -1.62043100      -1.59743194       0.54854123
H        0.02605878      -1.73518056       1.17710845
H        2.39847654       0.56567868       1.89704448
15
Frame=1 idx=009281 GeodesicLength=0.13751416750819456 rxn_smarts="[C:1]([C:2]([C:3]([H:12])([H:13])[H:14])([C:4](=[O:5])[C:6]#[C:7][H:15])[H:11])([H:8])([H:9])[H:10]>>[C:1]([C:2]([C:3]([H:12])([H:13])[H:14])([C:4]#[C:6][C:7](=[O:5])[H:15])[H:11])([H:8])([H:9])[H:10]"
C       -1.21455450       0.52812423      -1.17513829
C       -0.19112227      -0.40966521      -0.53749988
C       -0.71422104      -1.04940867       0.74911417
C        1.09433287       0.28885935      -0.29919523
O        0.97530194       1.58730754       0.77782274
C        2.42789871       0.17767738      -0.29488908
C        2.07608223       0.84321937       0.91678398
H       -1.47859185       1.32924701      -0.48375782
H       -2.11992889      -0.02680470      -1.42590194
H       -0.82570841       0.97873215      -2.08877227
H        0.06821974      -1.20074941      -1.24802626
H       -0.94577514      -0.28458277       1.49176562
H       -1.62659578      -1.60797926       0.53714540
H        0.01695539      -1.73877302       1.17336570
H        2.45770700       0.58479601       1.90718315
15
Frame=2 idx=009281 GeodesicLength=0.2750833913399414 rxn_smarts="[C:1]([C:2]([C:3]([H:12])([H:13])[H:14])([C:4](=[O:5])[C:6]#[C:7][H:15])[H:11])([H:8])([H:9])[H:10]>>[C:1]([C:2]([C:3]([H:12])([H:13])[H:14])([C:4]#[C:6][C:7](=[O:5])[H:15])[H:11])([H:8])([H:9])[H:10]"
C       -1.22312176       0.52508207      -1.17912973
C       -0.19875622      -0.41010980      -0.53974855
C       -0.72496815      -1.05586415       0.74282632
C        1.08199257       0.29344466      -0.29148045
O        0.99806783       1.61708533       0.77354491
C        2.41331702       0.16315860      -0.27229637
C        2.11069131       0.84766756       0.93355589
H       -1.49509646       1.32277948      -0.48689441
H       -2.12464615      -0.03362168      -1.43574034
H       -0.83276134       0.98018180      -2.08983878
H        0.06420385      -1.19915216      -1.25144164
H       -0.96331480      -0.29358126       1.48603229
H       -1.63315828      -1.61904175       0.52503504
H        0.00711744      -1.74263287       1.16964931
H        2.52043314       0.60460418       1.91592652
15
Frame=3 idx=009281 GeodesicLength=0.41269565349388776 rxn_smarts="[C:1]([C:2]([C:3]([H:12])([H:13])[H:14])([C:4](=[O:5])[C:6]#[C:7][H:15])[H:11])([H:8])([H:9])[H:10]>>[C:1]([C:2]([C:3]([H:12])([H:13])[H:14])([C:4]#[C:6][C:7](=[O:5])[H:15])[H:11])([H:8])([H:9])[H:10]"
C       -1.23185796       0.52195026      -1.18320873
C       -0.20668636      -0.41057413      -0.54178976
C       -0.73645957      -1.06272611       0.73632251
C        1.06896976       0.29829637      -0.28268739
O        1.02160748       1.64749938       0.76852890
C        2.39762168       0.14880422      -0.24742100
C        2.14641005       0.85245216       0.95080997
H       -1.51215827       1.31602302      -0.49015295
H       -2.12928072      -0.04059356      -1.44614077
H       -0.83968079       0.98176352      -2.09071657
H        0.06045888      -1.19733088      -1.25467496
H       -0.98219009      -0.30325022       1.48008594
H       -1.64015046      -1.63065774       0.51213710
H       -0.00352984      -1.74679027       1.16596928
H        2.58692621       0.62513397       1.92293842
15
Frame=4 idx=009281 GeodesicLength=0.5503471089871562 rxn_smarts="[C:1]([C:2]([C:3]([H:12])([H:13])[H:14])([C:4](=[O:5])[C:6]#[C:7][H:15])[H:11])([H:8])([H:9])[H:10]>>[C:1]([C:2]([C:3]([H:12])([H:13])[H:14])([C:4]#[C:6][C:7](=[O:5])[H:15])[H:11])([H:8])([H:9])[H:10]"
C       -1.24074429       0.51872784      -1.18738320
C       -0.21492837      -0.41105248      -0.54357002
C       -0.74878330      -1.07004172       0.72958328
C        1.05518237       0.30344074      -0.27264684
O        1.04590991       1.67853114       0.76278430
C        2.38067778       0.13466243      -0.21993397
C        2.18332502       0.85762282       0.96857924
H       -1.52982197       1.30895315      -0.49355962
H       -2.13377251      -0.04772527      -1.45718558
H       -0.84639277       0.98350380      -2.09136621
H        0.05705112      -1.19524645      -1.25766461
H       -1.00255878      -0.31367405       1.47389880
H       -1.64761733      -1.64287607       0.49835122
H       -0.01509451      -1.75128711       1.16234220
H        2.65756763       0.64646125       1.92777102
15
Frame=5 idx=009281 GeodesicLength=0.6880207795750685 rxn_smarts="[C:1]([C:2]([C:3]([H:12])([H:13])[H:14])([C:4](=[O:5])[C:6]#[C:7][H:15])[H:11])([H:8])([H:9])[H:10]>>[C:1]([C:2]([C:3]([H:12])([H:13])[H:14])([C:4]#[C:6][C:7](=[O:5])[H:15])[H:11])([H:8])([H:9])[H:10]"
C       -1.24975766       0.51540564      -1.19166445
C       -0.22348303      -0.41152611      -0.54502641
C       -0.76201924      -1.07784094       0.72259623
C        1.04055200       0.30893199      -0.26118656
O        1.07096601       1.71016814       0.75633674
C        2.36235240       0.12086480      -0.18948500
C        2.22153171       0.86321925       0.98690536
H       -1.54814188       1.30154127      -0.49715624
H       -2.13805006      -0.05504249      -1.46895244
H       -0.85282921       0.98541195      -2.09175971
H        0.05407399      -1.19285147      -1.26032739
H       -1.02459801      -0.32491635       1.46743430
H       -1.65557970      -1.65574758       0.48358136
H       -0.02767257      -1.75612698       1.15881601
H        2.73265526       0.66850888       1.92988820
15
Frame=6 idx=009281 GeodesicLength=0.8257035152206414 rxn_smarts="[C:1]([C:2]([C:3]([H:12])([H:13])[H:14])([C:4](=[O:5])[C:6]#[C:7][H:15])[H:11])([H:8])([H:9])[H:10]>>[C:1]([C:2]([C:3]([H:12])([H:13])[H:14])([C:4]#[C:6][C:7](=[O:5])[H:15])[H:11])([H:8])([H:9])[H:10]"
C       -1.25886102       0.51197341      -1.19606953
C       -0.23235267      -0.41197421      -0.54607546
C       -0.77627407      -1.08616091       0.71534679
C        1.02497413       0.31483172      -0.24807454
O        1.09673975       1.74237442       0.74928244
C        2.34247686       0.10757005      -0.15566294
C        2.26114669       0.86927889       1.00583093
H       -1.56718549       1.29374857      -0.50099915
H       -2.14200833      -0.06257709      -1.48155633
H       -0.85888659       0.98750608      -2.09185653
H        0.05164650      -1.19008878      -1.26255046
H       -1.04854323      -0.33705602       1.46064153
H       -1.66406539      -1.66933633       0.46770097
H       -0.04139741      -1.76131612       1.15545736
H        2.81259025       0.69122634       1.92858491
15
Frame=7 idx=009281 GeodesicLength=0.9633752194721201 rxn_smarts="[C:1]([C:2]([C:3]([H:12])([H:13])[H:14])([C:4](=[O:5])[C:6]#[C:7][H:15])[H:11])([H:8])([H:9])[H:10]>>[C:1]([C:2]([C:3]([H:12])([H:13])[H:14])([C:4]#[C:6][C:7](=[O:5])[H:15])[H:11])([H:8])([H:9])[H:10]"
C       -1.26800318       0.50841926      -1.20061362
C       -0.24152835      -0.41236530      -0.54661415
C       -0.79165106      -1.09503661       0.70782404
C        1.00833059       0.32122253      -0.23303853
O        1.12318761       1.77512892       0.74173369
C        2.32085131       0.09495568      -0.11797298
C        2.30232502       0.87586434       1.02536840
H       -1.58703064       1.28552524      -0.50515223
H       -2.14550818      -0.07037214      -1.49512743
H       -0.86443996       0.98981308      -2.09160098
H        0.04992196      -1.18688382      -1.26419102
H       -1.07464208      -0.35017626       1.45346267
H       -1.67308132      -1.68370943       0.45057438
H       -0.05640416      -1.76685461       1.15234632
H        2.89767243       0.71446913       1.92300144
15
Frame=8 idx=009281 GeodesicLength=1.1009975295770384 rxn_smarts="[C:1]([C:2]([C:3]([H:12])([H:13])[H:14])([C:4](=[O:5])[C:6]#[C:7][H:15])[H:11])([H:8])([H:9])[H:10]>>[C:1]([C:2]([C:3]([H:12])([H:13])[H:14])([C:4]#[C:6][C:7](=[O:5])[H:15])[H:11])([H:8])([H:9])[H:10]"
C       -1.27711741       0.50472782      -1.20530764
C       -0.25098082      -0.41265205      -0.54652150
C       -0.80822745      -1.10449138       0.70002563
C        0.99049479       0.32821972      -0.21578391
O        1.15026368       1.80843569       0.73380088
C        2.29724526       0.08324746      -0.07584319
C        2.34527659       0.88306879       1.04546041
H       -1.60775744       1.27681327      -0.50968973
H       -2.14837676      -0.07848575      -1.50979132
H       -0.86935431       0.99235967      -2.09092803
H        0.04909507      -1.18314134      -1.26507366
H       -1.10312560      -0.36435269       1.44583500
H       -1.68259020      -1.69892962       0.43207517
H       -0.07280157      -1.77272135       1.14957885
H        2.98795618       0.73790175       1.91216304
15
Frame=9 idx=009281 GeodesicLength=1.2385068389656844 rxn_smarts="[C:1]([C:2]([C:3]([H:12])([H:13])[H:14])([C:4](=[O:5])[C:6]#[C:7][H:15])[H:11])([H:8])([H:9])[H:10]>>[C:1]([C:2]([C:3]([H:12])([H:13])[H:14])([C:4]#[C:6][C:7](=[O:5])[H:15])[H:11])([H:8])([H:9])[H:10]"
C       -1.28612046       0.50087456      -1.21016260
C       -0.26065463      -0.41276538      -0.54565704
C       -0.82603951      -1.11452561       0.69196404
C        0.97132741       0.33599064      -0.19600341
O        1.17790550       1.84231898       0.72562168
C        2.27139512       0.07277797      -0.02865551
C        2.39029033       0.89101546       1.06591946
H       -1.62944518       1.26754739      -0.51471030
H       -2.15040473      -0.08700247      -1.52566004
H       -0.87349151       0.99515622      -2.08977611
H        0.04941264      -1.17874208      -1.26497998
H       -1.13420299      -0.37964028       1.43768813
H       -1.69248885      -1.71505268       0.41210015
H       -0.09065225      -1.77885022       1.14728114
H        3.08316912       0.76089750       1.89503040
15
Frame=10 idx=009281 GeodesicLength=1.375801649032983 rxn_smarts="[C:1]([C:2]([C:3]([H:12])([H:13])[H:14])([C:4](=[O:5])[C:6]#[C:7][H:15])[H:11])([H:8])([H:9])[H:10]>>[C:1]([C:2]([C:3]([H:12])([H:13])[H:14])([C:4]#[C:6][C:7](=[O:5])[H:15])[H:11])([H:8])([H:9])[H:10]"
C       -1.29491814       0.49681547      -1.21519749
C       -0.27045985      -0.41260305      -0.54386410
C       -0.84505297      -1.12509618       0.68367628
C        0.95067270       0.34478717      -0.17340632
O        1.20600826       1.87682472       0.71740146
C        2.24300852       0.06406404       0.02419705
C        2.43775669       0.89984804       1.08633448
H       -1.65217420       1.25765299      -0.52035691
H       -2.15134913      -0.09605566      -1.54281724
H       -0.87673306       0.99817298      -2.08811045
H        0.05118342      -1.17353605      -1.26363999
H       -1.16803823      -0.39604922       1.42894187
H       -1.70257073      -1.73212029       0.39059722
H       -0.10993284      -1.78508942       1.14562714
H        3.18259955       0.78238446       1.87061700
15
Frame=11 idx=009281 GeodesicLength=1.5127595016633966 rxn_smarts="[C:1]([C:2]([C:3]([H:12])([H:13])[H:14])([C:4](=[O:5])[C:6]#[C:7][H:15])[H:11])([H:8])([H:9])[H:10]>>[C:1]([C:2]([C:3]([H:12])([H:13])[H:14])([C:4]#[C:6][C:7](=[O:5])[H:15])[H:11])([H:8])([H:9])[H:10]"
C       -1.30340894       0.49248214      -1.22044777
C       -0.28027683      -0.41202122      -0.54096446
C       -0.86516641      -1.13611741       0.67522377
C        0.92833566       0.35496734      -0.14770624
O        1.23438171       1.91203024       0.70948192
C        2.21173476       0.05781749       0.08333044
C        2.48821110       0.90974035       1.10592567
H       -1.67604753       1.24703211      -0.52683005
H       -2.15091952      -0.10584587      -1.56134082
H       -0.87897824       1.00134541      -2.08592436
H        0.05478545      -1.16732884      -1.26071981
H       -1.20477122      -0.41355265       1.41949717
H       -1.71251147      -1.75017495       0.36755626
H       -0.13053733      -1.79119126       1.14484802
H        3.28516881       0.80081712       1.83807026
15
Frame=12 idx=009281 GeodesicLength=1.649281924638845 rxn_smarts="[C:1]([C:2]([C:3]([H:12])([H:13])[H:14])([C:4](=[O:5])[C:6]#[C:7][H:15])[H:11])([H:8])([H:9])[H:10]>>[C:1]([C:2]([C:3]([H:12])([H:13])[H:14])([C:4]#[C:6][C:7](=[O:5])[H:15])[H:11])([H:8])([H:9])[H:10]"
C       -1.31143521       0.48778763      -1.22599638
C       -0.28998538      -0.41085113      -0.53671180
C       -0.88635718      -1.14751915       0.66665459
C        0.90400320       0.36695970      -0.11842588
O        1.26261252       1.94798470       0.70266925
C        2.17705631       0.05489419       0.14966397
C        2.54224804       0.92076609       1.12362875
H       -1.70120903       1.23554254      -0.53443574
H       -2.14868943      -0.11662302      -1.58143937
H       -0.88000679       1.00460818      -2.08320985
H        0.06070236      -1.15987077      -1.25576196
H       -1.24472725      -0.43217377       1.40918384
H       -1.72198188      -1.76930080       0.34287081
H       -0.15247980      -1.79689336       1.14524025
H        3.39024953       0.81468898       1.79606953
15
Frame=13 idx=009281 GeodesicLength=1.7853038670893502 rxn_smarts="[C:1]([C:2]([C:3]([H:12])([H:13])[H:14])([C:4](=[O:5])[C:6]#[C:7][H:15])[H:11])([H:8])([H:9])[H:10]>>[C:1]([C:2]([C:3]([H:12])([H:13])[H:14])([C:4]#[C:6][C:7](=[O:5])[H:15])[H:11])([H:8])([H:9])[H:10]"
C       -1.31872182       0.48267577      -1.23187520
C       -0.29943225      -0.40891570      -0.53075566
C       -0.90864763      -1.15932168       0.65799641
C        0.87728568       0.38116256      -0.08482240
O        1.29015482       1.98489026       0.69782175
C        2.13816207       0.05606771       0.22492624
C        2.60094565       0.93331485       1.13721784
H       -1.72779886       1.22297448      -0.54343508
H       -2.14401701      -0.12859724      -1.60341705
H       -0.87940434       1.00805355      -2.07978047
H        0.06954593      -1.15082731      -1.24818426
H       -1.28829442      -0.45209382       1.39781008
H       -1.73064623      -1.78962144       0.31631509
H       -0.17589886      -1.80209907       1.14706235
H        3.49676727       0.82233707       1.74312036
15
Frame=14 idx=009281 GeodesicLength=1.9207188889992466 rxn_smarts="[C:1]([C:2]([C:3]([H:12])([H:13])[H:14])([C:4](=[O:5])[C:6]#[C:7][H:15])[H:11])([H:8])([H:9])[H:10]>>[C:1]([C:2]([C:3]([H:12])([H:13])[H:14])([C:4]#[C:6][C:7](=[O:5])[H:15])[H:11])([H:8])([H:9])[H:10]"
C       -1.32458351       0.47709333      -1.23829757
C       -0.30843379      -0.40605572      -0.52243019
C       -0.93259193      -1.17170047       0.64917027
C        0.84746055       0.39795902      -0.04524937
O        1.31560294       2.02272795       0.69780377
C        2.09349389       0.06231801       0.31284132
C        2.66493413       0.94713025       1.14443174
H       -1.75588034       1.20907900      -0.55450288
H       -2.13561450      -0.14194756      -1.62816089
H       -0.87596860       1.01182991      -2.07537461
H        0.08236434      -1.13980442      -1.23687139
H       -1.33678121      -0.47373061       1.38487365
H       -1.73844958      -1.81138832       0.28711499
H       -0.20173952      -1.80688425       1.15082673
H        3.60618712       0.82337389       1.67382440
15
Frame=15 idx=009281 GeodesicLength=2.054963125149925 rxn_smarts="[C:1]([C:2]([C:3]([H:12])([H:13])[H:14])([C:4](=[O:5])[C:6]#[C:7][H:15])[H:11])([H:8])([H:9])[H:10]>>[C:1]([C:2]([C:3]([H:12])([H:13])[H:14])([C:4]#[C:6][C:7](=[O:5])[H:15])[H:11])([H:8])([H:9])[H:10]"
C       -1.32910722       0.47020557      -1.24596598
C       -0.31627807      -0.40115942      -0.51150040
C       -0.95634527      -1.18328582       0.64091037
C        0.81380397       0.42038022      -0.00051253
O        1.33683312       2.06250322       0.70841068
C        2.04289415       0.07918534       0.41099045
C        2.73490040       0.96117193       1.13921441
H       -1.78596235       1.19337800      -0.56939131
H       -2.12286933      -0.15873799      -1.65527559
H       -0.87059237       1.01425084      -2.07154783
H        0.10060510      -1.12582037      -1.22062178
H       -1.38932381      -0.49571062       1.37010009
H       -1.74249964      -1.83450310       0.25679222
H       -0.22751555      -1.80823111       1.15811655
H        3.71145687       0.80637329       1.59028065
15
Frame=16 idx=009281 GeodesicLength=2.1864318145806965 rxn_smarts="[C:1]([C:2]([C:3]([H:12])([H:13])[H:14])([C:4](=[O:5])[C:6]#[C:7][H:15])[H:11])([H:8])([H:9])[H:10]>>[C:1]([C:2]([C:3]([H:12])([H:13])[H:14])([C:4]#[C:6][C:7](=[O:5])[H:15])[H:11])([H:8])([H:9])[H:10]"
C       -1.32970722       0.46241583      -1.25474037
C       -0.32216098      -0.39460155      -0.49687450
C       -0.98095591      -1.19478173       0.63283487
C        0.77628325       0.44703151       0.05188219
O        1.35121785       2.10417353       0.73401371
C        1.98354336       0.10708056       0.52900561
C        2.80660594       0.97201695       1.11995490
H       -1.81575011       1.17617947      -0.58859797
H       -2.10299555      -0.17770375      -1.68546208
H       -0.85946323       1.01598984      -2.06722616
H        0.12590501      -1.10885057      -1.19757728
H       -1.44685669      -0.51895408       1.35272113
H       -1.74373116      -1.85854132       0.22401162
H       -0.25571353      -1.80794603       1.16874635
H        3.81377898       0.77649135       1.47730799
