16
Frame=0 idx=000219 GeodesicLength=0.0 rxn_smarts="[C:1]([C@@:2]1([H:10])[C:3]([H:11])([H:12])[C:4]([H:13])([H:14])[C:5]([H:15])=[C:6]1[H:16])([H:7])([H:8])[H:9]>>[C:1]([C:2](=[C:6]=[C:5]([C:4]([C:3]([H:11])([H:12])[H:16])([H:13])[H:14])[H:15])[H:10])([H:7])([H:8])[H:9]"
C        2.16133053      -0.17535447       0.08787445
C        0.79372781       0.24868578      -0.37322118
C       -0.62907658      -1.03029028      -0.07611399
C       -1.79024523      -0.06643648       0.03304264
C       -1.18218249       1.35841232       0.28214252
C        0.13537377       1.57294610       0.13941108
H        2.22705117      -0.16818006       1.17643887
H        2.89532943       0.53588151      -0.29168088
H        2.42007008      -1.17016643      -0.27795535
H        0.64403953       0.23673817      -1.44513636
H       -0.53941903      -1.59392048      -0.99542885
H       -0.44848595      -1.66342850       0.79179947
H       -2.47315116      -0.33295510       0.84048041
H       -2.36586632      -0.04463943      -0.89588886
H       -1.88954890       2.14828166       0.50942585
H        0.04105335       0.14442563       0.49481015
16
Frame=1 idx=000219 GeodesicLength=0.15014342391184093 rxn_smarts="[C:1]([C@@:2]1([H:10])[C:3]([H:11])([H:12])[C:4]([H:13])([H:14])[C:5]([H:15])=[C:6]1[H:16])([H:7])([H:8])[H:9]>>[C:1]([C:2](=[C:6]=[C:5]([C:4]([C:3]([H:11])([H:12])[H:16])([H:13])[H:14])[H:15])[H:10])([H:7])([H:8])[H:9]"
C        2.17748280      -0.16538938       0.08058743
C        0.80094472       0.24614700      -0.36852065
C       -0.64179333      -1.03361158      -0.07028987
C       -1.80115425      -0.06408180       0.02801895
C       -1.18719681       1.35543844       0.27114265
C        0.13342667       1.55290148       0.14487182
H        2.25552865      -0.15668692       1.16854359
H        2.90494654       0.54984999      -0.30498343
H        2.44037214      -1.15924961      -0.28554793
H        0.66339840       0.23963521      -1.44372272
H       -0.55425856      -1.59549831      -0.99196854
H       -0.48747820      -1.68323273       0.79082207
H       -2.48958146      -0.32372939       0.83337451
H       -2.37517988      -0.04373057      -0.90236591
H       -1.88496321       2.15233155       0.50380345
H        0.04550578       0.12890661       0.54623458
16
Frame=2 idx=000219 GeodesicLength=0.29980484951668024 rxn_smarts="[C:1]([C@@:2]1([H:10])[C:3]([H:11])([H:12])[C:4]([H:13])([H:14])[C:5]([H:15])=[C:6]1[H:16])([H:7])([H:8])[H:9]>>[C:1]([C:2](=[C:6]=[C:5]([C:4]([C:3]([H:11])([H:12])[H:16])([H:13])[H:14])[H:15])[H:10])([H:7])([H:8])[H:9]"
C        2.19312868      -0.15545660       0.07303422
C        0.80841684       0.24386359      -0.36526166
C       -0.65409202      -1.03678526      -0.06362151
C       -1.81184872      -0.06184557       0.02301589
C       -1.19177482       1.35223528       0.26020105
C        0.13161935       1.53208629       0.15104297
H        2.28213180      -0.14661763       1.16036371
H        2.91441302       0.56419046      -0.31689706
H        2.46058019      -1.14791549      -0.29428933
H        0.68240185       0.24336331      -1.44346311
H       -0.56865348      -1.59755642      -0.98729235
H       -0.52604064      -1.70177444       0.79040026
H       -2.50588207      -0.31440922       0.82617497
H       -2.38391423      -0.04312097      -0.90903310
H       -1.87980288       2.15616813       0.49790481
H        0.04931713       0.11357456       0.59772023
16
Frame=3 idx=000219 GeodesicLength=0.4490489493438158 rxn_smarts="[C:1]([C@@:2]1([H:10])[C:3]([H:11])([H:12])[C:4]([H:13])([H:14])[C:5]([H:15])=[C:6]1[H:16])([H:7])([H:8])[H:9]>>[C:1]([C:2](=[C:6]=[C:5]([C:4]([C:3]([H:11])([H:12])[H:16])([H:13])[H:14])[H:15])[H:10])([H:7])([H:8])[H:9]"
C        2.20827055      -0.14557515       0.06519439
C        0.81613309       0.24188590      -0.36348745
C       -0.66597669      -1.03982816      -0.05610250
C       -1.82231835      -0.05973652       0.01801064
C       -1.19593113       1.34881644       0.24925453
C        0.12991260       1.51046675       0.15792332
H        2.30693944      -0.13795651       1.15191341
H        2.92376536       0.57885706      -0.32748968
H        2.48061762      -1.13620418      -0.30417045
H        0.70107972       0.24807738      -1.44440787
H       -0.58257924      -1.60007745      -0.98141700
H       -0.56418823      -1.71912401       0.79055353
H       -2.52205258      -0.30498352       0.81884797
H       -2.39204948      -0.04284901      -0.91591513
H       -1.87407967       2.15979453       0.49170464
H        0.05245702       0.09843646       0.64958766
16
Frame=4 idx=000219 GeodesicLength=0.5979251280164497 rxn_smarts="[C:1]([C@@:2]1([H:10])[C:3]([H:11])([H:12])[C:4]([H:13])([H:14])[C:5]([H:15])=[C:6]1[H:16])([H:7])([H:8])[H:9]>>[C:1]([C:2](=[C:6]=[C:5]([C:4]([C:3]([H:11])([H:12])[H:16])([H:13])[H:14])[H:15])[H:10])([H:7])([H:8])[H:9]"
C        2.22289802      -0.13576828       0.05704248
C        0.82407948       0.24027662      -0.36326117
C       -0.67743902      -1.04275016      -0.04771157
C       -1.83254650      -0.05776655       0.01298157
C       -1.19967054       1.34519058       0.23824193
C        0.12827029       1.48799673       0.16550810
H        2.32998851      -0.13073076       1.14319291
H        2.93303196       0.59380475      -0.33679585
H        2.50040505      -1.12414831      -0.31520772
H        0.71946515       0.25395270      -1.44662156
H       -0.59599283      -1.60305013      -0.97433466
H       -0.60191937      -1.73533199       0.79131783
H       -2.53808841      -0.29544308       0.81135764
H       -2.39955465      -0.04296190      -0.92303712
H       -1.86779283       2.16320978       0.48518174
H        0.05486568       0.08351998       0.70214544
16
Frame=5 idx=000219 GeodesicLength=0.7464697661394932 rxn_smarts="[C:1]([C@@:2]1([H:10])[C:3]([H:11])([H:12])[C:4]([H:13])([H:14])[C:5]([H:15])=[C:6]1[H:16])([H:7])([H:8])[H:9]>>[C:1]([C:2](=[C:6]=[C:5]([C:4]([C:3]([H:11])([H:12])[H:16])([H:13])[H:14])[H:15])[H:10])([H:7])([H:8])[H:9]"
C        2.23698751      -0.12606561       0.04854619
C        0.83223880       0.23911433      -0.36466579
C       -0.68845727      -1.04555437      -0.03841089
C       -1.84250897      -0.05595179       0.00790735
C       -1.20298898       1.34136376       0.22710167
C        0.12665822       1.46461821       0.17378636
H        2.35127298      -0.12501762       1.13418755
H        2.94223593       0.60898700      -0.34481499
H        2.51985657      -1.11177404      -0.32744898
H        0.73759353       0.26119103      -1.45018118
H       -0.60882968      -1.60646847      -0.96601170
H       -0.63921269      -1.75043056       0.79274748
H       -2.55398045      -0.28578193       0.80366477
H       -2.40638516      -0.04351930      -0.93042686
H       -1.86093096       2.16640947       0.47831760
H        0.05645061       0.06887990       0.75570139
16
Frame=6 idx=000219 GeodesicLength=0.8947132715301707 rxn_smarts="[C:1]([C@@:2]1([H:10])[C:3]([H:11])([H:12])[C:4]([H:13])([H:14])[C:5]([H:15])=[C:6]1[H:16])([H:7])([H:8])[H:9]>>[C:1]([C:2](=[C:6]=[C:5]([C:4]([C:3]([H:11])([H:12])[H:16])([H:13])[H:14])[H:15])[H:10])([H:7])([H:8])[H:9]"
C        2.25050086      -0.11650543       0.03966500
C        0.84058984       0.23850014      -0.36780771
C       -0.69899404      -1.04823808      -0.02814484
C       -1.85217210      -0.05431350       0.00276493
C       -1.20587450       1.33733700       0.21577051
C        0.12504303       1.44026320       0.18274027
H        2.37074543      -0.12094728       1.12486741
H        2.95139643       0.62435051      -0.35151267
H        2.53887215      -1.09910598      -0.34097493
H        0.75550080       0.27003118      -1.45517864
H       -0.62099765      -1.61033310      -0.95638738
H       -0.67602602      -1.76443372       0.79492085
H       -2.56971525      -0.27599705       0.79572165
H       -2.41247754      -0.04459474      -0.93811688
H       -1.85347338       2.16938189       0.47110020
H        0.05708195       0.05460494       0.81057223
16
Frame=7 idx=000219 GeodesicLength=1.0426768860236089 rxn_smarts="[C:1]([C@@:2]1([H:10])[C:3]([H:11])([H:12])[C:4]([H:13])([H:14])[C:5]([H:15])=[C:6]1[H:16])([H:7])([H:8])[H:9]>>[C:1]([C:2](=[C:6]=[C:5]([C:4]([C:3]([H:11])([H:12])[H:16])([H:13])[H:14])[H:15])[H:10])([H:7])([H:8])[H:9]"
C        2.26338333      -0.10713771       0.03034625
C        0.84910750       0.23856272      -0.37281405
C       -0.70899409      -1.05079253      -0.01683520
C       -1.86149018      -0.05288032      -0.00247080
C       -1.20830711       1.33310866       0.20418582
C        0.12339315       1.41485264       0.19234549
H        2.38831240      -0.11872053       1.11518006
H        2.96052785       0.63983350      -0.35681481
H        2.55733315      -1.08616368      -0.35591262
H        0.77322418       0.28075888      -1.46171557
H       -0.63237082      -1.61465108      -0.94536810
H       -0.71229306      -1.77733807       0.79794490
H       -2.58527436      -0.26609250       0.78746914
H       -2.41774367      -0.04628010      -0.94614698
H       -1.84539256       2.17211181       0.46351381
H        0.05658430       0.04082829       0.86709268
16
Frame=8 idx=000219 GeodesicLength=1.1903755058297796 rxn_smarts="[C:1]([C@@:2]1([H:10])[C:3]([H:11])([H:12])[C:4]([H:13])([H:14])[C:5]([H:15])=[C:6]1[H:16])([H:7])([H:8])[H:9]>>[C:1]([C:2](=[C:6]=[C:5]([C:4]([C:3]([H:11])([H:12])[H:16])([H:13])[H:14])[H:15])[H:10])([H:7])([H:8])[H:9]"
C        2.27556176      -0.09802792       0.02052049
C        0.85776061       0.23946637      -0.37983249
C       -0.71838108      -1.05320382      -0.00437375
C       -1.87040234      -0.05169076      -0.00782844
C       -1.21025828       1.32867283       0.19229121
C        0.12167939       1.38829876       0.20257258
H        2.40383215      -0.11863061       1.10504449
H        2.96963977       0.65536240      -0.36060013
H        2.57509836      -1.07295865      -0.37245545
H        0.79079946       0.29372150      -1.46990112
H       -0.64277975      -1.61943869      -0.93281770
H       -0.74792275      -1.78912241       0.80196665
H       -2.60063726      -0.25608327       0.77882845
H       -2.42205971      -0.04868804      -0.95456968
H       -1.83665738       2.17458215       0.45552953
H        0.05472705       0.02774016       0.92562537
16
Frame=9 idx=000219 GeodesicLength=1.3378334701767618 rxn_smarts="[C:1]([C@@:2]1([H:10])[C:3]([H:11])([H:12])[C:4]([H:13])([H:14])[C:5]([H:15])=[C:6]1[H:16])([H:7])([H:8])[H:9]>>[C:1]([C:2](=[C:6]=[C:5]([C:4]([C:3]([H:11])([H:12])[H:16])([H:13])[H:14])[H:15])[H:10])([H:7])([H:8])[H:9]"
C        2.28693987      -0.08926323       0.01009547
C        0.86650376       0.24142249      -0.38903525
C       -0.72705136      -1.05544953       0.00938379
C       -1.87882820      -0.05079574      -0.01334257
C       -1.21168630       1.32401126       0.18003663
C        0.11986888       1.36050396       0.21338199
H        2.41709313      -0.12106995       1.09434278
H        2.97874405       0.67083751      -0.36269165
H        2.59199819      -1.05950177      -0.39088066
H        0.80826132       0.30934829      -1.47984977
H       -0.65199790      -1.62472034      -0.91855198
H       -0.78279405      -1.79974497       0.80718154
H       -2.61578639      -0.24599475       0.76969551
H       -2.42525237      -0.05195975      -0.96345736
H       -1.82722612       2.17675987       0.44711378
H        0.05121348       0.01561665       0.98657776
16
Frame=10 idx=000219 GeodesicLength=1.485045217758896 rxn_smarts="[C:1]([C@@:2]1([H:10])[C:3]([H:11])([H:12])[C:4]([H:13])([H:14])[C:5]([H:15])=[C:6]1[H:16])([H:7])([H:8])[H:9]>>[C:1]([C:2](=[C:6]=[C:5]([C:4]([C:3]([H:11])([H:12])[H:16])([H:13])[H:14])[H:15])[H:10])([H:7])([H:8])[H:9]"
C        2.29739757      -0.08094931      -0.00103983
C        0.87529299       0.24468682      -0.40060644
C       -0.73488132      -1.05750643       0.02461503
C       -1.88666551      -0.05026124      -0.01906106
C       -1.21254481       1.31910554       0.16737514
C        0.11794289       1.33136883       0.22470205
H        2.42783617      -0.12654244       1.08290117
H        2.98783667       0.68612790      -0.36286413
H        2.60782313      -1.04578462      -0.41152171
H        0.82565701       0.32814152      -1.49166813
H       -0.65974239      -1.63053550      -0.90233378
H       -0.81676087      -1.80914571       0.81383615
H       -2.63069306      -0.23587256       0.75992643
H       -2.42710076      -0.05626340      -0.97290120
H       -1.81705647       2.17860479       0.43827101
H        0.04565876       0.00482582       1.05036931
16
Frame=11 idx=000219 GeodesicLength=1.6320241734105005 rxn_smarts="[C:1]([C@@:2]1([H:10])[C:3]([H:11])([H:12])[C:4]([H:13])([H:14])[C:5]([H:15])=[C:6]1[H:16])([H:7])([H:8])[H:9]>>[C:1]([C:2](=[C:6]=[C:5]([C:4]([C:3]([H:11])([H:12])[H:16])([H:13])[H:14])[H:15])[H:10])([H:7])([H:8])[H:9]"
C        2.30678468      -0.07322646      -0.01303096
C        0.88406675       0.24958089      -0.41474045
C       -0.74171347      -1.05934070       0.04154764
C       -1.89378249      -0.05017527      -0.02504294
C       -1.21277364       1.31392050       0.15427553
C        0.11588414       1.30079133       0.23644544
H        2.43571524      -0.13569322       1.07047379
H        2.99691309       0.70104603      -0.36082365
H        2.62232142      -1.03179431      -0.43482992
H        0.84303922       0.35072262      -1.50544218
H       -0.66564507      -1.63692877      -0.88385920
H       -0.84964145      -1.81724141       0.82224289
H       -2.64533205      -0.22578798       0.74933265
H       -2.42730764      -0.06181004      -0.98302227
H       -1.80610174       2.18005284       0.42900622
H        0.03757303      -0.00411605       1.11746740
16
Frame=12 idx=000219 GeodesicLength=1.7787888444861455 rxn_smarts="[C:1]([C@@:2]1([H:10])[C:3]([H:11])([H:12])[C:4]([H:13])([H:14])[C:5]([H:15])=[C:6]1[H:16])([H:7])([H:8])[H:9]>>[C:1]([C:2](=[C:6]=[C:5]([C:4]([C:3]([H:11])([H:12])[H:16])([H:13])[H:14])[H:15])[H:10])([H:7])([H:8])[H:9]"
C        2.31492013      -0.06627502      -0.02605991
C        0.89275346       0.25649878      -0.43161738
C       -0.74735943      -1.06091129       0.06045948
C       -1.90001203      -0.05065413      -0.03136189
C       -1.21230513       1.30840696       0.14073042
C        0.11368914       1.26867447       0.24850800
H        2.44031190      -0.14931418       1.05670815
H        3.00595688       0.71531560      -0.35622150
H        2.63518387      -1.01750432      -0.46135917
H        0.86047579       0.37784646      -1.52120264
H       -0.66924206      -1.64394569      -0.86275288
H       -0.88121953      -1.82393018       0.83277850
H       -2.65967060      -0.21585347       0.73766704
H       -2.42549003      -0.06885584      -0.99396865
H       -1.79432500       2.18101954       0.41933583
H        0.02633263      -0.01051770       1.18835661
16
Frame=13 idx=000219 GeodesicLength=1.9253725840365714 rxn_smarts="[C:1]([C@@:2]1([H:10])[C:3]([H:11])([H:12])[C:4]([H:13])([H:14])[C:5]([H:15])=[C:6]1[H:16])([H:7])([H:8])[H:9]>>[C:1]([C:2](=[C:6]=[C:5]([C:4]([C:3]([H:11])([H:12])[H:16])([H:13])[H:14])[H:15])[H:10])([H:7])([H:8])[H:9]"
C        2.32159464      -0.06032268      -0.04035171
C        0.90126964       0.26590837      -0.45136880
C       -0.75160644      -1.06216984       0.08168165
C       -1.90514795      -0.05184946      -0.03810552
C       -1.21106401       1.30249439       0.12676408
C        0.11137132       1.23493267       0.26076944
H        2.44113147      -0.16835130       1.04110852
H        3.01493865       0.72854238      -0.34865342
H        2.64605114      -1.00286438      -0.49178398
H        0.87806045       0.41041489      -1.53887569
H       -0.66996449      -1.65162296      -0.83856439
H       -0.91125328      -1.82909298       0.84588378
H       -2.67366883      -0.20623325       0.72461891
H       -2.42116786      -0.07770990      -1.00591185
H       -1.78170375       2.18139258       0.40928544
H        0.01115931      -0.01346851       1.26350353
16
Frame=14 idx=000219 GeodesicLength=2.0718274068601423 rxn_smarts="[C:1]([C@@:2]1([H:10])[C:3]([H:11])([H:12])[C:4]([H:13])([H:14])[C:5]([H:15])=[C:6]1[H:16])([H:7])([H:8])[H:9]>>[C:1]([C:2](=[C:6]=[C:5]([C:4]([C:3]([H:11])([H:12])[H:16])([H:13])[H:14])[H:15])[H:10])([H:7])([H:8])[H:9]"
C        2.32657678      -0.05564808      -0.05617288
C        0.90952221       0.27834029      -0.47401976
C       -0.75423227      -1.06306721       0.10558655
C       -1.90894290      -0.05395339      -0.04537128
C       -1.20897179       1.29608930       0.11244242
C        0.10896739       1.19950420       0.27309716
H        2.43762518      -0.19386982       1.02299467
H        3.02380363       0.74017245      -0.33768699
H        2.65451951      -0.98778961      -0.52687567
H        0.89592461       0.44947134      -1.55820384
H       -0.66714413      -1.65997542      -0.81078310
H       -0.93948828      -1.83260833       0.86204146
H       -2.68726708      -0.19715531       0.70981881
H       -2.41376748      -0.08873273      -1.01903164
H       -1.76824166       2.18103459       0.39888617
H       -0.00888372      -0.01181227       1.34327793
16
Frame=15 idx=000219 GeodesicLength=2.2182643739756362 rxn_smarts="[C:1]([C@@:2]1([H:10])[C:3]([H:11])([H:12])[C:4]([H:13])([H:14])[C:5]([H:15])=[C:6]1[H:16])([H:7])([H:8])[H:9]>>[C:1]([C:2](=[C:6]=[C:5]([C:4]([C:3]([H:11])([H:12])[H:16])([H:13])[H:14])[H:15])[H:10])([H:7])([H:8])[H:9]"
C        2.32963524      -0.05256922      -0.07382516
C        0.91741917       0.29435767      -0.49940775
C       -0.75504783      -1.06357173       0.13256860
C       -1.91112028      -0.05720270      -0.05325722
C       -1.20594677       1.28907427       0.09787867
C        0.10654591       1.16237128       0.28535111
H        2.42923539      -0.22697594       1.00146818
H        3.03247441       0.74946795      -0.32290199
H        2.66017387      -0.97213147      -0.56747387
H        0.91426141       0.49616415      -1.57864382
H       -0.66006214      -1.66899130      -0.77886840
H       -0.96570558      -1.83438471       0.88174747
H       -2.70038489      -0.18892060       0.69285965
H       -2.40264967      -0.10232836      -1.03349603
H       -1.75396873       2.17979190       0.38816174
H       -0.03485951      -0.00415119       1.42783883
16
Frame=16 idx=000219 GeodesicLength=2.3648627028170823 rxn_smarts="[C:1]([C@@:2]1([H:10])[C:3]([H:11])([H:12])[C:4]([H:13])([H:14])[C:5]([H:15])=[C:6]1[H:16])([H:7])([H:8])[H:9]>>[C:1]([C:2](=[C:6]=[C:5]([C:4]([C:3]([H:11])([H:12])[H:16])([H:13])[H:14])[H:15])[H:10])([H:7])([H:8])[H:9]"
C        2.33057560      -0.05141955      -0.09362055
C        0.92488972       0.31449470      -0.52709097
C       -0.75395478      -1.06368127       0.16299100
C       -1.91140030      -0.06187159      -0.06184075
C       -1.20191833       1.28129799       0.08323489
C        0.10420593       1.12357742       0.29738725
H        2.41548858      -0.26864791       0.97539629
H        3.04085659       0.75547571      -0.30396990
H        2.66263693      -0.95565036      -0.61437783
H        0.93335025       0.55164835      -1.59924106
H       -0.64803976      -1.67860656      -0.74231203
H       -0.98977924      -1.83438901       0.90543514
H       -2.71291156      -0.18189536       0.67334486
H       -2.38718040      -0.11891561      -1.04940355
H       -1.73895510       2.17749073       0.37711018
H       -0.06786415       0.01109230       1.51695702
