15
Frame=0 idx=010850 GeodesicLength=0.0 rxn_smarts="[C:1]([C@@:2]12[C:3]([H:11])([H:12])[C@:4]1([O:5][H:13])[C:6]([H:14])([H:15])[O:7]2)([H:8])([H:9])[H:10]>>[C:1]([C@@:2]12[C:3]([H:11])=[C:4]1[C:6]([H:14])([H:15])[O:7]2)([H:8])([H:9])[H:10].[O:5]([H:12])[H:13]"
C        1.85972004      -0.06705034       0.61025192
C        0.66798837       0.11485930      -0.26704125
C       -0.01454964      -0.84164295      -1.16420651
C       -0.76893379      -0.13846015      -0.16838687
O       -1.35476821      -1.20036429       0.84332805
C       -1.03959400       1.34022739      -0.19748503
O        0.34222135       1.54686593      -0.53342311
H        2.75842850       0.22874323       0.06510857
H        1.96593105      -1.11669944       0.88184986
H        1.79234157       0.54419515       1.51231077
H       -0.15669141      -0.68949170      -2.23021019
H       -0.77058849      -1.83161217       0.23887128
H       -2.27621361      -1.37646477       0.59731139
H       -1.73107084       1.70158265      -0.96273453
H       -1.27422092       1.78531220       0.77445571
15
Frame=1 idx=010850 GeodesicLength=0.08760572741624509 rxn_smarts="[C:1]([C@@:2]12[C:3]([H:11])([H:12])[C@:4]1([O:5][H:13])[C:6]([H:14])([H:15])[O:7]2)([H:8])([H:9])[H:10]>>[C:1]([C@@:2]12[C:3]([H:11])=[C:4]1[C:6]([H:14])([H:15])[O:7]2)([H:8])([H:9])[H:10].[O:5]([H:12])[H:13]"
C        1.85810777      -0.06877676       0.60945743
C        0.66553458       0.12161157      -0.26452645
C       -0.01859712      -0.83643773      -1.16135267
C       -0.77255173      -0.13171640      -0.16776928
O       -1.35858033      -1.20937771       0.85721134
C       -1.03953289       1.34690821      -0.20171302
O        0.34483698       1.55030351      -0.53453385
H        2.75768510       0.22769058       0.06614792
H        1.96289347      -1.12027468       0.87461726
H        1.79125208       0.53634520       1.51565292
H       -0.15940235      -0.69008761      -2.22833447
H       -0.75253224      -1.84110210       0.24066719
H       -2.27540801      -1.38396088       0.59580314
H       -1.72734666       1.70685128      -0.97079397
H       -1.27635864       1.79202353       0.76946652
15
Frame=2 idx=010850 GeodesicLength=0.17521427536399237 rxn_smarts="[C:1]([C@@:2]12[C:3]([H:11])([H:12])[C@:4]1([O:5][H:13])[C:6]([H:14])([H:15])[O:7]2)([H:8])([H:9])[H:10]>>[C:1]([C@@:2]12[C:3]([H:11])=[C:4]1[C:6]([H:14])([H:15])[O:7]2)([H:8])([H:9])[H:10].[O:5]([H:12])[H:13]"
C        1.85639618      -0.07051622       0.60869018
C        0.66302535       0.12834838      -0.26195686
C       -0.02270423      -0.83121693      -1.15848437
C       -0.77624789      -0.12488148      -0.16722365
O       -1.36237902      -1.21863790       0.87132073
C       -1.03944991       1.35367148      -0.20601141
O        0.34747992       1.55372643      -0.53567889
H        2.75686052       0.22663616       0.06725818
H        1.95977724      -1.12383050       0.86735458
H        1.79001201       0.52839772       1.51901386
H       -0.16208467      -0.69070501      -2.22642790
H       -0.73421069      -1.85070718       0.24199025
H       -2.27443046      -1.39129907       0.59467973
H       -1.72355223       1.71220651      -0.97892631
H       -1.27849211       1.79880761       0.76440188
15
Frame=3 idx=010850 GeodesicLength=0.26281834137651905 rxn_smarts="[C:1]([C@@:2]12[C:3]([H:11])([H:12])[C@:4]1([O:5][H:13])[C:6]([H:14])([H:15])[O:7]2)([H:8])([H:9])[H:10]>>[C:1]([C@@:2]12[C:3]([H:11])=[C:4]1[C:6]([H:14])([H:15])[O:7]2)([H:8])([H:9])[H:10].[O:5]([H:12])[H:13]"
C        1.85458043      -0.07226354       0.60795441
C        0.66045952       0.13506653      -0.25933251
C       -0.02686940      -0.82598183      -1.15560506
C       -0.78002154      -0.11795676      -0.16675551
O       -1.36616165      -1.22814965       0.88566461
C       -1.03934055       1.36051580      -0.21037486
O        0.35015012       1.55712860      -0.53686409
H        2.75595274       0.22555957       0.06843682
H        1.95656288      -1.12735417       0.86009650
H        1.78862703       0.52038838       1.52237747
H       -0.16473853      -0.69134445      -2.22449185
H       -0.71562120      -1.86044674       0.24279294
H       -2.27328250      -1.39846599       0.59394687
H       -1.71969012       1.71764674      -0.98711761
H       -1.28060724       1.80565751       0.75927187
15
Frame=4 idx=010850 GeodesicLength=0.35042189884213004 rxn_smarts="[C:1]([C@@:2]12[C:3]([H:11])([H:12])[C@:4]1([O:5][H:13])[C:6]([H:14])([H:15])[O:7]2)([H:8])([H:9])[H:10]>>[C:1]([C@@:2]12[C:3]([H:11])=[C:4]1[C:6]([H:14])([H:15])[O:7]2)([H:8])([H:9])[H:10].[O:5]([H:12])[H:13]"
C        1.85266003      -0.07401910       0.60725279
C        0.65783477       0.14176575      -0.25665100
C       -0.03109737      -0.82073151      -1.15271295
C       -0.78387640      -0.11093883      -0.16636473
O       -1.36993399      -1.23791358       0.90026047
C       -1.03920413       1.36744522      -0.21480660
O        0.35284999       1.56050901      -0.53809130
H        2.75496203       0.22446104       0.06968617
H        1.95325273      -1.13084626       0.85284541
H        1.78709627       0.51231603       1.52574630
H       -0.16736947      -0.69200531      -2.22252462
H       -0.69674481      -1.87033499       0.24305352
H       -2.27196785      -1.40546474       0.59360795
H       -1.71575839       1.72317635      -0.99537327
H       -1.28270342       1.81258092       0.75407184
15
Frame=5 idx=010850 GeodesicLength=0.4380234448548595 rxn_smarts="[C:1]([C@@:2]12[C:3]([H:11])([H:12])[C@:4]1([O:5][H:13])[C:6]([H:14])([H:15])[O:7]2)([H:8])([H:9])[H:10]>>[C:1]([C@@:2]12[C:3]([H:11])=[C:4]1[C:6]([H:14])([H:15])[O:7]2)([H:8])([H:9])[H:10].[O:5]([H:12])[H:13]"
C        1.85063089      -0.07578337       0.60658774
C        0.65514757       0.14844534      -0.25390986
C       -0.03539268      -0.81546516      -1.14980633
C       -0.78781528      -0.10382435      -0.16605144
O       -1.37369615      -1.24792889       0.91512757
C       -1.03903901       1.37446283      -0.21930946
O        0.35558098       1.56386525      -0.53936052
H        2.75388429       0.22333923       0.07100932
H        1.94984430      -1.13430664       0.84560334
H        1.78541471       0.50418047       1.52912181
H       -0.16998163      -0.69268782      -2.22052343
H       -0.67756307      -1.88038627       0.24274159
H       -2.27048284      -1.41229374       0.59367096
H       -1.71175235       1.72879785      -1.00369792
H       -1.28477974       1.81958529       0.74879662
15
Frame=6 idx=010850 GeodesicLength=0.5256229140731506 rxn_smarts="[C:1]([C@@:2]12[C:3]([H:11])([H:12])[C@:4]1([O:5][H:13])[C:6]([H:14])([H:15])[O:7]2)([H:8])([H:9])[H:10]>>[C:1]([C@@:2]12[C:3]([H:11])=[C:4]1[C:6]([H:14])([H:15])[O:7]2)([H:8])([H:9])[H:10].[O:5]([H:12])[H:13]"
C        1.84848922      -0.07755710       0.60596204
C        0.65239430       0.15510458      -0.25110659
C       -0.03976045      -0.81018209      -1.14688334
C       -0.79184161      -0.09660961      -0.16581592
O       -1.37745016      -1.25819384       0.93028691
C       -1.03884365       1.38157226      -0.22388680
O        0.35834489       1.56719502      -0.54067243
H        2.75271599       0.22219353       0.07241000
H        1.94633612      -1.13773572       0.83837196
H        1.78357722       0.49598036       1.53250633
H       -0.17257979      -0.69339222      -2.21848562
H       -0.65805584      -1.89061509       0.24182573
H       -2.26882334      -1.41895334       0.59414398
H       -1.70766771       1.73451446      -1.01209684
H       -1.28683520       1.82667879       0.74344059
15
Frame=7 idx=010850 GeodesicLength=0.6132203257587594 rxn_smarts="[C:1]([C@@:2]12[C:3]([H:11])([H:12])[C@:4]1([O:5][H:13])[C:6]([H:14])([H:15])[O:7]2)([H:8])([H:9])[H:10]>>[C:1]([C@@:2]12[C:3]([H:11])=[C:4]1[C:6]([H:14])([H:15])[O:7]2)([H:8])([H:9])[H:10].[O:5]([H:12])[H:13]"
C        1.84623071      -0.07934133       0.60537873
C        0.64957096       0.16174275      -0.24823859
C       -0.04420636      -0.80488153      -1.14394193
C       -0.79595920      -0.08929048      -0.16565850
O       -1.38119834      -1.26870545       0.94576171
C       -1.03861650       1.38877745      -0.22854244
O        0.36114361       1.57049591      -0.54202763
H        2.75145321       0.22102348       0.07389265
H        1.94272650      -1.14113436       0.83115250
H        1.78157774       0.48771341       1.53590285
H       -0.17516918      -0.69411882      -2.21640836
H       -0.63820153      -1.90103613       0.24027144
H       -2.26698303      -1.42544495       0.59503626
H       -1.70349971       1.74032969      -1.02057608
H       -1.28886889       1.83387036       0.73799739
15
Frame=8 idx=010850 GeodesicLength=0.7008156567350236 rxn_smarts="[C:1]([C@@:2]12[C:3]([H:11])([H:12])[C@:4]1([O:5][H:13])[C:6]([H:14])([H:15])[O:7]2)([H:8])([H:9])[H:10]>>[C:1]([C@@:2]12[C:3]([H:11])=[C:4]1[C:6]([H:14])([H:15])[O:7]2)([H:8])([H:9])[H:10].[O:5]([H:12])[H:13]"
C        1.84385047      -0.08113749       0.60484112
C        0.64667316       0.16835898      -0.24530318
C       -0.04873672      -0.79956284      -1.14097982
C       -0.80017228      -0.08186242      -0.16557962
O       -1.38494344      -1.27945898       0.96157773
C       -1.03835588       1.39608268      -0.23328078
O        0.36397918       1.57376527      -0.54342684
H        2.75009147       0.21982957       0.07546289
H        1.93901406      -1.14450400       0.82394484
H        1.77940865       0.47937555       1.53931533
H       -0.17775551      -0.69486817      -2.21428856
H       -0.61797698      -1.91166414       0.23804118
H       -2.26495318      -1.43177110       0.59635835
H       -1.69924312       1.74624728      -1.02914246
H       -1.29087989       1.84116981       0.73245982
15
Frame=9 idx=010850 GeodesicLength=0.7884090696895069 rxn_smarts="[C:1]([C@@:2]12[C:3]([H:11])([H:12])[C@:4]1([O:5][H:13])[C:6]([H:14])([H:15])[O:7]2)([H:8])([H:9])[H:10]>>[C:1]([C@@:2]12[C:3]([H:11])=[C:4]1[C:6]([H:14])([H:15])[O:7]2)([H:8])([H:9])[H:10].[O:5]([H:12])[H:13]"
C        1.84134294      -0.08294726       0.60435291
C        0.64369606       0.17495230      -0.24229753
C       -0.05335835      -0.79422526      -1.13799471
C       -0.80448551      -0.07432060      -0.16557988
O       -1.38868870      -1.29044844       0.97776312
C       -1.03806008       1.40349245      -0.23810643
O        0.36685364       1.57700023      -0.54487077
H        2.74862588       0.21861107       0.07712660
H        1.93519620      -1.14784610       0.81675015
H        1.77706200       0.47096318       1.54274759
H       -0.18034479      -0.69564067      -2.21212307
H       -0.59735701      -1.92251424       0.23509298
H       -2.26272271      -1.43793522       0.59812181
H       -1.69489243       1.75227121      -1.03780312
H       -1.29286715       1.84858735       0.72682036
15
Frame=10 idx=010850 GeodesicLength=0.8760011252313782 rxn_smarts="[C:1]([C@@:2]12[C:3]([H:11])([H:12])[C@:4]1([O:5][H:13])[C:6]([H:14])([H:15])[O:7]2)([H:8])([H:9])[H:10]>>[C:1]([C@@:2]12[C:3]([H:11])=[C:4]1[C:6]([H:14])([H:15])[O:7]2)([H:8])([H:9])[H:10].[O:5]([H:12])[H:13]"
C        1.83870193      -0.08477270       0.60391820
C        0.64063440       0.18152167      -0.23921877
C       -0.05807859      -0.78886805      -1.13498425
C       -0.80890403      -0.06665979      -0.16566010
O       -1.39243800      -1.30166591       0.99434913
C       -1.03772741       1.41101161      -0.24302438
O        0.36976901       1.58019771      -0.54636042
H        2.74705122       0.21736635       0.07889017
H        1.93126936      -1.15116248       0.80957043
H        1.77452911       0.46247263       1.54620370
H       -0.18294317      -0.69643674      -2.20990878
H       -0.57631439      -1.93360185       0.23138030
H       -2.26027772      -1.44394225       0.60033923
H       -1.69044214       1.75840588      -1.04656549
H       -1.29482959       1.85613391       0.72107103
15
Frame=11 idx=010850 GeodesicLength=0.9635888939032662 rxn_smarts="[C:1]([C@@:2]12[C:3]([H:11])([H:12])[C@:4]1([O:5][H:13])[C:6]([H:14])([H:15])[O:7]2)([H:8])([H:9])[H:10]>>[C:1]([C@@:2]12[C:3]([H:11])=[C:4]1[C:6]([H:14])([H:15])[O:7]2)([H:8])([H:9])[H:10].[O:5]([H:12])[H:13]"
C        1.83592089      -0.08661595       0.60354117
C        0.63748239       0.18806578      -0.23606366
C       -0.06290592      -0.78349135      -1.13194483
C       -0.81343369      -0.05887439      -0.16582108
O       -1.39619861      -1.31310137       1.01136798
C       -1.03735573       1.41864536      -0.24803988
O        0.37272775       1.58335422      -0.54789715
H        2.74536171       0.21609580       0.08076108
H        1.92723143      -1.15445530       0.80240530
H        1.77180025       0.45389804       1.54968860
H       -0.18555827      -0.69725792      -2.20764109
H       -0.55481751      -1.94494154       0.22685603
H       -2.25760345      -1.44979876       0.60302122
H       -1.68588640       1.76465610      -1.05543693
H       -1.29676484       1.86382129       0.71520325
15
Frame=12 idx=010850 GeodesicLength=1.0511765226565088 rxn_smarts="[C:1]([C@@:2]12[C:3]([H:11])([H:12])[C@:4]1([O:5][H:13])[C:6]([H:14])([H:15])[O:7]2)([H:8])([H:9])[H:10]>>[C:1]([C@@:2]12[C:3]([H:11])=[C:4]1[C:6]([H:14])([H:15])[O:7]2)([H:8])([H:9])[H:10].[O:5]([H:12])[H:13]"
C        1.83299249      -0.08847654       0.60322785
C        0.63423588       0.19458135      -0.23283124
C       -0.06784402      -0.77809710      -1.12887678
C       -0.81807741      -0.05096121      -0.16606832
O       -1.39998052      -1.32473866       1.02885480
C       -1.03694097       1.42639622      -0.25315433
O        0.37573126       1.58646257      -0.54948836
H        2.74355267       0.21479408       0.08274753
H        1.92307419      -1.15772146       0.79527124
H        1.76886926       0.44525178       1.55320092
H       -0.18819286      -0.69810728      -2.20531944
H       -0.53284560      -1.95655370       0.22145104
H       -2.25468585      -1.45550369       0.60618068
H       -1.68122791       1.77102070      -1.06441336
H       -1.29866062       1.87165293       0.70921778
15
Frame=13 idx=010850 GeodesicLength=1.1387581021466027 rxn_smarts="[C:1]([C@@:2]12[C:3]([H:11])([H:12])[C@:4]1([O:5][H:13])[C:6]([H:14])([H:15])[O:7]2)([H:8])([H:9])[H:10]>>[C:1]([C@@:2]12[C:3]([H:11])=[C:4]1[C:6]([H:14])([H:15])[O:7]2)([H:8])([H:9])[H:10].[O:5]([H:12])[H:13]"
C        1.82990512      -0.09036124       0.60298321
C        0.63088497       0.20106857      -0.22951605
C       -0.07290809      -0.77268101      -1.12577532
C       -0.82284457      -0.04291143      -0.16639878
O       -1.40378052      -1.33656552       1.04685615
C       -1.03648262       1.43427116      -0.25837852
O        0.37878199       1.58952075      -0.55112743
H        2.74161226       0.21345867       0.08485908
H        1.91879026      -1.16096863       0.78815916
H        1.76571773       0.43651265       1.55675223
H       -0.19085987      -0.69898201      -2.20293788
H       -0.51035110      -1.96844886       0.21510729
H       -2.25149089      -1.46107126       0.60983993
H       -1.67644871       1.77750862      -1.07351727
H       -1.30052594       1.87964955       0.70309421
15
Frame=14 idx=010850 GeodesicLength=1.2263408011916455 rxn_smarts="[C:1]([C@@:2]12[C:3]([H:11])([H:12])[C@:4]1([O:5][H:13])[C:6]([H:14])([H:15])[O:7]2)([H:8])([H:9])[H:10]>>[C:1]([C@@:2]12[C:3]([H:11])=[C:4]1[C:6]([H:14])([H:15])[O:7]2)([H:8])([H:9])[H:10].[O:5]([H:12])[H:13]"
C        1.82665058      -0.09227503       0.60281299
C        0.62742269       0.20752543      -0.22611537
C       -0.07810889      -0.76724401      -1.12263637
C       -0.82774352      -0.03471736      -0.16681428
O       -1.40761007      -1.34855817       1.06542312
C       -1.03597918       1.44227819      -0.26372141
O        0.38188333       1.59252532      -0.55281719
H        2.73953482       0.21209559       0.08711052
H        1.91438173      -1.16420377       0.78106131
H        1.76232698       0.42766305       1.56035337
H       -0.19356847      -0.69988347      -2.20049175
H       -0.48729452      -1.98064400       0.20775924
H       -2.24799284      -1.46651758       0.61401773
H       -1.67154222       1.78412774      -1.08276118
H       -1.30236042       1.88782807       0.69681927
15
Frame=15 idx=010850 GeodesicLength=1.3139234493987249 rxn_smarts="[C:1]([C@@:2]12[C:3]([H:11])([H:12])[C@:4]1([O:5][H:13])[C:6]([H:14])([H:15])[O:7]2)([H:8])([H:9])[H:10]>>[C:1]([C@@:2]12[C:3]([H:11])=[C:4]1[C:6]([H:14])([H:15])[O:7]2)([H:8])([H:9])[H:10].[O:5]([H:12])[H:13]"
C        1.82321624      -0.09422262       0.60272420
C        0.62384011       0.21394950      -0.22262564
C       -0.08345844      -0.76178566      -1.11945694
C       -0.83278216      -0.02637195      -0.16731666
O       -1.41147615      -1.36069136       1.08460955
C       -1.03542775       1.45042270      -0.26919061
O        0.38503745       1.59547015      -0.55455832
H        2.73730963       0.21070069       0.08951468
H        1.90983885      -1.16743055       0.77398075
H        1.75867952       0.41869486       1.56401136
H       -0.19632873      -0.70081215      -2.19797688
H       -0.46363116      -1.99315432       0.19932454
H       -2.24415682      -1.47185448       0.61873511
H       -1.66649914       1.79088241      -1.09215598
H       -1.30416144       1.89620280       0.69038084
15
Frame=16 idx=010850 GeodesicLength=1.401506764004726 rxn_smarts="[C:1]([C@@:2]12[C:3]([H:11])([H:12])[C@:4]1([O:5][H:13])[C:6]([H:14])([H:15])[O:7]2)([H:8])([H:9])[H:10]>>[C:1]([C@@:2]12[C:3]([H:11])=[C:4]1[C:6]([H:14])([H:15])[O:7]2)([H:8])([H:9])[H:10].[O:5]([H:12])[H:13]"
C        1.81958886      -0.09620995       0.60272466
C        0.62012769       0.22033796      -0.21904320
C       -0.08897011      -0.75630599      -1.11623340
C       -0.83796965      -0.01786745      -0.16790782
O       -1.41538853      -1.37293407       1.10447703
C       -1.03482582       1.45871095      -0.27479516
O        0.38824687       1.59834898      -0.55635194
H        2.73492597       0.20927146       0.09208729
H        1.90515328      -1.17065452       0.76691821
H        1.75475485       0.40959549       1.56773535
H       -0.19915214      -0.70176857      -2.19538857
H       -0.43931091      -2.00599496       0.18971223
H       -2.23994336      -1.47709725       0.62401517
H       -1.66131000       1.79777793      -1.10171459
H       -1.30592702       1.90478999       0.68376475
