11
Frame=0 idx=009449 GeodesicLength=0.0 rxn_smarts="[O:1]([c+:2]1[n-:3][c:4]([O:5][H:9])[c:6]([H:10])[n:7]1[H:11])[H:8]>>[O:1]=[C:2](/[N:3]=[C:4]([O:5][H:9])\[C:6](=[N:7]\[H:11])[H:10])[H:8]"
O       -2.34297530       0.81127932      -0.54203084
C       -1.13391630       0.41566693      -0.14348882
N        0.02887631       1.15838166      -0.09843141
C        1.02261643       0.29862286      -0.00298831
O        2.30241357       0.66192449       0.15966015
C        0.58131415      -1.02524344      -0.03962247
N       -0.75122665      -0.94083932      -0.14742103
H       -1.74980445       0.64258918       0.81401633
H        2.33160855       1.62379975       0.13876488
H        1.11902571      -1.94848933       0.09666384
H       -1.40793201      -1.69769210      -0.23512233
11
Frame=1 idx=009449 GeodesicLength=0.09087161432726334 rxn_smarts="[O:1]([c+:2]1[n-:3][c:4]([O:5][H:9])[c:6]([H:10])[n:7]1[H:11])[H:8]>>[O:1]=[C:2](/[N:3]=[C:4]([O:5][H:9])\[C:6](=[N:7]\[H:11])[H:10])[H:8]"
O       -2.33968503       0.81592889      -0.54669907
C       -1.13716500       0.42249038      -0.14253331
N        0.02871173       1.15751249      -0.10574401
C        1.02120359       0.29657763      -0.01031836
O        2.30022463       0.65865141       0.16106186
C        0.58210427      -1.03041228      -0.02755947
N       -0.75126001      -0.95438533      -0.12233257
H       -1.77065998       0.68285523       0.80957446
H        2.32796530       1.62081621       0.15399433
H        1.13530642      -1.95110484       0.05683022
H       -1.39674591      -1.71892979      -0.22627408
11
Frame=2 idx=009449 GeodesicLength=0.18163500833606902 rxn_smarts="[O:1]([c+:2]1[n-:3][c:4]([O:5][H:9])[c:6]([H:10])[n:7]1[H:11])[H:8]>>[O:1]=[C:2](/[N:3]=[C:4]([O:5][H:9])\[C:6](=[N:7]\[H:11])[H:10])[H:8]"
O       -2.33535220       0.82072827      -0.55255467
C       -1.14032997       0.42930117      -0.14042755
N        0.02837273       1.15656738      -0.10834075
C        1.01945157       0.29431779      -0.01320092
O        2.29853415       0.65519857       0.16041483
C        0.58295197      -1.03575716      -0.01294294
N       -0.75077682      -0.96805299      -0.09815420
H       -1.79339384       0.72236857       0.80397955
H        2.32507787       1.61745408       0.16440828
H        1.14959388      -1.95185468       0.01673350
H       -1.38412934      -1.74027097      -0.21991513
11
Frame=3 idx=009449 GeodesicLength=0.27231456212896576 rxn_smarts="[O:1]([c+:2]1[n-:3][c:4]([O:5][H:9])[c:6]([H:10])[n:7]1[H:11])[H:8]>>[O:1]=[C:2](/[N:3]=[C:4]([O:5][H:9])\[C:6](=[N:7]\[H:11])[H:10])[H:8]"
O       -2.33099347       0.82551421      -0.55770100
C       -1.14351288       0.43609478      -0.13759936
N        0.02795795       1.15554842      -0.10934233
C        1.01763889       0.29192869      -0.01533036
O        2.29688031       0.65159447       0.15975355
C        0.58432070      -1.04123754      -0.00132053
N       -0.74981466      -0.98197223      -0.07594061
H       -1.81615068       0.76159165       0.79805006
H        2.32243133       1.61383278       0.17346934
H        1.16190491      -1.95106080      -0.02010582
H       -1.37066239      -1.76183444      -0.21393294
11
Frame=4 idx=009449 GeodesicLength=0.36296121448432295 rxn_smarts="[O:1]([c+:2]1[n-:3][c:4]([O:5][H:9])[c:6]([H:10])[n:7]1[H:11])[H:8]>>[O:1]=[C:2](/[N:3]=[C:4]([O:5][H:9])\[C:6](=[N:7]\[H:11])[H:10])[H:8]"
O       -2.32671465       0.83056915      -0.56179990
C       -1.14678552       0.44299748      -0.13398726
N        0.02739418       1.15456496      -0.10874900
C        1.01573339       0.28950505      -0.01723960
O        2.29520724       0.64788435       0.15894754
C        0.58608498      -1.04681755       0.00680541
N       -0.74839450      -0.99619026      -0.05640527
H       -1.83884535       0.80050263       0.79203441
H        2.31997813       1.61002334       0.18136834
H        1.17292709      -1.94939374      -0.05245631
H       -1.35658500      -1.78364541      -0.20851838
11
Frame=5 idx=009449 GeodesicLength=0.4536722885657518 rxn_smarts="[O:1]([c+:2]1[n-:3][c:4]([O:5][H:9])[c:6]([H:10])[n:7]1[H:11])[H:8]>>[O:1]=[C:2](/[N:3]=[C:4]([O:5][H:9])\[C:6](=[N:7]\[H:11])[H:10])[H:8]"
O       -2.32248413       0.83574870      -0.56524668
C       -1.15017993       0.45001904      -0.12959936
N        0.02669548       1.15357710      -0.10695437
C        1.01371515       0.28703739      -0.01876855
O        2.29346100       0.64411716       0.15821623
C        0.58817298      -1.05259269       0.01257614
N       -0.74656839      -1.01082217      -0.03891282
H       -1.86157094       0.83985409       0.78564257
H        2.31761887       1.60609755       0.18841667
H        1.18315330      -1.94716958      -0.08229431
H       -1.34201339      -1.80586659      -0.20307551
11
Frame=6 idx=009449 GeodesicLength=0.5443839371260265 rxn_smarts="[O:1]([c+:2]1[n-:3][c:4]([O:5][H:9])[c:6]([H:10])[n:7]1[H:11])[H:8]>>[O:1]=[C:2](/[N:3]=[C:4]([O:5][H:9])\[C:6](=[N:7]\[H:11])[H:10])[H:8]"
O       -2.31824376       0.84111658      -0.56803703
C       -1.15375087       0.45718835      -0.12423057
N        0.02580683       1.15259845      -0.10362319
C        1.01153461       0.28453970      -0.01976057
O        2.29167120       0.64027730       0.15734599
C        0.59043259      -1.05850731       0.01667648
N       -0.74438895      -1.02593826      -0.02352375
H       -1.88448300       0.87979325       0.77886998
H        2.31542976       1.60207913       0.19412247
H        1.19293428      -1.94460478      -0.10950773
H       -1.32694268      -1.82854241      -0.19833209
11
Frame=7 idx=009449 GeodesicLength=0.6350956787380112 rxn_smarts="[O:1]([c+:2]1[n-:3][c:4]([O:5][H:9])[c:6]([H:10])[n:7]1[H:11])[H:8]>>[O:1]=[C:2](/[N:3]=[C:4]([O:5][H:9])\[C:6](=[N:7]\[H:11])[H:10])[H:8]"
O       -2.31405609       0.84643869      -0.57022459
C       -1.15752278       0.46446691      -0.11786401
N        0.02474886       1.15155195      -0.09942658
C        1.00919607       0.28197827      -0.02049764
O        2.28980396       0.63639609       0.15610684
C        0.59286952      -1.06459122       0.01943714
N       -0.74187435      -1.04162300      -0.00971002
H       -1.90739435       0.92100021       0.77147973
H        2.31318284       1.59796642       0.19957702
H        1.20244165      -1.94178468      -0.13512059
H       -1.31139535      -1.85179965      -0.19375730
11
Frame=8 idx=009449 GeodesicLength=0.7258422943482538 rxn_smarts="[O:1]([c+:2]1[n-:3][c:4]([O:5][H:9])[c:6]([H:10])[n:7]1[H:11])[H:8]>>[O:1]=[C:2](/[N:3]=[C:4]([O:5][H:9])\[C:6](=[N:7]\[H:11])[H:10])[H:8]"
O       -2.30995509       0.85163574      -0.57172924
C       -1.16153542       0.47185076      -0.11036069
N        0.02349972       1.15042915      -0.09455911
C        1.00667842       0.27934178      -0.02108274
O        2.28783013       0.63249074       0.15440174
C        0.59544994      -1.07085149       0.02107669
N       -0.73903904      -1.05795371       0.00264968
H       -1.93020319       0.96385499       0.76336722
H        2.31078664       1.59376920       0.20502301
H        1.21182732      -1.93882390      -0.15932009
H       -1.29533944      -1.87574326      -0.18946648
11
Frame=9 idx=009449 GeodesicLength=0.8164980500767455 rxn_smarts="[O:1]([c+:2]1[n-:3][c:4]([O:5][H:9])[c:6]([H:10])[n:7]1[H:11])[H:8]>>[O:1]=[C:2](/[N:3]=[C:4]([O:5][H:9])\[C:6](=[N:7]\[H:11])[H:10])[H:8]"
O       -2.30584798       0.85655027      -0.57270001
C       -1.16580727       0.47928822      -0.10156646
N        0.02203646       1.14907877      -0.08897166
C        1.00395964       0.27658003      -0.02118782
O        2.28570715       0.62855914       0.15264135
C        0.59817174      -1.07732649       0.02176386
N       -0.73588240      -1.07497107       0.01394729
H       -1.95297530       1.00871128       0.75410370
H        2.30825417       1.58949009       0.21021957
H        1.22113660      -1.93558067      -0.18311473
H       -1.27875282      -1.90037957      -0.18513509
11
Frame=10 idx=009449 GeodesicLength=0.9071650007924212 rxn_smarts="[O:1]([c+:2]1[n-:3][c:4]([O:5][H:9])[c:6]([H:10])[n:7]1[H:11])[H:8]>>[O:1]=[C:2](/[N:3]=[C:4]([O:5][H:9])\[C:6](=[N:7]\[H:11])[H:10])[H:8]"
O       -2.30183447       0.86116118      -0.57283917
C       -1.17039647       0.48679669      -0.09126927
N        0.02033477       1.14755997      -0.08282594
C        1.00100661       0.27370226      -0.02100891
O        2.28338986       0.62462992       0.15061036
C        0.60100308      -1.08401173       0.02163033
N       -0.73242380      -1.09276157       0.02398010
H       -1.97548959       1.05583896       0.74369772
H        2.30550142       1.58515705       0.21529398
H        1.23047780      -1.93222837      -0.20599333
H       -1.26156921      -1.92584435      -0.18127587
11
Frame=11 idx=009449 GeodesicLength=0.9978224582178128 rxn_smarts="[O:1]([c+:2]1[n-:3][c:4]([O:5][H:9])[c:6]([H:10])[n:7]1[H:11])[H:8]>>[O:1]=[C:2](/[N:3]=[C:4]([O:5][H:9])\[C:6](=[N:7]\[H:11])[H:10])[H:8]"
O       -2.29786734       0.86539715      -0.57209100
C       -1.17534615       0.49435840      -0.07921779
N        0.01834900       1.14581033      -0.07595451
C        0.99778241       0.27067544      -0.02027190
O        2.28082674       0.62068875       0.14865990
C        0.60392098      -1.09093227       0.02080154
N       -0.72867861      -1.11138188       0.03279400
H       -1.99772395       1.10546904       0.73184021
H        2.30256070       1.58081088       0.21972827
H        1.23990741      -1.92872295      -0.22824474
H       -1.24373119      -1.95217288      -0.17804398
11
Frame=12 idx=009449 GeodesicLength=1.0884772360889967 rxn_smarts="[O:1]([c+:2]1[n-:3][c:4]([O:5][H:9])[c:6]([H:10])[n:7]1[H:11])[H:8]>>[O:1]=[C:2](/[N:3]=[C:4]([O:5][H:9])\[C:6](=[N:7]\[H:11])[H:10])[H:8]"
O       -2.29389675       0.86921235      -0.57035689
C       -1.18070134       0.50196841      -0.06513918
N        0.01603433       1.14379157      -0.06813062
C        0.99424758       0.26747565      -0.01868934
O        2.27796718       0.61672104       0.14714641
C        0.60689080      -1.09811340       0.01938260
N       -0.72467225      -1.13088940       0.04035064
H       -2.01961110       1.15775945       0.71821170
H        2.29946774       1.57652459       0.22291178
H        1.24946302      -1.92503933      -0.25001503
H       -1.22518920      -1.97941094      -0.17567207
11
Frame=13 idx=009449 GeodesicLength=1.1791130308416375 rxn_smarts="[O:1]([c+:2]1[n-:3][c:4]([O:5][H:9])[c:6]([H:10])[n:7]1[H:11])[H:8]>>[O:1]=[C:2](/[N:3]=[C:4]([O:5][H:9])\[C:6](=[N:7]\[H:11])[H:10])[H:8]"
O       -2.29000379       0.87238621      -0.56743786
C       -1.18648913       0.50962260      -0.04887594
N        0.01337148       1.14146890      -0.05975571
C        0.99038657       0.26408315      -0.01645075
O        2.27476647       0.61274601       0.14594483
C        0.60992077      -1.10554577       0.01722665
N       -0.72039070      -1.15129984       0.04681660
H       -2.04080779       1.21302662       0.70234618
H        2.29604337       1.57227104       0.22564460
H        1.25913132      -1.92111947      -0.27179499
H       -1.20592858      -2.00763945      -0.17366361
11
Frame=14 idx=009449 GeodesicLength=1.2697320978545672 rxn_smarts="[O:1]([c+:2]1[n-:3][c:4]([O:5][H:9])[c:6]([H:10])[n:7]1[H:11])[H:8]>>[O:1]=[C:2](/[N:3]=[C:4]([O:5][H:9])\[C:6](=[N:7]\[H:11])[H:10])[H:8]"
O       -2.28611282       0.87496366      -0.56316451
C       -1.19274928       0.51735224      -0.03012898
N        0.01031408       1.13881876      -0.05033566
C        0.98615056       0.26047532      -0.01306140
O        2.27115926       0.60871903       0.14577006
C        0.61293621      -1.11324109       0.01448894
N       -0.71589778      -1.17263866       0.05199100
H       -2.06122095       1.27112016       0.68389083
H        2.29241529       1.56818268       0.22659874
H        1.26891577      -1.91690258      -0.29351825
H       -1.18591033      -2.03684952      -0.17253078
11
Frame=15 idx=009449 GeodesicLength=1.3603119790965523 rxn_smarts="[O:1]([c+:2]1[n-:3][c:4]([O:5][H:9])[c:6]([H:10])[n:7]1[H:11])[H:8]>>[O:1]=[C:2](/[N:3]=[C:4]([O:5][H:9])\[C:6](=[N:7]\[H:11])[H:10])[H:8]"
O       -2.28226631       0.87684654      -0.55731958
C       -1.19949256       0.52520561      -0.00877191
N        0.00684417       1.13582762      -0.03993141
C        0.98151670       0.25664150      -0.00844919
O        2.26709839       0.60462228       0.14687566
C        0.61590134      -1.12116745       0.01108199
N       -0.71122087      -1.19486431       0.05591130
H       -2.08052938       1.33193296       0.66234457
H        2.28852743       1.56427187       0.22580422
H        1.27875769      -1.91226963      -0.31556128
H       -1.16513659      -2.06704698      -0.17198437
11
Frame=16 idx=009449 GeodesicLength=1.4508634798323061 rxn_smarts="[O:1]([c+:2]1[n-:3][c:4]([O:5][H:9])[c:6]([H:10])[n:7]1[H:11])[H:8]>>[O:1]=[C:2](/[N:3]=[C:4]([O:5][H:9])\[C:6](=[N:7]\[H:11])[H:10])[H:8]"
O       -2.27858762       0.87799158      -0.54957687
C       -1.20670666       0.53327843       0.01521979
N        0.00295120       1.13251199      -0.02874811
C        0.97646692       0.25258880      -0.00267124
O        2.26254132       0.60045623       0.14943677
C        0.61876623      -1.12927287       0.00692629
N       -0.70639650      -1.21789905       0.05857568
H       -2.09831813       1.39516653       0.63728924
H        2.28430397       1.56052218       0.22344389
H        1.28858487      -1.90713196      -0.33811326
H       -1.14360559      -2.09821186      -0.17178218
