16
Frame=0 idx=008321 GeodesicLength=0.0 rxn_smarts="[N:1](=[C:2]1/[C:3]([H:9])([H:10])[C:4]([H:11])([H:12])[C:5]([H:13])([H:14])[C:6]([H:15])([H:16])[O:7]1)\[H:8]>>[N:1]1([H:8])[C:2](=[O:7])[C:3]([H:9])([H:10])[C:4]([H:11])([H:12])[C@@:5]1([C:6]([H:13])([H:15])[H:16])[H:14]"
N        1.46425703       0.46778816       1.30956640
C        1.38303383       0.35203207       0.01267499
C        0.97252591      -1.05177857      -0.43930770
C       -0.46231160      -1.22676317       0.13634217
C       -0.95637037       0.15796429       0.47464462
C       -1.00261976       1.12080213      -0.54341731
O        1.30184016       1.28015648      -0.84473113
H        1.58514292       1.45753634       1.52555009
H        0.97635431      -1.10905649      -1.52696135
H        1.62672537      -1.82246835      -0.03684375
H       -0.44828325      -1.82244040       1.04582555
H       -1.13084587      -1.71582835      -0.57704762
H       -2.08444691       0.46579575      -0.14125434
H       -1.14445553       0.46213841       1.49562489
H       -1.20507165       2.15898560      -0.31665113
H       -0.87547462       0.82513610      -1.57401434
16
Frame=1 idx=008321 GeodesicLength=0.05537009725615523 rxn_smarts="[N:1](=[C:2]1/[C:3]([H:9])([H:10])[C:4]([H:11])([H:12])[C:5]([H:13])([H:14])[C:6]([H:15])([H:16])[O:7]1)\[H:8]>>[N:1]1([H:8])[C:2](=[O:7])[C:3]([H:9])([H:10])[C:4]([H:11])([H:12])[C@@:5]1([C:6]([H:13])([H:15])[H:16])[H:14]"
N        1.45059389       0.47685680       1.30209815
C        1.39188656       0.34606970       0.00501149
C        0.97316996      -1.05721556      -0.43711496
C       -0.45860366      -1.22964027       0.14113391
C       -0.95423062       0.15602449       0.47372054
C       -0.99477467       1.13078855      -0.53973450
O        1.30481077       1.27613318      -0.85153598
H        1.58579616       1.46448196       1.51661963
H        0.97234225      -1.11948779      -1.52471769
H        1.63222647      -1.82474669      -0.03668261
H       -0.44243364      -1.82010607       1.05441109
H       -1.12790047      -1.72546772      -0.56651753
H       -2.08299973       0.45725233      -0.16066100
H       -1.17377753       0.44747720       1.49256906
H       -1.19058194       2.16577658      -0.29027599
H       -0.88552381       0.85580331      -1.57832361
16
Frame=2 idx=008321 GeodesicLength=0.11068615205947566 rxn_smarts="[N:1](=[C:2]1/[C:3]([H:9])([H:10])[C:4]([H:11])([H:12])[C:5]([H:13])([H:14])[C:6]([H:15])([H:16])[O:7]1)\[H:8]>>[N:1]1([H:8])[C:2](=[O:7])[C:3]([H:9])([H:10])[C:4]([H:11])([H:12])[C@@:5]1([C:6]([H:13])([H:15])[H:16])[H:14]"
N        1.43721637       0.48590801       1.29419257
C        1.40064514       0.34011559      -0.00256725
C        0.97378735      -1.06260488      -0.43481160
C       -0.45486984      -1.23251136       0.14616816
C       -0.95220631       0.15409874       0.47282604
C       -0.98703047       1.14074939      -0.53597351
O        1.30756286       1.27206190      -0.85830742
H        1.58693314       1.47104550       1.50782883
H        0.96819818      -1.12987794      -1.52232111
H        1.63770601      -1.82701400      -0.03658171
H       -0.43643361      -1.81753470       1.06333501
H       -1.12488606      -1.73530832      -0.55552796
H       -2.08115181       0.44859594      -0.18068686
H       -1.20350553       0.43268289       1.48840036
H       -1.17632914       2.17200163      -0.26391596
H       -0.89563631       0.88759160      -1.58205762
16
Frame=3 idx=008321 GeodesicLength=0.16598395534213695 rxn_smarts="[N:1](=[C:2]1/[C:3]([H:9])([H:10])[C:4]([H:11])([H:12])[C:5]([H:13])([H:14])[C:6]([H:15])([H:16])[O:7]1)\[H:8]>>[N:1]1([H:8])[C:2](=[O:7])[C:3]([H:9])([H:10])[C:4]([H:11])([H:12])[C@@:5]1([C:6]([H:13])([H:15])[H:16])[H:14]"
N        1.42414132       0.49496488       1.28588381
C        1.40930837       0.33419361      -0.01007664
C        0.97438051      -1.06796288      -0.43241602
C       -0.45112211      -1.23540766       0.15145086
C       -0.95030789       0.15218247       0.47198057
C       -0.97939303       1.15069084      -0.53214363
O        1.31010464       1.26798577      -0.86507167
H        1.58856356       1.47724494       1.49921949
H        0.96393508      -1.14024902      -1.51981312
H        1.64316311      -1.82929181      -0.03655882
H       -0.43031391      -1.81476142       1.07262441
H       -1.12181106      -1.74540125      -0.54408328
H       -2.07887023       0.43981949      -0.20134073
H       -1.23362276       0.41779768       1.48311150
H       -1.16232983       2.17769414      -0.23760012
H       -0.90582576       0.92050022      -1.58516660
16
Frame=4 idx=008321 GeodesicLength=0.2210759633429377 rxn_smarts="[N:1](=[C:2]1/[C:3]([H:9])([H:10])[C:4]([H:11])([H:12])[C:5]([H:13])([H:14])[C:6]([H:15])([H:16])[O:7]1)\[H:8]>>[N:1]1([H:8])[C:2](=[O:7])[C:3]([H:9])([H:10])[C:4]([H:11])([H:12])[C@@:5]1([C:6]([H:13])([H:15])[H:16])[H:14]"
N        1.41136518       0.50389400       1.27710458
C        1.41782985       0.32825403      -0.01751308
C        0.97493313      -1.07323743      -0.42987191
C       -0.44732009      -1.23821125       0.15698574
C       -0.94850788       0.15030547       0.47113731
C       -0.97190043       1.16057354      -0.52825265
O        1.31233176       1.26379989      -0.87176786
H        1.59071839       1.48291733       1.49074929
H        0.95950450      -1.15053454      -1.51705687
H        1.64858550      -1.83151148      -0.03655559
H       -0.42398719      -1.81162269       1.08220749
H       -1.11862962      -1.75555219      -0.53211908
H       -2.07612239       0.43087963      -0.22264640
H       -1.26402679       0.40275113       1.47657329
H       -1.14868748       2.18275610      -0.21137554
H       -0.91608645       0.95453845      -1.58759871
16
Frame=5 idx=008321 GeodesicLength=0.27617188095935535 rxn_smarts="[N:1](=[C:2]1/[C:3]([H:9])([H:10])[C:4]([H:11])([H:12])[C:5]([H:13])([H:14])[C:6]([H:15])([H:16])[O:7]1)\[H:8]>>[N:1]1([H:8])[C:2](=[O:7])[C:3]([H:9])([H:10])[C:4]([H:11])([H:12])[C@@:5]1([C:6]([H:13])([H:15])[H:16])[H:14]"
N        1.39892684       0.51280502       1.26793584
C        1.42624661       0.32235655      -0.02492170
C        0.97545770      -1.07849423      -0.42724589
C       -0.44350583      -1.24103701       0.16278449
C       -0.94683013       0.14844718       0.47035679
C       -0.96452133       1.17044965      -0.52430256
O        1.31433168       1.25961623      -0.87850086
H        1.59326726       1.48822747       1.48249294
H        0.95494640      -1.16082744      -1.51420179
H        1.65397737      -1.83375671      -0.03663538
H       -0.41754641      -1.80826193       1.09217077
H       -1.11539005      -1.76594785      -0.51966959
H       -2.07285943       0.42177254      -0.24460503
H       -1.29474789       0.38761630       1.46887811
H       -1.13532744       2.18732287      -0.18522047
H       -0.92642533       0.98971137      -1.58931564
16
Frame=6 idx=008321 GeodesicLength=0.3310880366894055 rxn_smarts="[N:1](=[C:2]1/[C:3]([H:9])([H:10])[C:4]([H:11])([H:12])[C:5]([H:13])([H:14])[C:6]([H:15])([H:16])[O:7]1)\[H:8]>>[N:1]1([H:8])[C:2](=[O:7])[C:3]([H:9])([H:10])[C:4]([H:11])([H:12])[C@@:5]1([C:6]([H:13])([H:15])[H:16])[H:14]"
N        1.38685676       0.52165977       1.25836399
C        1.43453853       0.31646665      -0.03229635
C        0.97595453      -1.08371172      -0.42451421
C       -0.43965222      -1.24384717       0.16884513
C       -0.94525196       0.14659834       0.46962821
C       -0.95726061       1.18028405      -0.52027172
O        1.31606714       1.25537343      -0.88524926
H        1.59608190       1.49307838       1.47437833
H        0.95023771      -1.17109564      -1.51119068
H        1.65935211      -1.83598535      -0.03678574
H       -0.41095100      -1.80463075       1.10249029
H       -1.11206207      -1.77651951      -0.50671576
H       -2.06898933       0.41254717      -0.26727482
H       -1.32573572       0.37245499       1.45986966
H       -1.12222416       2.19132321      -0.15914917
H       -0.93696162       1.02600415      -1.59012788
16
Frame=7 idx=008321 GeodesicLength=0.3859797530973047 rxn_smarts="[N:1](=[C:2]1/[C:3]([H:9])([H:10])[C:4]([H:11])([H:12])[C:5]([H:13])([H:14])[C:6]([H:15])([H:16])[O:7]1)\[H:8]>>[N:1]1([H:8])[C:2](=[O:7])[C:3]([H:9])([H:10])[C:4]([H:11])([H:12])[C@@:5]1([C:6]([H:13])([H:15])[H:16])[H:14]"
N        1.37513522       0.53039362       1.24835466
C        1.44269008       0.31058762      -0.03968367
C        0.97640481      -1.08889223      -0.42167031
C       -0.43576039      -1.24659362       0.17518138
C       -0.94376808       0.14479965       0.46893951
C       -0.95012565       1.19011917      -0.51618732
O        1.31748948       1.25105339      -0.89204729
H        1.59919614       1.49749803       1.46644667
H        0.94535435      -1.18136349      -1.50799636
H        1.66467164      -1.83821038      -0.03697260
H       -0.40418226      -1.80064502       1.11314746
H       -1.10865029      -1.78718740      -0.49321320
H       -2.06450784       0.40306562      -0.29063531
H       -1.35694282       0.35710657       1.44962775
H       -1.10946432       2.19481245      -0.13314816
H       -0.94754007       1.06345602      -1.59014322
16
Frame=8 idx=008321 GeodesicLength=0.44095936319192197 rxn_smarts="[N:1](=[C:2]1/[C:3]([H:9])([H:10])[C:4]([H:11])([H:12])[C:5]([H:13])([H:14])[C:6]([H:15])([H:16])[O:7]1)\[H:8]>>[N:1]1([H:8])[C:2](=[O:7])[C:3]([H:9])([H:10])[C:4]([H:11])([H:12])[C@@:5]1([C:6]([H:13])([H:15])[H:16])[H:14]"
N        1.36380531       0.53909053       1.23796720
C        1.45073470       0.30475575      -0.04711533
C        0.97681992      -1.09407559      -0.41875496
C       -0.43186027      -1.24935164       0.18180444
C       -0.94239646       0.14302522       0.46834063
C       -0.94309058       1.19997751      -0.51203340
O        1.31866475       1.24671541      -0.89897114
H        1.60251397       1.50160260       1.45871462
H        0.94031736      -1.19169639      -1.50471417
H        1.66994733      -1.84047233      -0.03723756
H       -0.39730734      -1.79639135       1.12420787
H       -1.10519481      -1.79807766      -0.47917707
H       -2.05934403       0.39334192      -0.31475309
H       -1.38841117       0.34162902       1.43813939
H       -1.09697662       2.19785273      -0.10718406
H       -0.95822207       1.10207427      -1.58923338
16
Frame=9 idx=008321 GeodesicLength=0.4953416625219799 rxn_smarts="[N:1](=[C:2]1/[C:3]([H:9])([H:10])[C:4]([H:11])([H:12])[C:5]([H:13])([H:14])[C:6]([H:15])([H:16])[O:7]1)\[H:8]>>[N:1]1([H:8])[C:2](=[O:7])[C:3]([H:9])([H:10])[C:4]([H:11])([H:12])[C@@:5]1([C:6]([H:13])([H:15])[H:16])[H:14]"
N        1.35279182       0.54769650       1.22718215
C        1.45859091       0.29892126      -0.05454438
C        0.97721279      -1.09920944      -0.41570958
C       -0.42791277      -1.25205204       0.18864132
C       -0.94114475       0.14125909       0.46770269
C       -0.93622485       1.20981766      -0.50778888
O        1.31948351       1.24229033      -0.90591795
H        1.60595791       1.50509460       1.45106767
H        0.93517955      -1.20201080      -1.50121487
H        1.67521165      -1.84268186      -0.03751671
H       -0.39030867      -1.79180158       1.13554945
H       -1.10160315      -1.80905140      -0.46467891
H       -2.05330132       0.38363087      -0.33953007
H       -1.41989497       0.32623897       1.42526809
H       -1.08482129       2.20032580      -0.08131702
H       -0.96921637       1.14153205      -1.58719299
16
Frame=10 idx=008321 GeodesicLength=0.5498970078498988 rxn_smarts="[N:1](=[C:2]1/[C:3]([H:9])([H:10])[C:4]([H:11])([H:12])[C:5]([H:13])([H:14])[C:6]([H:15])([H:16])[O:7]1)\[H:8]>>[N:1]1([H:8])[C:2](=[O:7])[C:3]([H:9])([H:10])[C:4]([H:11])([H:12])[C@@:5]1([C:6]([H:13])([H:15])[H:16])[H:14]"
N        1.34222032       0.55609940       1.21592449
C        1.46630855       0.29304328      -0.06207889
C        0.97754764      -1.10435319      -0.41255437
C       -0.42389353      -1.25466435       0.19581268
C       -0.93992617       0.13956719       0.46717713
C       -0.92941738       1.21970988      -0.50342571
O        1.31995623       1.23768101      -0.91303783
H        1.60922068       1.50831550       1.44345669
H        0.92978225      -1.21241386      -1.49750322
H        1.68040731      -1.84493733      -0.03784258
H       -0.38306928      -1.78679545       1.14726747
H       -1.09791746      -1.82006818      -0.44950772
H       -2.04638798       0.37358735      -0.36522965
H       -1.45161152       0.31054978       1.41089957
H       -1.07290901       2.20231369      -0.05541181
H       -0.98031066       1.18236528      -1.58394626
16
Frame=11 idx=008321 GeodesicLength=0.6047032950724333 rxn_smarts="[N:1](=[C:2]1/[C:3]([H:9])([H:10])[C:4]([H:11])([H:12])[C:5]([H:13])([H:14])[C:6]([H:15])([H:16])[O:7]1)\[H:8]>>[N:1]1([H:8])[C:2](=[O:7])[C:3]([H:9])([H:10])[C:4]([H:11])([H:12])[C@@:5]1([C:6]([H:13])([H:15])[H:16])[H:14]"
N        1.33208780       0.56450487       1.20434705
C        1.47394264       0.28724484      -0.06975126
C        0.97784114      -1.10955578      -0.40936371
C       -0.41990679      -1.25733804       0.20329062
C       -0.93884134       0.13788419       0.46677783
C       -0.92266345       1.22971298      -0.49894965
O        1.32021149       1.23307463      -0.92043921
H        1.61241699       1.51144165       1.43599366
H        0.92422369      -1.22300404      -1.49378642
H        1.68554362      -1.84727825      -0.03825582
H       -0.37579880      -1.78154153       1.15945627
H       -1.09424965      -1.83138842      -0.43378251
H       -2.03851099       0.36325909      -0.39182690
H       -1.48356142       0.29467348       1.39521231
H       -1.06118084       2.20396379      -0.02941126
H       -0.99155411       1.22434655      -1.57951098
16
Frame=12 idx=008321 GeodesicLength=0.658764742921861 rxn_smarts="[N:1](=[C:2]1/[C:3]([H:9])([H:10])[C:4]([H:11])([H:12])[C:5]([H:13])([H:14])[C:6]([H:15])([H:16])[O:7]1)\[H:8]>>[N:1]1([H:8])[C:2](=[O:7])[C:3]([H:9])([H:10])[C:4]([H:11])([H:12])[C@@:5]1([C:6]([H:13])([H:15])[H:16])[H:14]"
N        1.32229130       0.57259955       1.19225524
C        1.48131971       0.28131358      -0.07747952
C        0.97810013      -1.11470956      -0.40597916
C       -0.41578871      -1.25981358       0.21099645
C       -0.93779963       0.13626044       0.46632764
C       -0.91605717       1.23972561      -0.49428404
O        1.31994684       1.22815339      -0.92787887
H        1.61521360       1.51393544       1.42834246
H        0.91849474      -1.23358841      -1.48965954
H        1.69065594      -1.84956062      -0.03862458
H       -0.36826772      -1.77576557       1.17181900
H       -1.09034491      -1.84251141      -0.41748599
H       -2.02939357       0.35299278      -0.41921689
H       -1.51539287       0.27882502       1.37776792
H       -1.04973987       2.20497344      -0.00342188
H       -1.00323781       1.26716989      -1.57347825
16
Frame=13 idx=008321 GeodesicLength=0.7130943330908222 rxn_smarts="[N:1](=[C:2]1/[C:3]([H:9])([H:10])[C:4]([H:11])([H:12])[C:5]([H:13])([H:14])[C:6]([H:15])([H:16])[O:7]1)\[H:8]>>[N:1]1([H:8])[C:2](=[O:7])[C:3]([H:9])([H:10])[C:4]([H:11])([H:12])[C@@:5]1([C:6]([H:13])([H:15])[H:16])[H:14]"
N        1.31295580       0.58061114       1.17980571
C        1.48858625       0.27541704      -0.08539747
C        0.97830288      -1.11993550      -0.40254200
C       -0.41168576      -1.26230370       0.21902063
C       -0.93686525       0.13466410       0.46601403
C       -0.90947752       1.24989371      -0.48944633
O        1.31938906       1.22314501      -0.93565090
H        1.61764067       1.51642536       1.42070362
H        0.91256356      -1.24439786      -1.48546756
H        1.69568772      -1.85193740      -0.03905352
H       -0.36067655      -1.76967236       1.18462331
H       -1.08644009      -1.85383496      -0.40059569
H       -2.01907627       0.34245875      -0.44761074
H       -1.54736659       0.26272448       1.35882866
H       -1.03843199       2.20564234       0.02274093
H       -1.01510591       1.31109987      -1.56597266
16
Frame=14 idx=008321 GeodesicLength=0.7674554694817907 rxn_smarts="[N:1](=[C:2]1/[C:3]([H:9])([H:10])[C:4]([H:11])([H:12])[C:5]([H:13])([H:14])[C:6]([H:15])([H:16])[O:7]1)\[H:8]>>[N:1]1([H:8])[C:2](=[O:7])[C:3]([H:9])([H:10])[C:4]([H:11])([H:12])[C@@:5]1([C:6]([H:13])([H:15])[H:16])[H:14]"
N        1.30403010       0.58846059       1.16693796
C        1.49567320       0.26948776      -0.09350797
C        0.97844938      -1.12521672      -0.39899586
C       -0.40754755      -1.26473594       0.22735190
C       -0.93602947       0.13310614       0.46576944
C       -0.90294532       1.26023514      -0.48436995
O        1.31841797       1.21793559      -0.94372522
H        1.61961395       1.51878268       1.41289522
H        0.90642133      -1.25541934      -1.48107448
H        1.70065139      -1.85437215      -0.03948143
H       -0.35295655      -1.76315321       1.19780540
H       -1.08245419      -1.86523020      -0.38306897
H       -2.00730103       0.33176680      -0.47707765
H       -1.57944916       0.24638769       1.33813989
H       -1.02725566       2.20589610       0.04914816
H       -1.02731839       1.35606907      -1.55674644
16
Frame=15 idx=008321 GeodesicLength=0.8218794473160748 rxn_smarts="[N:1](=[C:2]1/[C:3]([H:9])([H:10])[C:4]([H:11])([H:12])[C:5]([H:13])([H:14])[C:6]([H:15])([H:16])[O:7]1)\[H:8]>>[N:1]1([H:8])[C:2](=[O:7])[C:3]([H:9])([H:10])[C:4]([H:11])([H:12])[C@@:5]1([C:6]([H:13])([H:15])[H:16])[H:14]"
N        1.29551665       0.59614655       1.15364304
C        1.50257232       0.26352306      -0.10184829
C        0.97853082      -1.13056530      -0.39534009
C       -0.40338770      -1.26710947       0.23600078
C       -0.93531211       0.13158119       0.46558617
C       -0.89645695       1.27078777      -0.47900539
O        1.31700210       1.21250271      -0.95215213
H        1.62107386       1.52107888       1.40485954
H        0.90004846      -1.26669756      -1.47647769
H        1.70554028      -1.85686569      -0.03989513
H       -0.34512231      -1.75617750       1.21138610
H       -1.07840495      -1.87670394      -0.36487830
H       -1.99388438       0.32095537      -0.50770647
H       -1.61161823       0.22977450       1.31558691
H       -1.01621690       2.20573105       0.07588258
H       -1.03988095       1.40203838      -1.54564163
16
Frame=16 idx=008321 GeodesicLength=0.876313105514478 rxn_smarts="[N:1](=[C:2]1/[C:3]([H:9])([H:10])[C:4]([H:11])([H:12])[C:5]([H:13])([H:14])[C:6]([H:15])([H:16])[O:7]1)\[H:8]>>[N:1]1([H:8])[C:2](=[O:7])[C:3]([H:9])([H:10])[C:4]([H:11])([H:12])[C@@:5]1([C:6]([H:13])([H:15])[H:16])[H:14]"
N        1.28737718       0.60362800       1.13991571
C        1.50923253       0.25750778      -0.11041845
C        0.97854327      -1.13597249      -0.39154619
C       -0.39919832      -1.26938580       0.24493790
C       -0.93470632       0.13010763       0.46546111
C       -0.89002327       1.28156755      -0.47333241
O        1.31505244       1.20682458      -0.96090052
H        1.62201736       1.52326572       1.39653932
H        0.89347110      -1.27822255      -1.47161407
H        1.71034263      -1.85940651      -0.04024919
H       -0.33718596      -1.74873239       1.22528391
H       -1.07425984      -1.88814875      -0.34607277
H       -1.97866210       0.31011372      -0.53945230
H       -1.64376991       0.21293399       1.29105927
H       -1.00530487       2.20515099       0.10291733
H       -1.05292594       1.44876852      -1.53252864
