14
Frame=0 idx=011716 GeodesicLength=0.0 rxn_smarts="[C:1]([c:2]1[c:3]([H:11])[o:4][c:5]([H:12])[c:6]1[N:7]([H:13])[H:14])([H:8])([H:9])[H:10]>>[C:1]([C:6](=[C:2]=[C:3]([O+:4]=[C-:5][H:12])[H:11])[N:7]([H:13])[H:14])([H:8])([H:9])[H:10]"
C       -1.65167532       0.39627467       0.64466837
C        0.00262936      -0.25051856       0.03352597
C        0.10668954      -1.52702698      -0.27859623
O        0.93007902      -1.95418298      -1.33173823
C        1.97572975      -1.24648979      -1.62822714
C       -0.07836061       1.05576819       0.03078058
N        0.61220995       1.94758619       0.78291719
H       -1.74222996      -0.44334291       1.34078571
H       -2.33277374       0.29846245      -0.19148294
H       -1.84372811       1.30131928       1.21377633
H       -0.43107354      -2.33619817       0.18815288
H        2.37267311      -1.78221615      -2.51989872
H        0.63126474       2.89721320       0.45941012
H        1.44856580       1.64335154       1.25592611
14
Frame=1 idx=011716 GeodesicLength=0.1072660388385832 rxn_smarts="[C:1]([c:2]1[c:3]([H:11])[o:4][c:5]([H:12])[c:6]1[N:7]([H:13])[H:14])([H:8])([H:9])[H:10]>>[C:1]([C:6](=[C:2]=[C:3]([O+:4]=[C-:5][H:12])[H:11])[N:7]([H:13])[H:14])([H:8])([H:9])[H:10]"
C       -1.64583920       0.40191497       0.63575370
C        0.01694329      -0.30607762       0.13015711
C        0.10653242      -1.56848941      -0.23939644
O        0.93080406      -1.94978244      -1.30809890
C        1.92092813      -1.16997937      -1.62412077
C       -0.03514271       1.00111857       0.03194498
N        0.63511712       1.92790817       0.76397154
H       -1.81221193      -0.44117680       1.31319678
H       -2.30546140       0.33981272      -0.22169192
H       -1.82544422       1.30629936       1.21039746
H       -0.45136203      -2.39070350       0.17820951
H        2.36211233      -1.69022799      -2.50264257
H        0.59961746       2.87336207       0.42910642
H        1.50340669       1.66602126       1.20321311
14
Frame=2 idx=011716 GeodesicLength=0.21550793882456665 rxn_smarts="[C:1]([c:2]1[c:3]([H:11])[o:4][c:5]([H:12])[c:6]1[N:7]([H:13])[H:14])([H:8])([H:9])[H:10]>>[C:1]([C:6](=[C:2]=[C:3]([O+:4]=[C-:5][H:12])[H:11])[N:7]([H:13])[H:14])([H:8])([H:9])[H:10]"
C       -1.64048610       0.40708780       0.62537083
C        0.02231108      -0.35304690       0.20839498
C        0.11157690      -1.60436480      -0.19884290
O        0.93343952      -1.94450126      -1.28207954
C        1.86337324      -1.09814030      -1.61882791
C        0.00272327       0.95006869       0.03062739
N        0.65727185       1.90464897       0.74521996
H       -1.87505180      -0.43850711       1.27878106
H       -2.28129980       0.38422981      -0.24901153
H       -1.80765304       1.30691839       1.21136504
H       -0.46034328      -2.43678316       0.17752152
H        2.34933955      -1.60068881      -2.48235195
H        0.57309634       2.84494125       0.40396402
H        1.55170225       1.67813744       1.14986903
14
Frame=3 idx=011716 GeodesicLength=0.32434921619729423 rxn_smarts="[C:1]([c:2]1[c:3]([H:11])[o:4][c:5]([H:12])[c:6]1[N:7]([H:13])[H:14])([H:8])([H:9])[H:10]>>[C:1]([C:6](=[C:2]=[C:3]([O+:4]=[C-:5][H:12])[H:11])[N:7]([H:13])[H:14])([H:8])([H:9])[H:10]"
C       -1.63549786       0.41227174       0.61433777
C        0.02171908      -0.39296120       0.27166155
C        0.11887488      -1.63608361      -0.16001286
O        0.93787445      -1.93957997      -1.25518084
C        1.80603336      -1.03377105      -1.61088847
C        0.03602701       0.90293508       0.02704763
N        0.67817684       1.87993956       0.72691808
H       -1.93190816      -0.43580706       1.23838615
H       -2.25948638       0.43267502      -0.27306049
H       -1.79032084       1.30348147       1.21729614
H       -0.46003376      -2.47766320       0.18403021
H        2.33451826      -1.51399860      -2.46056933
H        0.54936440       2.81476505       0.38400080
H        1.59465872       1.68379675       1.09603365
14
Frame=4 idx=011716 GeodesicLength=0.4335052309095574 rxn_smarts="[C:1]([c:2]1[c:3]([H:11])[o:4][c:5]([H:12])[c:6]1[N:7]([H:13])[H:14])([H:8])([H:9])[H:10]>>[C:1]([C:6](=[C:2]=[C:3]([O+:4]=[C-:5][H:12])[H:11])[N:7]([H:13])[H:14])([H:8])([H:9])[H:10]"
C       -1.63082757       0.41773748       0.60301195
C        0.01719301      -0.42741667       0.32353589
C        0.12673210      -1.66443062      -0.12419790
O        0.94377528      -1.93527871      -1.22831250
C        1.75140166      -0.97767495      -1.59928185
C        0.06573560       0.85920633       0.02174725
N        0.69764808       1.85491066       0.70914616
H       -1.98399901      -0.43284666       1.19277437
H       -2.23890262       0.48508324      -0.29394049
H       -1.77369615       1.29644134       1.22757950
H       -0.45186440      -2.51551143       0.19638348
H        2.31658099      -1.42993702      -2.43917590
H        0.52746876       2.78400541       0.36814098
H        1.63275428       1.68571160       1.04258906
14
Frame=5 idx=011716 GeodesicLength=0.5427661800367716 rxn_smarts="[C:1]([c:2]1[c:3]([H:11])[o:4][c:5]([H:12])[c:6]1[N:7]([H:13])[H:14])([H:8])([H:9])[H:10]>>[C:1]([C:6](=[C:2]=[C:3]([O+:4]=[C-:5][H:12])[H:11])[N:7]([H:13])[H:14])([H:8])([H:9])[H:10]"
C       -1.62647907       0.42364410       0.59101354
C        0.00998902      -0.45761062       0.36682109
C        0.13477037      -1.69006520      -0.09098013
O        0.95195807      -1.93202305      -1.20062048
C        1.70199160      -0.92982203      -1.58280937
C        0.09280350       0.81830831       0.01533134
N        0.71565426       1.83003785       0.69239110
H       -2.03243229      -0.42919102       1.14183865
H       -2.21840854       0.54124332      -0.31241233
H       -1.75829025       1.28611424       1.24084793
H       -0.43705126      -2.55149612       0.21393359
H        2.29212537      -1.34784002      -2.42165564
H        0.50676970       2.75316543       0.35616977
H        1.66659953       1.68553481       0.99013093
14
Frame=6 idx=011716 GeodesicLength=0.6516903387377498 rxn_smarts="[C:1]([c:2]1[c:3]([H:11])[o:4][c:5]([H:12])[c:6]1[N:7]([H:13])[H:14])([H:8])([H:9])[H:10]>>[C:1]([C:6](=[C:2]=[C:3]([O+:4]=[C-:5][H:12])[H:11])[N:7]([H:13])[H:14])([H:8])([H:9])[H:10]"
C       -1.62242886       0.42981996       0.58005877
C        0.00086416      -0.48408566       0.40251414
C        0.14231373      -1.71287531      -0.06168330
O        0.95879003      -1.92826783      -1.17621830
C        1.65351878      -0.88737245      -1.56743541
C        0.11693485       0.78034214       0.00785530
N        0.73206581       1.80589764       0.67616345
H       -2.07661117      -0.42481173       1.08831846
H       -2.19852599       0.60009186      -0.32608684
H       -1.74397682       1.27247861       1.25800580
H       -0.41751106      -2.58546575       0.23382426
H        2.27155963      -1.27322979      -2.40000939
H        0.48623060       2.72289222       0.34766609
H        1.69677630       1.68458609       0.93702697
14
Frame=7 idx=011716 GeodesicLength=0.7602672310022005 rxn_smarts="[C:1]([c:2]1[c:3]([H:11])[o:4][c:5]([H:12])[c:6]1[N:7]([H:13])[H:14])([H:8])([H:9])[H:10]>>[C:1]([C:6](=[C:2]=[C:3]([O+:4]=[C-:5][H:12])[H:11])[N:7]([H:13])[H:14])([H:8])([H:9])[H:10]"
C       -1.61854741       0.43625635       0.56918506
C       -0.00940208      -0.50775273       0.43278852
C        0.14984176      -1.73364151      -0.03460273
O        0.96662771      -1.92504244      -1.15215663
C        1.60937286      -0.85077153      -1.54980779
C        0.13920037       0.74454858      -0.00010845
N        0.74708963       1.78246972       0.66091961
H       -2.11725398      -0.41905988       1.03198218
H       -2.17799822       0.66048102      -0.33653336
H       -1.73139931       1.25617376       1.27660859
H       -0.39498528      -2.61755263       0.25544822
H        2.24788106      -1.20259133      -2.38052800
H        0.46617611       2.69298773       0.34207648
H        1.72339680       1.68349489       0.88472832
14
Frame=8 idx=011716 GeodesicLength=0.8683875402317113 rxn_smarts="[C:1]([c:2]1[c:3]([H:11])[o:4][c:5]([H:12])[c:6]1[N:7]([H:13])[H:14])([H:8])([H:9])[H:10]>>[C:1]([C:6](=[C:2]=[C:3]([O+:4]=[C-:5][H:12])[H:11])[N:7]([H:13])[H:14])([H:8])([H:9])[H:10]"
C       -1.61492680       0.44291684       0.55953478
C       -0.02067517      -0.52908474       0.45800026
C        0.15664543      -1.75248253      -0.01059199
O        0.97399178      -1.92185019      -1.13014617
C        1.56771181      -0.81859190      -1.53232707
C        0.15925710       0.71078332      -0.00883617
N        0.76078407       1.75980656       0.64583055
H       -2.15422769      -0.41178462       0.97489503
H       -2.15753867       0.72172592      -0.34215744
H       -1.72023772       1.23741293       1.29720084
H       -0.37091422      -2.64765992       0.27702143
H        2.22709652      -1.13733589      -2.35881100
H        0.44626143       2.66352853       0.33861697
H        1.74677214       1.68261571       0.83176998
14
Frame=9 idx=011716 GeodesicLength=0.9761976765104542 rxn_smarts="[C:1]([c:2]1[c:3]([H:11])[o:4][c:5]([H:12])[c:6]1[N:7]([H:13])[H:14])([H:8])([H:9])[H:10]>>[C:1]([C:6](=[C:2]=[C:3]([O+:4]=[C-:5][H:12])[H:11])[N:7]([H:13])[H:14])([H:8])([H:9])[H:10]"
C       -1.61151769       0.44981646       0.55039202
C       -0.03266632      -0.54859632       0.47928187
C        0.16297199      -1.76986163       0.01132587
O        0.98225762      -1.91910933      -1.10848763
C        1.53142024      -0.79098497      -1.51239549
C        0.17773391       0.67857859      -0.01803358
N        0.77332511       1.73777039       0.63119204
H       -2.18810747      -0.40265044       0.91663475
H       -2.13649461       0.78336683      -0.34402840
H       -1.71080353       1.21651527       1.31839442
H       -0.34591494      -2.67597486       0.29853560
H        2.20407251      -1.07541076      -2.33883779
H        0.42667947       2.63432821       0.33715836
H        1.76704371       1.68221255       0.77886798
14
Frame=10 idx=011716 GeodesicLength=1.0835272471303814 rxn_smarts="[C:1]([c:2]1[c:3]([H:11])[o:4][c:5]([H:12])[c:6]1[N:7]([H:13])[H:14])([H:8])([H:9])[H:10]>>[C:1]([C:6](=[C:2]=[C:3]([O+:4]=[C-:5][H:12])[H:11])[N:7]([H:13])[H:14])([H:8])([H:9])[H:10]"
C       -1.60842496       0.45693922       0.54262056
C       -0.04531678      -0.56651547       0.49670039
C        0.16836325      -1.78579501       0.03046030
O        0.98951350      -1.91636340      -1.08910754
C        1.49719837      -0.76649507      -1.49336410
C        0.19426866       0.64796879      -0.02794900
N        0.78479984       1.71635213       0.61648877
H       -2.21885245      -0.39152513       0.85909838
H       -2.11554382       0.84456205      -0.34116036
H       -1.70286087       1.19391370       1.34044758
H       -0.32020555      -2.70251573       0.31947947
H        2.18531304      -1.01825234      -2.31605576
H        0.40738069       2.60546077       0.33737400
H        1.78436709       1.68226548       0.72496732
14
Frame=11 idx=011716 GeodesicLength=1.1904638546509287 rxn_smarts="[C:1]([c:2]1[c:3]([H:11])[o:4][c:5]([H:12])[c:6]1[N:7]([H:13])[H:14])([H:8])([H:9])[H:10]>>[C:1]([C:6](=[C:2]=[C:3]([O+:4]=[C-:5][H:12])[H:11])[N:7]([H:13])[H:14])([H:8])([H:9])[H:10]"
C       -1.60558053       0.46429838       0.53559493
C       -0.05843429      -0.58312655       0.51104399
C        0.17313286      -1.80055069       0.04759206
O        0.99644685      -1.91383559      -1.07102428
C        1.46573327      -0.74491274      -1.47439064
C        0.20936988       0.61871059      -0.03822238
N        0.79542007       1.69544717       0.60218575
H       -2.24687246      -0.37824386       0.80186533
H       -2.09411242       0.90474171      -0.33474527
H       -1.69674315       1.17005901       1.36218032
H       -0.29353728      -2.72745681       0.34048345
H        2.16759204      -0.96470414      -2.29304893
H        0.38873731       2.57682946       0.33935270
H        1.79884785       1.68274406       0.67113297
14
Frame=12 idx=011716 GeodesicLength=1.2970602267854694 rxn_smarts="[C:1]([c:2]1[c:3]([H:11])[o:4][c:5]([H:12])[c:6]1[N:7]([H:13])[H:14])([H:8])([H:9])[H:10]>>[C:1]([C:6](=[C:2]=[C:3]([O+:4]=[C-:5][H:12])[H:11])[N:7]([H:13])[H:14])([H:8])([H:9])[H:10]"
C       -1.60302583       0.47191140       0.52929703
C       -0.07203879      -0.59865227       0.52258798
C        0.17716193      -1.81429357       0.06278908
O        1.00356531      -1.91160059      -1.05377141
C        1.43701488      -0.72583604      -1.45547451
C        0.22308957       0.59065507      -0.04888183
N        0.80530699       1.67492928       0.58821175
H       -2.27246804      -0.36270052       0.74526933
H       -2.07229015       0.96365606      -0.32497873
H       -1.69239896       1.14522130       1.38334646
H       -0.26612110      -2.75086273       0.36140708
H        2.15075343      -0.91438968      -2.27008601
H        0.37085248       2.54836385       0.34301004
H        1.81059829       1.68359844       0.61727374
14
Frame=13 idx=011716 GeodesicLength=1.4033684375355195 rxn_smarts="[C:1]([c:2]1[c:3]([H:11])[o:4][c:5]([H:12])[c:6]1[N:7]([H:13])[H:14])([H:8])([H:9])[H:10]>>[C:1]([C:6](=[C:2]=[C:3]([O+:4]=[C-:5][H:12])[H:11])[N:7]([H:13])[H:14])([H:8])([H:9])[H:10]"
C       -1.60071431       0.47978444       0.52329186
C       -0.08606766      -0.61325657       0.53179319
C        0.18063631      -1.82717985       0.07654256
O        1.01153361      -1.90968772      -1.03653880
C        1.41205568      -0.70908131      -1.43557928
C        0.23577245       0.56365802      -0.05967516
N        0.81457467       1.65475003       0.57490282
H       -2.29590404      -0.34485788       0.68874625
H       -2.04973096       1.02116651      -0.31263137
H       -1.69004809       1.11955162       1.40336943
H       -0.23780056      -2.77278670       0.38263270
H        2.13211157      -0.86697118      -2.24954582
H        0.35387957       2.52002626       0.34843482
H        1.81970175       1.68488434       0.56425678
14
Frame=14 idx=011716 GeodesicLength=1.5093644010433345 rxn_smarts="[C:1]([c:2]1[c:3]([H:11])[o:4][c:5]([H:12])[c:6]1[N:7]([H:13])[H:14])([H:8])([H:9])[H:10]>>[C:1]([C:6](=[C:2]=[C:3]([O+:4]=[C-:5][H:12])[H:11])[N:7]([H:13])[H:14])([H:8])([H:9])[H:10]"
C       -1.59863177       0.48791478       0.51731643
C       -0.10051690      -0.62707091       0.53893624
C        0.18362125      -1.83930490       0.08907969
O        1.02121022      -1.90808276      -1.01853807
C        1.39100697      -0.69425649      -1.41447863
C        0.24763830       0.53764047      -0.07039929
N        0.82331962       1.63484550       0.56258173
H       -2.31732199      -0.32466637       0.63224093
H       -2.02630606       1.07692442      -0.29835109
H       -1.68987275       1.09338717       1.42173946
H       -0.20852503      -2.79320652       0.40431549
H        2.11007404      -0.82240977      -2.23299728
H        0.33800814       2.49179802       0.35566582
H        1.82629597       1.68648736       0.51288857
14
Frame=15 idx=011716 GeodesicLength=1.6151809171804814 rxn_smarts="[C:1]([c:2]1[c:3]([H:11])[o:4][c:5]([H:12])[c:6]1[N:7]([H:13])[H:14])([H:8])([H:9])[H:10]>>[C:1]([C:6](=[C:2]=[C:3]([O+:4]=[C-:5][H:12])[H:11])[N:7]([H:13])[H:14])([H:8])([H:9])[H:10]"
C       -1.59695952       0.49640101       0.51196753
C       -0.11570338      -0.64028130       0.54360306
C        0.18541093      -1.85078701       0.09955731
O        1.03362122      -1.90669721      -0.99925638
C        1.37175904      -0.68095293      -1.39409026
C        0.25817451       0.51251680      -0.08163713
N        0.83162920       1.61494221       0.55047386
H       -2.33705744      -0.30195642       0.57673550
H       -2.00271952       1.13118011      -0.28127912
H       -1.69134757       1.06677063       1.43919571
H       -0.17858050      -2.81216174       0.42588606
H        2.08804197      -0.78054383      -2.21739614
H        0.32324371       2.46354380       0.36442140
H        1.83048737       1.68802588       0.46181860
14
Frame=16 idx=011716 GeodesicLength=1.720783615613685 rxn_smarts="[C:1]([c:2]1[c:3]([H:11])[o:4][c:5]([H:12])[c:6]1[N:7]([H:13])[H:14])([H:8])([H:9])[H:10]>>[C:1]([C:6](=[C:2]=[C:3]([O+:4]=[C-:5][H:12])[H:11])[N:7]([H:13])[H:14])([H:8])([H:9])[H:10]"
C       -1.59554499       0.50513115       0.50668361
C       -0.13142122      -0.65296298       0.54621682
C        0.18645658      -1.86172697       0.10856991
O        1.04840477      -1.90532666      -0.97858070
C        1.35633417      -0.66909637      -1.37255253
C        0.26788956       0.48821230      -0.09301046
N        0.83952231       1.59512370       0.53914882
H       -2.35509318      -0.27683930       0.52155034
H       -1.97849845       1.18363037      -0.26239713
H       -1.69478874       1.03978414       1.45502635
H       -0.14776464      -2.82948595       0.44788601
H        2.06248961      -0.74146919      -2.20580179
H        0.30963375       2.43529249       0.37475807
H        1.83238047       1.68973327       0.41250269
