13
Frame=0 idx=009296 GeodesicLength=0.0 rxn_smarts="[C:1]([O:2][C:3](=[O:4])[C:5]([C:6](=[O:7])[H:13])([H:11])[H:12])([H:8])([H:9])[H:10]>>[C:1]([O:7][C:6](=[C:5]([H:11])[H:12])[H:13])([H:8])([H:9])[H:10].[O:2]=[C:3]=[O:4]"
C       -1.62501943       0.21820015       0.99508261
O       -1.01954265       0.09082058      -1.03890547
C        0.06461622      -0.38067787      -1.49813874
O        0.34376027      -0.70722378      -2.62874947
C        1.17277398      -0.56789191      -0.38646862
C        1.20010916       0.64835298       0.42951144
O        0.25196071       1.05747070       1.08100393
H       -2.19183223       1.02234153       0.55586436
H       -1.87806476      -0.77506110       0.66222292
H       -1.38733936       0.31801066       2.04356010
H        2.13327155      -0.78511407      -0.84198368
H        0.83276509      -1.41663510       0.21202764
H        2.10254148       1.27740720       0.41497301
13
Frame=1 idx=009296 GeodesicLength=0.11418661369529393 rxn_smarts="[C:1]([O:2][C:3](=[O:4])[C:5]([C:6](=[O:7])[H:13])([H:11])[H:12])([H:8])([H:9])[H:10]>>[C:1]([O:7][C:6](=[C:5]([H:11])[H:12])[H:13])([H:8])([H:9])[H:10].[O:2]=[C:3]=[O:4]"
C       -1.62070654       0.22028251       0.99448917
O       -1.03679543       0.05081554      -1.03624092
C        0.05813509      -0.37596446      -1.50795381
O        0.37016551      -0.58922568      -2.65515935
C        1.17994410      -0.58827046      -0.37515488
C        1.22095468       0.63017386       0.43151610
O        0.28003051       1.04620006       1.09438088
H       -2.22536569       0.98022247       0.52560094
H       -1.87156308      -0.79341707       0.72468537
H       -1.43101295       0.39300083       2.04406003
H        2.13969754      -0.82069941      -0.82554976
H        0.83138853      -1.43391399       0.22188802
H        2.10512772       1.28079580       0.36343821
13
Frame=2 idx=009296 GeodesicLength=0.22750174503108173 rxn_smarts="[C:1]([O:2][C:3](=[O:4])[C:5]([C:6](=[O:7])[H:13])([H:11])[H:12])([H:8])([H:9])[H:10]>>[C:1]([O:7][C:6](=[C:5]([H:11])[H:12])[H:13])([H:8])([H:9])[H:10].[O:2]=[C:3]=[O:4]"
C       -1.61647709       0.22341132       0.99202049
O       -1.05321340       0.00930710      -1.03412501
C        0.05168251      -0.36935017      -1.51815668
O        0.39101029      -0.47047470      -2.67127068
C        1.18780082      -0.60836691      -0.36429498
C        1.24267855       0.61156359       0.43383636
O        0.30918695       1.03350135       1.10862059
H       -2.26002471       0.93329296       0.49491906
H       -1.86311701      -0.80774654       0.78894628
H       -1.47359534       0.46925252       2.03520854
H        2.14576091      -0.85450210      -0.81193943
H        0.83168970      -1.45125005       0.23130015
H        2.10661782       1.28136162       0.31493531
13
Frame=3 idx=009296 GeodesicLength=0.34041287681463883 rxn_smarts="[C:1]([O:2][C:3](=[O:4])[C:5]([C:6](=[O:7])[H:13])([H:11])[H:12])([H:8])([H:9])[H:10]>>[C:1]([O:7][C:6](=[C:5]([H:11])[H:12])[H:13])([H:8])([H:9])[H:10].[O:2]=[C:3]=[O:4]"
C       -1.61258735       0.22784068       0.98743322
O       -1.06889024      -0.03428196      -1.03249622
C        0.04501747      -0.36060163      -1.52851622
O        0.40577863      -0.35151958      -2.67781088
C        1.19647274      -0.62813733      -0.35404670
C        1.26519855       0.59244058       0.43663547
O        0.33945830       1.01894673       1.12417053
H       -2.29562574       0.88118696       0.46384385
H       -1.85286035      -0.81738897       0.85530734
H       -1.51509579       0.54728893       2.01664932
H        2.15170877      -0.88615019      -0.80137264
H        0.83397322      -1.46889257       0.23984445
H        2.10745179       1.27926835       0.27035847
13
Frame=4 idx=009296 GeodesicLength=0.45331007568518406 rxn_smarts="[C:1]([O:2][C:3](=[O:4])[C:5]([C:6](=[O:7])[H:13])([H:11])[H:12])([H:8])([H:9])[H:10]>>[C:1]([O:7][C:6](=[C:5]([H:11])[H:12])[H:13])([H:8])([H:9])[H:10].[O:2]=[C:3]=[O:4]"
C       -1.60946622       0.23377797       0.98057621
O       -1.08393935      -0.08055011      -1.03127480
C        0.03787389      -0.34962009      -1.53885114
O        0.41393725      -0.23251792      -2.67558514
C        1.20623331      -0.64760983      -0.34470356
C        1.28824328       0.57258768       0.43994030
O        0.37049355       1.00203272       1.14137819
H       -2.33225699       0.82326342       0.43276549
H       -1.84052876      -0.82145558       0.92432670
H       -1.55571441       0.62827914       1.98762315
H        2.15802914      -0.91534275      -0.79433268
H        0.83885303      -1.48709454       0.24710950
H        2.10824228       1.27424988       0.23102778
13
Frame=5 idx=009296 GeodesicLength=0.566340090844151 rxn_smarts="[C:1]([O:2][C:3](=[O:4])[C:5]([C:6](=[O:7])[H:13])([H:11])[H:12])([H:8])([H:9])[H:10]>>[C:1]([O:7][C:6](=[C:5]([H:11])[H:12])[H:13])([H:8])([H:9])[H:10].[O:2]=[C:3]=[O:4]"
C       -1.60706413       0.24106927       0.97097576
O       -1.09805971      -0.12918281      -1.03063090
C        0.02993269      -0.33637927      -1.54866819
O        0.41528775      -0.11418671      -2.66476637
C        1.21696005      -0.66683375      -0.33597590
C        1.31177389       0.55196969       0.44410757
O        0.40251542       0.98207127       1.16102090
H       -2.36858186       0.76010070       0.40221081
H       -1.82715780      -0.81900542       0.99526586
H       -1.59446863       0.71072557       1.94760761
H        2.16467337      -0.94202828      -0.79027790
H        0.84602676      -1.50610057       0.25322677
H        2.10816220       1.26778030       0.19590400
13
Frame=6 idx=009296 GeodesicLength=0.679148679653828 rxn_smarts="[C:1]([O:2][C:3](=[O:4])[C:5]([C:6](=[O:7])[H:13])([H:11])[H:12])([H:8])([H:9])[H:10]>>[C:1]([O:7][C:6](=[C:5]([H:11])[H:12])[H:13])([H:8])([H:9])[H:10].[O:2]=[C:3]=[O:4]"
C       -1.60542342       0.24947815       0.95842848
O       -1.11113830      -0.18069035      -1.03034582
C        0.02089648      -0.32129736      -1.55760478
O        0.40913388       0.00394679      -2.64524553
C        1.22887316      -0.68594555      -0.32810683
C        1.33517800       0.53036902       0.44913048
O        0.43476859       0.95861505       1.18325785
H       -2.40386267       0.69151063       0.37316705
H       -1.81267300      -0.80902799       1.06794675
H       -1.63101626       0.79564545       1.89512309
H        2.17199716      -0.96609141      -0.78954747
H        0.85624083      -1.52612262       0.25776896
H        2.10702556       1.25961020       0.16602776
13
Frame=7 idx=009296 GeodesicLength=0.7921345136619435 rxn_smarts="[C:1]([O:2][C:3](=[O:4])[C:5]([C:6](=[O:7])[H:13])([H:11])[H:12])([H:8])([H:9])[H:10]>>[C:1]([O:7][C:6](=[C:5]([H:11])[H:12])[H:13])([H:8])([H:9])[H:10].[O:2]=[C:3]=[O:4]"
C       -1.60400395       0.25793849       0.94280046
O       -1.12287763      -0.23336829      -1.03117118
C        0.01038865      -0.30442784      -1.56552497
O        0.39617761       0.12019400      -2.61744889
C        1.24131502      -0.70469766      -0.32044976
C        1.35846738       0.50837661       0.45502911
O        0.46756058       0.93192238       1.20813697
H       -2.43611993       0.61915640       0.34652229
H       -1.79876084      -0.79141451       1.14089951
H       -1.66357170       0.87926343       1.83074937
H        2.17943149      -0.98766485      -0.79078924
H        0.86793842      -1.54675758       0.26165391
H        2.10405491       1.25147942       0.13959242
13
Frame=8 idx=009296 GeodesicLength=0.905035840744401 rxn_smarts="[C:1]([O:2][C:3](=[O:4])[C:5]([C:6](=[O:7])[H:13])([H:11])[H:12])([H:8])([H:9])[H:10]>>[C:1]([O:7][C:6](=[C:5]([H:11])[H:12])[H:13])([H:8])([H:9])[H:10].[O:2]=[C:3]=[O:4]"
C       -1.60247303       0.26558236       0.92430007
O       -1.13317095      -0.28687940      -1.03300171
C       -0.00175019      -0.28637185      -1.57228056
O        0.37586321       0.23468034      -2.58091981
C        1.25436331      -0.72315843      -0.31305943
C        1.38097903       0.48608641       0.46164164
O        0.49994634       0.90250016       1.23507455
H       -2.46425096       0.54406334       0.32350847
H       -1.78571212      -0.76596240       1.21304377
H       -1.69139991       0.96122613       1.75362056
H        2.18716825      -1.00700390      -0.79383729
H        0.88155839      -1.56782969       0.26474531
H        2.09887862       1.24306693       0.11716443
13
Frame=9 idx=009296 GeodesicLength=1.0182123245959118 rxn_smarts="[C:1]([O:2][C:3](=[O:4])[C:5]([C:6](=[O:7])[H:13])([H:11])[H:12])([H:8])([H:9])[H:10]>>[C:1]([O:7][C:6](=[C:5]([H:11])[H:12])[H:13])([H:8])([H:9])[H:10].[O:2]=[C:3]=[O:4]"
C       -1.60025619       0.27111620       0.90356169
O       -1.14201546      -0.33910020      -1.03655483
C       -0.01557381      -0.26718294      -1.57818661
O        0.34930818       0.34604409      -2.53630023
C        1.26736460      -0.74105693      -0.30542722
C        1.40264512       0.46420241       0.46860908
O        0.53183808       0.87179073       1.26303780
H       -2.48718483       0.46796009       0.30490096
H       -1.77432072      -0.73347120       1.28317242
H       -1.71360150       1.03798677       1.66516817
H        2.19465179      -1.02467022      -0.79740845
H        0.89551198      -1.58854368       0.26794530
H        2.09163276       1.23492487       0.09748192
13
Frame=10 idx=009296 GeodesicLength=1.1326953193065885 rxn_smarts="[C:1]([O:2][C:3](=[O:4])[C:5]([C:6](=[O:7])[H:13])([H:11])[H:12])([H:8])([H:9])[H:10]>>[C:1]([O:7][C:6](=[C:5]([H:11])[H:12])[H:13])([H:8])([H:9])[H:10].[O:2]=[C:3]=[O:4]"
C       -1.59702338       0.27356392       0.88135845
O       -1.14967414      -0.38858927      -1.04235147
C       -0.03112680      -0.24670814      -1.58376486
O        0.31719444       0.45380839      -2.48427381
C        1.27995078      -0.75833336      -0.29720751
C        1.42360094       0.44327229       0.47566216
O        0.56331671       0.84150424       1.29104235
H       -2.50473058       0.39196496       0.29104884
H       -1.76488351      -0.69487685       1.35055000
H       -1.73007508       1.10722593       1.56665466
H        2.20152835      -1.04149125      -0.80060577
H        0.90885143      -1.60841447       0.27197360
H        2.08307084       1.22707360       0.07991335
13
Frame=11 idx=009296 GeodesicLength=1.248226576713324 rxn_smarts="[C:1]([O:2][C:3](=[O:4])[C:5]([C:6](=[O:7])[H:13])([H:11])[H:12])([H:8])([H:9])[H:10]>>[C:1]([O:7][C:6](=[C:5]([H:11])[H:12])[H:13])([H:8])([H:9])[H:10].[O:2]=[C:3]=[O:4]"
C       -1.59232177       0.27223110       0.85865393
O       -1.15631101      -0.43323261      -1.05104820
C       -0.04810605      -0.22441553      -1.58950157
O        0.28145502       0.55695383      -2.42604349
C        1.29135296      -0.77484652      -0.28804865
C        1.44387761       0.42392407       0.48229216
O        0.59448511       0.81361096       1.31791763
H       -2.51681433       0.31665890       0.28208940
H       -1.75680552      -0.65118808       1.41462032
H       -1.74154461       1.16602449       1.46061057
H        2.20694961      -1.05851129      -0.80242053
H        0.91979856      -1.62666869       0.27754275
H        2.07398441       1.21945938       0.06333569
13
Frame=12 idx=009296 GeodesicLength=1.3651946419205194 rxn_smarts="[C:1]([O:2][C:3](=[O:4])[C:5]([C:6](=[O:7])[H:13])([H:11])[H:12])([H:8])([H:9])[H:10]>>[C:1]([O:7][C:6](=[C:5]([H:11])[H:12])[H:13])([H:8])([H:9])[H:10].[O:2]=[C:3]=[O:4]"
C       -1.58607248       0.26702424       0.83612303
O       -1.16206082      -0.47243539      -1.06292586
C       -0.06626847      -0.19972678      -1.59568724
O        0.24300550       0.65558831      -2.36218180
C        1.30134005      -0.79063068      -0.27787796
C        1.46369197       0.40624012       0.48825968
O        0.62564229       0.78911545       1.34312946
H       -2.52378777       0.24178462       0.27775504
H       -1.74968708      -0.60252807       1.47536568
H       -1.74921839       1.21331170       1.34853343
H        2.21055207      -1.07645251      -0.80258707
H        0.92773795      -1.64292261       0.28487707
H        2.06512517       1.21163160       0.04721656
13
Frame=13 idx=009296 GeodesicLength=1.4841273504439265 rxn_smarts="[C:1]([O:2][C:3](=[O:4])[C:5]([C:6](=[O:7])[H:13])([H:11])[H:12])([H:8])([H:9])[H:10]>>[C:1]([O:7][C:6](=[C:5]([H:11])[H:12])[H:13])([H:8])([H:9])[H:10].[O:2]=[C:3]=[O:4]"
C       -1.57832500       0.25810159       0.81432610
O       -1.16717425      -0.50588350      -1.07808018
C       -0.08540641      -0.17209259      -1.60253364
O        0.20245254       0.75011294      -2.29347150
C        1.30986273      -0.80580473      -0.26656378
C        1.48331673       0.39018463       0.49334011
O        0.65707732       0.76858483       1.36641839
H       -2.52586430       0.16709577       0.27754753
H       -1.74332709      -0.54878467       1.53256381
H       -1.75446870       1.24816988       1.23209679
H        2.21228264      -1.09589140      -0.80093984
H        0.93229685      -1.65705690       0.29440708
H        2.05727693       1.20326414       0.03088915
13
Frame=14 idx=009296 GeodesicLength=1.6050846904205902 rxn_smarts="[C:1]([O:2][C:3](=[O:4])[C:5]([C:6](=[O:7])[H:13])([H:11])[H:12])([H:8])([H:9])[H:10]>>[C:1]([O:7][C:6](=[C:5]([H:11])[H:12])[H:13])([H:8])([H:9])[H:10].[O:2]=[C:3]=[O:4]"
C       -1.56886764       0.24589847       0.79352976
O       -1.17150845      -0.53340764      -1.09666321
C       -0.10532340      -0.14098551      -1.60998208
O        0.16073146       0.84056092      -2.22004809
C        1.31666698      -0.82044333      -0.25412881
C        1.50290922       0.37566345       0.49736781
O        0.68922571       0.75231201       1.38767360
H       -2.52290214       0.09173833       0.28099233
H       -1.73735634      -0.48939579       1.58582720
H       -1.75875835       1.27003830       1.11302733
H        2.21161643      -1.11727350      -0.79750128
H        0.93299184      -1.66884916       0.30607834
H        2.05057468       1.19414347       0.01382711
13
Frame=15 idx=009296 GeodesicLength=1.729160612750883 rxn_smarts="[C:1]([O:2][C:3](=[O:4])[C:5]([C:6](=[O:7])[H:13])([H:11])[H:12])([H:8])([H:9])[H:10]>>[C:1]([O:7][C:6](=[C:5]([H:11])[H:12])[H:13])([H:8])([H:9])[H:10].[O:2]=[C:3]=[O:4]"
C       -1.55787142       0.23109536       0.77383511
O       -1.17537599      -0.55557378      -1.11835550
C       -0.12612181      -0.10620801      -1.61801487
O        0.11727134       0.92758232      -2.14212718
C        1.32210559      -0.83480325      -0.24040436
C        1.52284687       0.36245431       0.50022509
O        0.72250808       0.74003053       1.40698474
H       -2.51485747       0.01592669       0.28720010
H       -1.73209496      -0.42427711       1.63388841
H       -1.76321517       1.27898225       0.99312430
H        2.20898251      -1.14074640      -0.79225396
H        0.93026504      -1.67866821       0.32036613
H        2.04555739       1.18420529      -0.00446800
13
Frame=16 idx=009296 GeodesicLength=1.8564952313098575 rxn_smarts="[C:1]([O:2][C:3](=[O:4])[C:5]([C:6](=[O:7])[H:13])([H:11])[H:12])([H:8])([H:9])[H:10]>>[C:1]([O:7][C:6](=[C:5]([H:11])[H:12])[H:13])([H:8])([H:9])[H:10].[O:2]=[C:3]=[O:4]"
C       -1.54495493       0.21467156       0.75514690
O       -1.17818412      -0.57252559      -1.14304101
C       -0.14771362      -0.06747081      -1.62626110
O        0.07272792       1.01077099      -2.05906790
C        1.32598156      -0.84894763      -0.22557680
C        1.54304712       0.35024024       0.50190814
O        0.75724193       0.73131463       1.42460816
H       -2.50083853      -0.06156429       0.29593357
H       -1.72737240      -0.35258097       1.67559884
H       -1.76903302       1.27554328       0.87376627
H        2.20376391      -1.16639032      -0.78557355
H        0.92405917      -1.68632394       0.33678884
H        2.04127501       1.17326287      -0.02423037
