10
Frame=0 idx=001792 GeodesicLength=0.0 rxn_smarts="[O:1]([c:2]1[c:3]([H:8])[c:4]([H:9])[n:5][n:6]1[H:10])[H:7]>>[O:1]([c+:2]1[c:3]([H:8])[c-:4][n:5]([H:9])[n:6]1[H:10])[H:7]"
O       -1.96183488       0.12601398       0.19621749
C       -0.63115258       0.06135321       0.10310053
C        0.38175428       0.93534733       0.40930838
C        1.60513057       0.24832768       0.19993255
N        1.27164961      -1.01543637      -0.28171784
N       -0.09184596      -1.07157852      -0.37657760
H       -2.21381404       0.97523995       0.56576430
H        0.26590288       1.94505615       0.77068828
H        1.94507046      -0.28176554      -0.97166478
H       -0.57086034      -1.92255786      -0.61505131
10
Frame=1 idx=001792 GeodesicLength=0.032842989793258816 rxn_smarts="[O:1]([c:2]1[c:3]([H:8])[c:4]([H:9])[n:5][n:6]1[H:10])[H:7]>>[O:1]([c+:2]1[c:3]([H:8])[c-:4][n:5]([H:9])[n:6]1[H:10])[H:7]"
O       -1.96421195       0.12568041       0.19842403
C       -0.63309155       0.06035239       0.10660496
C        0.38020978       0.93467317       0.41024388
C        1.60218993       0.24529882       0.19995093
N        1.26917773      -1.01271901      -0.28368231
N       -0.09396282      -1.06814880      -0.38452383
H       -2.21578248       0.97526145       0.56734543
H        0.26577400       1.94570850       0.76820578
H        1.96176607      -0.28288560      -0.97271210
H       -0.57206870      -1.92322134      -0.60985676
10
Frame=2 idx=001792 GeodesicLength=0.06570454206931832 rxn_smarts="[O:1]([c:2]1[c:3]([H:8])[c:4]([H:9])[n:5][n:6]1[H:10])[H:7]>>[O:1]([c+:2]1[c:3]([H:8])[c-:4][n:5]([H:9])[n:6]1[H:10])[H:7]"
O       -1.96663754       0.12521352       0.20104227
C       -0.63512992       0.05962568       0.10945346
C        0.37854820       0.93428892       0.41054522
C        1.59912022       0.24227984       0.20020661
N        1.26657944      -1.01018503      -0.28496258
N       -0.09615392      -1.06466720      -0.39233693
H       -2.21770289       0.97451034       0.57087132
H        0.26549861       1.94695030       0.76417628
H        1.97922737      -0.28486549      -0.97258535
H       -0.57334957      -1.92315089      -0.60641029
10
Frame=3 idx=001792 GeodesicLength=0.09860256169073822 rxn_smarts="[O:1]([c:2]1[c:3]([H:8])[c:4]([H:9])[n:5][n:6]1[H:10])[H:7]>>[O:1]([c+:2]1[c:3]([H:8])[c-:4][n:5]([H:9])[n:6]1[H:10])[H:7]"
O       -1.96916868       0.12488529       0.20342331
C       -0.63733145       0.05949662       0.11088914
C        0.37672186       0.93438113       0.40980566
C        1.59584844       0.23920628       0.20094800
N        1.26378724      -1.00791008      -0.28530414
N       -0.09843663      -1.06097138      -0.40040708
H       -2.21950515       0.97227199       0.57801184
H        0.26503282       1.94899740       0.75807644
H        1.99785031      -0.28803894      -0.97072230
H       -0.57479877      -1.92231831      -0.60472089
10
Frame=4 idx=001792 GeodesicLength=0.13146096548404734 rxn_smarts="[O:1]([c:2]1[c:3]([H:8])[c:4]([H:9])[n:5][n:6]1[H:10])[H:7]>>[O:1]([c+:2]1[c:3]([H:8])[c-:4][n:5]([H:9])[n:6]1[H:10])[H:7]"
O       -1.97176786       0.12436096       0.20639891
C       -0.63969870       0.05994930       0.11098415
C        0.37475736       0.93484183       0.40823612
C        1.59236751       0.23601151       0.20225643
N        1.26077587      -1.00585633      -0.28489118
N       -0.10080214      -1.05700585      -0.40894213
H       -2.22119352       0.96881948       0.58806749
H        0.26441782       1.95185642       0.74976019
H        2.01760947      -0.29226289      -0.96701657
H       -0.57646581      -1.92071443      -0.60485341
10
Frame=5 idx=001792 GeodesicLength=0.16433846261572044 rxn_smarts="[O:1]([c:2]1[c:3]([H:8])[c:4]([H:9])[n:5][n:6]1[H:10])[H:7]>>[O:1]([c+:2]1[c:3]([H:8])[c-:4][n:5]([H:9])[n:6]1[H:10])[H:7]"
O       -1.97425145       0.12339216       0.21036398
C       -0.64189385       0.05947237       0.11329800
C        0.37288352       0.93494882       0.40751849
C        1.58908435       0.23329010       0.20224803
N        1.25794990      -1.00344717      -0.28552342
N       -0.10311652      -1.05345088      -0.41627444
H       -2.22307829       0.96725917       0.59363381
H        0.26385093       1.95379585       0.74377573
H        2.03647293      -0.29583332      -0.96475131
H       -0.57790152      -1.91942709      -0.60428887
10
Frame=6 idx=001792 GeodesicLength=0.1972442696067418 rxn_smarts="[O:1]([c:2]1[c:3]([H:8])[c:4]([H:9])[n:5][n:6]1[H:10])[H:7]>>[O:1]([c+:2]1[c:3]([H:8])[c-:4][n:5]([H:9])[n:6]1[H:10])[H:7]"
O       -1.97663471       0.12183459       0.21569632
C       -0.64398893       0.05843348       0.11694436
C        0.37104618       0.93481026       0.40738384
C        1.58589717       0.23081918       0.20151238
N        1.25518550      -1.00083445      -0.28681748
N       -0.10545459      -1.05007876      -0.42299242
H       -2.22513088       0.96697408       0.59628086
H        0.26328938       1.95532560       0.73879242
H        2.05502679      -0.29910855      -0.96306179
H       -0.57923590      -1.91817543      -0.60373849
10
Frame=7 idx=001792 GeodesicLength=0.23020001501800907 rxn_smarts="[O:1]([c:2]1[c:3]([H:8])[c:4]([H:9])[n:5][n:6]1[H:10])[H:7]>>[O:1]([c+:2]1[c:3]([H:8])[c-:4][n:5]([H:9])[n:6]1[H:10])[H:7]"
O       -1.97900661       0.12007608       0.22155205
C       -0.64608060       0.05727168       0.12093163
C        0.36918390       0.93463253       0.40737101
C        1.58269844       0.22844360       0.20053541
N        1.25237688      -0.99816314      -0.28830828
N       -0.10785559      -1.04669094      -0.42956106
H       -2.22723309       0.96683631       0.59860394
H        0.26267408       1.95691003       0.73355244
H        2.07384743      -0.30255729      -0.96104668
H       -0.58060485      -1.91675884      -0.60363044
10
Frame=8 idx=001792 GeodesicLength=0.2631484439664731 rxn_smarts="[O:1]([c:2]1[c:3]([H:8])[c:4]([H:9])[n:5][n:6]1[H:10])[H:7]>>[O:1]([c+:2]1[c:3]([H:8])[c-:4][n:5]([H:9])[n:6]1[H:10])[H:7]"
O       -1.98143236       0.11834852       0.22737454
C       -0.64827242       0.05632083       0.12437881
C        0.36723013       0.93461430       0.40707523
C        1.57938723       0.22605134       0.19976277
N        1.24942857      -0.99554344      -0.28956701
N       -0.11033959      -1.04307862      -0.43639297
H       -2.22926566       0.96589528       0.60286870
H        0.26195007       1.95900317       0.72683753
H        2.09342676      -0.30669442      -0.95782843
H       -0.58211274      -1.91491698      -0.60450917
10
Frame=9 idx=001792 GeodesicLength=0.2960808324499905 rxn_smarts="[O:1]([c:2]1[c:3]([H:8])[c:4]([H:9])[n:5][n:6]1[H:10])[H:7]>>[O:1]([c+:2]1[c:3]([H:8])[c-:4][n:5]([H:9])[n:6]1[H:10])[H:7]"
O       -1.98396815       0.11676437       0.23288688
C       -0.65060659       0.05575711       0.12694496
C        0.36516524       0.93483678       0.40629217
C        1.57593825       0.22360800       0.19931715
N        1.24630074      -0.99302188      -0.29046860
N       -0.11292668      -1.03917744      -0.44370106
H       -2.23117836       0.96377619       0.60998106
H        0.26111651       1.96172710       0.71823770
H        2.11395977      -0.31166782      -0.95300865
H       -0.58380073      -1.91260242      -0.60648162
10
Frame=10 idx=001792 GeodesicLength=0.32904244935412674 rxn_smarts="[O:1]([c:2]1[c:3]([H:8])[c:4]([H:9])[n:5][n:6]1[H:10])[H:7]>>[O:1]([c+:2]1[c:3]([H:8])[c-:4][n:5]([H:9])[n:6]1[H:10])[H:7]"
O       -1.98648290       0.11497822       0.23904409
C       -0.65301226       0.05555233       0.12885615
C        0.36295756       0.93528077       0.40503392
C        1.57227255       0.22105416       0.19919110
N        1.24297744      -0.99061417      -0.29100740
N       -0.11557489      -1.03497941      -0.45141181
H       -2.23297087       0.96064975       0.61945267
H        0.26006430       1.96509856       0.70733262
H        2.13553451      -0.31753188      -0.94631706
H       -0.58576542      -1.90948834      -0.61017428
10
Frame=11 idx=001792 GeodesicLength=0.3619995834000351 rxn_smarts="[O:1]([c:2]1[c:3]([H:8])[c:4]([H:9])[n:5][n:6]1[H:10])[H:7]>>[O:1]([c+:2]1[c:3]([H:8])[c-:4][n:5]([H:9])[n:6]1[H:10])[H:7]"
O       -1.98898181       0.11283430       0.24599621
C       -0.65548376       0.05541371       0.13058686
C        0.36069961       0.93580760       0.40370937
C        1.56854766       0.21858610       0.19897405
N        1.23953537      -0.98812366      -0.29172337
N       -0.11831737      -1.03055800      -0.45937909
H       -2.23473823       0.95736850       0.62928147
H        0.25894477       1.96866021       0.69569453
H        2.15763415      -0.32388967      -0.93867284
H       -0.58784039      -1.90609909      -0.61446719
10
Frame=12 idx=001792 GeodesicLength=0.394997070105928 rxn_smarts="[O:1]([c:2]1[c:3]([H:8])[c:4]([H:9])[n:5][n:6]1[H:10])[H:7]>>[O:1]([c+:2]1[c:3]([H:8])[c-:4][n:5]([H:9])[n:6]1[H:10])[H:7]"
O       -1.99142370       0.11035718       0.25372774
C       -0.65795913       0.05519686       0.13255363
C        0.35840616       0.93632409       0.40249034
C        1.56479946       0.21626424       0.19840478
N        1.23602809      -0.98549700      -0.29280603
N       -0.12113852      -1.02602567      -0.46733411
H       -2.23652770       0.95428086       0.63867961
H        0.25774689       1.97218606       0.68383373
H        2.18004155      -0.33053193      -0.93043164
H       -0.58997310      -1.90255468      -0.61911805
10
Frame=13 idx=001792 GeodesicLength=0.42798336357389366 rxn_smarts="[O:1]([c:2]1[c:3]([H:8])[c:4]([H:9])[n:5][n:6]1[H:10])[H:7]>>[O:1]([c+:2]1[c:3]([H:8])[c-:4][n:5]([H:9])[n:6]1[H:10])[H:7]"
O       -1.99383579       0.10771382       0.26183670
C       -0.66046354       0.05495984       0.13460311
C        0.35606652       0.93689701       0.40123004
C        1.56102020       0.21411999       0.19746220
N        1.23245993      -0.98273885      -0.29418690
N       -0.12402818      -1.02138012      -0.47529104
H       -2.23830524       0.95113944       0.64820082
H        0.25645467       1.97571205       0.67169187
H        2.20279603      -0.33758862      -0.92145043
H       -0.59216460      -1.89883457      -0.62409638
10
Frame=14 idx=001792 GeodesicLength=0.4610041638926441 rxn_smarts="[O:1]([c:2]1[c:3]([H:8])[c:4]([H:9])[n:5][n:6]1[H:10])[H:7]>>[O:1]([c+:2]1[c:3]([H:8])[c-:4][n:5]([H:9])[n:6]1[H:10])[H:7]"
O       -1.99612727       0.10461712       0.27098366
C       -0.66291140       0.05448072       0.13726381
C        0.35373209       0.93736846       0.40026983
C        1.55728493       0.21221445       0.19586065
N        1.22888559      -0.97975884      -0.29621287
N       -0.12700619      -1.01672139      -0.48302866
H       -2.24021103       0.94868870       0.65609754
H        0.25509370       1.97894549       0.66010231
H        2.22562426      -0.34472946      -0.91230306
H       -0.59436468      -1.89510524      -0.62903320
10
Frame=15 idx=001792 GeodesicLength=0.4940293636430352 rxn_smarts="[O:1]([c:2]1[c:3]([H:8])[c:4]([H:9])[n:5][n:6]1[H:10])[H:7]>>[O:1]([c+:2]1[c:3]([H:8])[c-:4][n:5]([H:9])[n:6]1[H:10])[H:7]"
O       -1.99837395       0.10146627       0.28024840
C       -0.66535117       0.05394515       0.14008472
C        0.35136392       0.93788743       0.39927190
C        1.55354669       0.21056778       0.19367259
N        1.22528063      -0.97660122      -0.29866445
N       -0.13006278      -1.01201834      -0.49065351
H       -2.24213184       0.94626821       0.66388382
H        0.25362266       1.98205179       0.64870110
H        2.24870526      -0.35223886      -0.90258469
H       -0.59659941      -1.89132820      -0.63395988
10
Frame=16 idx=001792 GeodesicLength=0.5270629765627366 rxn_smarts="[O:1]([c:2]1[c:3]([H:8])[c:4]([H:9])[n:5][n:6]1[H:10])[H:7]>>[O:1]([c+:2]1[c:3]([H:8])[c-:4][n:5]([H:9])[n:6]1[H:10])[H:7]"
O       -2.00052688       0.09808890       0.29003512
C       -0.66774941       0.05327986       0.14323907
C        0.34898488       0.93839320       0.39837210
C        1.54983471       0.20919759       0.19079900
N        1.22166090      -0.97322904      -0.30168074
N       -0.13321452      -1.00729041      -0.49811702
H       -2.24413339       0.94417274       0.67085056
H        0.25204950       1.98494792       0.63774919
H        2.27195356      -0.36001876      -0.89244891
H       -0.59885935      -1.88754200      -0.63879837
