13
Frame=0 idx=001025 GeodesicLength=0.0 rxn_smarts="[C:1]1([H:7])([H:8])[C@@:2]2([H:9])[C@:3]3([H:10])[C:4]([H:11])([H:12])[N:5]2[C@:6]13[H:13]>>[C:1]1([H:7])([H:8])[C@@:2]2([H:9])[C@:3]([H:10])([C:4]([H:11])([H:12])[N:5]2[H:13])[C:6]1"
C       -1.60710213       0.06902893       0.01451083
C       -0.38379995      -0.68638541       0.46072461
C        0.40583545      -0.31962961      -0.81138906
C        1.56616813       0.11788435       0.04451291
N        0.47965652       0.45148013       1.02542005
C       -0.48957058       0.94887488      -0.57969212
H       -2.18062156      -0.44228456      -0.76017518
H       -2.26405973       0.51807918       0.75960980
H       -0.35020752      -1.62297124       1.03235974
H        0.40950449      -0.84504991      -1.76688011
H        2.13933962       0.98920590      -0.28277481
H        2.23088235      -0.65780849       0.43157081
H        0.04397485       1.47957586       0.43220258
13
Frame=1 idx=001025 GeodesicLength=0.06612388948581546 rxn_smarts="[C:1]1([H:7])([H:8])[C@@:2]2([H:9])[C@:3]3([H:10])[C:4]([H:11])([H:12])[N:5]2[C@:6]13[H:13]>>[C:1]1([H:7])([H:8])[C@@:2]2([H:9])[C@:3]([H:10])([C:4]([H:11])([H:12])[N:5]2[H:13])[C:6]1"
C       -1.60404224       0.07053105       0.01292303
C       -0.38297513      -0.68904055       0.46402906
C        0.40278722      -0.32482756      -0.81195705
C        1.56344550       0.11820824       0.04403359
N        0.48009958       0.44601791       1.02869116
C       -0.48509347       0.94524314      -0.58212819
H       -2.17948544      -0.43796068      -0.76243685
H       -2.26246769       0.52208873       0.75536302
H       -0.35712928      -1.62711151       1.03242322
H        0.41629009      -0.85534489      -1.76428336
H        2.12742762       0.99406267      -0.28797905
H        2.23703963      -0.65372639       0.42246081
H        0.04410360       1.49185981       0.44886061
13
Frame=2 idx=001025 GeodesicLength=0.1322324545182347 rxn_smarts="[C:1]1([H:7])([H:8])[C@@:2]2([H:9])[C@:3]3([H:10])[C:4]([H:11])([H:12])[N:5]2[C@:6]13[H:13]>>[C:1]1([H:7])([H:8])[C@@:2]2([H:9])[C@:3]([H:10])([C:4]([H:11])([H:12])[N:5]2[H:13])[C:6]1"
C       -1.60095253       0.07203424       0.01132162
C       -0.38214617      -0.69172511       0.46727039
C        0.39974783      -0.33011376      -0.81258535
C        1.56069600       0.11853693       0.04349822
N        0.48053076       0.44057179       1.03186312
C       -0.48062266       0.94152594      -0.58470317
H       -2.17836458      -0.43364570      -0.76465932
H       -2.26077703       0.52615998       0.75110604
H       -0.36411835      -1.63117653       1.03247962
H        0.42315844      -0.86571021      -1.76162136
H        2.11545199       0.99884737      -0.29312903
H        2.24313770      -0.64946925       0.41326495
H        0.04425860       1.50416432       0.46589427
13
Frame=3 idx=001025 GeodesicLength=0.198327261232703 rxn_smarts="[C:1]1([H:7])([H:8])[C@@:2]2([H:9])[C@:3]3([H:10])[C:4]([H:11])([H:12])[N:5]2[C@:6]13[H:13]>>[C:1]1([H:7])([H:8])[C@@:2]2([H:9])[C@:3]([H:10])([C:4]([H:11])([H:12])[N:5]2[H:13])[C:6]1"
C       -1.59783343       0.07353909       0.00970463
C       -0.38131380      -0.69443882       0.47044643
C        0.39671846      -0.33549106      -0.81327527
C        1.55791908       0.11887128       0.04290423
N        0.48094874       0.43514164       1.03493283
C       -0.47616120       0.93771680      -0.58742949
H       -2.17726157      -0.42934358      -0.76684004
H       -2.25898504       0.53029922       0.74683597
H       -0.37117580      -1.63516471       1.03252782
H        0.43011179      -0.87615121      -1.75889116
H        2.10341203       1.00356275      -0.29822664
H        2.24917485      -0.64503379       0.40398268
H        0.04444588       1.51649239       0.48332801
13
Frame=4 idx=001025 GeodesicLength=0.26442237631061677 rxn_smarts="[C:1]1([H:7])([H:8])[C@@:2]2([H:9])[C@:3]3([H:10])[C:4]([H:11])([H:12])[N:5]2[C@:6]13[H:13]>>[C:1]1([H:7])([H:8])[C@@:2]2([H:9])[C@:3]([H:10])([C:4]([H:11])([H:12])[N:5]2[H:13])[C:6]1"
C       -1.59468537       0.07504662       0.00806959
C       -0.38047927      -0.69718170       0.47355453
C        0.39370050      -0.34096343      -0.81402826
C        1.55511347       0.11921317       0.04224899
N        0.48135189       0.42972636       1.03789691
C       -0.47171225       0.93380768      -0.59032190
H       -2.17617966      -0.42505835      -0.76897606
H       -2.25708829       0.53451449       0.74254915
H       -0.37830353      -1.63907498       1.03256579
H        0.43715332      -0.88667523      -1.75608859
H        2.09130532       1.00821261      -0.30327513
H        2.25515008      -0.64041488       0.39461313
H        0.04467379       1.52884761       0.50119184
13
Frame=5 idx=001025 GeodesicLength=0.33051434073698466 rxn_smarts="[C:1]1([H:7])([H:8])[C@@:2]2([H:9])[C@:3]3([H:10])[C:4]([H:11])([H:12])[N:5]2[C@:6]13[H:13]>>[C:1]1([H:7])([H:8])[C@@:2]2([H:9])[C@:3]([H:10])([C:4]([H:11])([H:12])[N:5]2[H:13])[C:6]1"
C       -1.59150871       0.07655751       0.00641383
C       -0.37964336      -0.69995305       0.47659261
C        0.39069506      -0.34653434      -0.81484570
C        1.55227873       0.11956370       0.04152890
N        0.48173865       0.42432713       1.04075172
C       -0.46727866       0.92979189      -0.59339332
H       -2.17512115      -0.42079447      -0.77106541
H       -2.25508397       0.53881216       0.73824135
H       -0.38550229      -1.64290454       1.03259378
H        0.44428483      -0.89728829      -1.75321078
H        2.07913089       1.01279932      -0.30827680
H        2.26106121      -0.63560863       0.38515517
H        0.04494878       1.54123162       0.51951465
13
Frame=6 idx=001025 GeodesicLength=0.3966137541239788 rxn_smarts="[C:1]1([H:7])([H:8])[C@@:2]2([H:9])[C@:3]3([H:10])[C:4]([H:11])([H:12])[N:5]2[C@:6]13[H:13]>>[C:1]1([H:7])([H:8])[C@@:2]2([H:9])[C@:3]([H:10])([C:4]([H:11])([H:12])[N:5]2[H:13])[C:6]1"
C       -1.58830368       0.07807292       0.00473393
C       -0.37880735      -0.70275247       0.47955815
C        0.38770349      -0.35220918      -0.81572953
C        1.54941315       0.11992502       0.04074009
N        0.48210760       0.41894405       1.04349237
C       -0.46286345       0.92566063      -0.59665988
H       -2.17408934      -0.41655657      -0.77310556
H       -2.25296831       0.54320154       0.73390739
H       -0.39277404      -1.64665099       1.03261103
H        0.45150959      -0.90799870      -1.75025281
H        2.06688491       1.01732933      -0.31323587
H        2.26690720      -0.63061078       0.37560796
H        0.04528023       1.55364521       0.53833273
13
Frame=7 idx=001025 GeodesicLength=0.46272974114008414 rxn_smarts="[C:1]1([H:7])([H:8])[C@@:2]2([H:9])[C@:3]3([H:10])[C:4]([H:11])([H:12])[N:5]2[C@:6]13[H:13]>>[C:1]1([H:7])([H:8])[C@@:2]2([H:9])[C@:3]([H:10])([C:4]([H:11])([H:12])[N:5]2[H:13])[C:6]1"
C       -1.58507049       0.07959401       0.00302567
C       -0.37797264      -0.70557918       0.48244849
C        0.38472721      -0.35799336      -0.81668151
C        1.54651530       0.12029993       0.03987780
N        0.48245646       0.41357887       1.04611384
C       -0.45846991       0.92140488      -0.60013865
H       -2.17308726      -0.41234997      -0.77509436
H       -2.25073742       0.54769193       0.72954063
H       -0.40012018      -1.65031075       1.03261818
H        0.45883016      -0.91881576      -1.74721071
H        2.05456379       1.02180596      -0.31815648
H        2.27268597      -0.62541402       0.36596952
H        0.04567899       1.56608748       0.55768758
13
Frame=8 idx=001025 GeodesicLength=0.5288602884510243 rxn_smarts="[C:1]1([H:7])([H:8])[C@@:2]2([H:9])[C@:3]3([H:10])[C:4]([H:11])([H:12])[N:5]2[C@:6]13[H:13]>>[C:1]1([H:7])([H:8])[C@@:2]2([H:9])[C@:3]([H:10])([C:4]([H:11])([H:12])[N:5]2[H:13])[C:6]1"
C       -1.58180913       0.08112177       0.00128498
C       -0.37714057      -0.70843256       0.48526155
C        0.38176759      -0.36389267      -0.81770313
C        1.54358382       0.12068998       0.03893788
N        0.48278353       0.40823241       1.04861129
C       -0.45410044       0.91701634      -0.60384471
H       -2.17211764      -0.40817951      -0.77703043
H       -2.24838754       0.55229251       0.72513459
H       -0.40754267      -1.65388061       1.03261572
H        0.46624927      -0.92974758      -1.74407914
H        2.04216366       1.02623403      -0.32304485
H        2.27839649      -0.62001234       0.35623849
H        0.04615364       1.57855822       0.57761776
13
Frame=9 idx=001025 GeodesicLength=0.5949916909291829 rxn_smarts="[C:1]1([H:7])([H:8])[C@@:2]2([H:9])[C@:3]3([H:10])[C:4]([H:11])([H:12])[N:5]2[C@:6]13[H:13]>>[C:1]1([H:7])([H:8])[C@@:2]2([H:9])[C@:3]([H:10])([C:4]([H:11])([H:12])[N:5]2[H:13])[C:6]1"
C       -1.57851950       0.08265745      -0.00049226
C       -0.37631184      -0.71131107       0.48799538
C        0.37882581      -0.36991197      -0.81879608
C        1.54061767       0.12109792       0.03791474
N        0.48308732       0.40290827       1.05097926
C       -0.44975769       0.91248716      -0.60779293
H       -2.17118252      -0.40405054      -0.77891186
H       -2.24591482       0.55701075       0.72068240
H       -0.41504156      -1.65735575       1.03260575
H        0.47376850      -0.94080163      -1.74085510
H        2.02968257       1.03061590      -0.32790465
H        2.28403592      -0.61440212       0.34641412
H        0.04671014       1.59105563       0.59816123
13
Frame=10 idx=001025 GeodesicLength=0.6611448374996611 rxn_smarts="[C:1]1([H:7])([H:8])[C@@:2]2([H:9])[C@:3]3([H:10])[C:4]([H:11])([H:12])[N:5]2[C@:6]13[H:13]>>[C:1]1([H:7])([H:8])[C@@:2]2([H:9])[C@:3]([H:10])([C:4]([H:11])([H:12])[N:5]2[H:13])[C:6]1"
C       -1.57520160       0.08420283      -0.00231245
C       -0.37548883      -0.71421363       0.49064698
C        0.37590343      -0.37606056      -0.81996277
C        1.53761382       0.12152713       0.03680185
N        0.48336517       0.39760802       1.05321032
C       -0.44544509       0.90780469      -0.61200589
H       -2.17028599      -0.39996912      -0.78073731
H       -2.24331389       0.56186111       0.71617390
H       -0.42262031      -1.66073137       1.03258976
H        0.48139186      -0.95199225      -1.73753075
H        2.01711193       1.03496014      -0.33274287
H        2.28960370      -0.60857101       0.33649253
H        0.04736581       1.60357402       0.61937669
13
Frame=11 idx=001025 GeodesicLength=0.7273189252596967 rxn_smarts="[C:1]1([H:7])([H:8])[C@@:2]2([H:9])[C@:3]3([H:10])[C:4]([H:11])([H:12])[N:5]2[C@:6]13[H:13]>>[C:1]1([H:7])([H:8])[C@@:2]2([H:9])[C@:3]([H:10])([C:4]([H:11])([H:12])[N:5]2[H:13])[C:6]1"
C       -1.57185500       0.08575971      -0.00418162
C       -0.37467326      -0.71713851       0.49321418
C        0.37300227      -0.38234662      -0.82120481
C        1.53457027       0.12198044       0.03559320
N        0.48361513       0.39233477       1.05529759
C       -0.44116521       0.90295806      -0.61650281
H       -2.16943077      -0.39594107      -0.78250586
H       -2.24057966       0.56685545       0.71159907
H       -0.43028129      -1.66400202       1.03257013
H        0.48912229      -0.96333109      -1.73409977
H        2.00444524       1.03927249      -0.33756810
H        2.29509804      -0.60250966       0.32647113
H        0.04813194       1.61610803       0.64131766
13
Frame=12 idx=001025 GeodesicLength=0.7935065081707005 rxn_smarts="[C:1]1([H:7])([H:8])[C@@:2]2([H:9])[C@:3]3([H:10])[C:4]([H:11])([H:12])[N:5]2[C@:6]13[H:13]>>[C:1]1([H:7])([H:8])[C@@:2]2([H:9])[C@:3]([H:10])([C:4]([H:11])([H:12])[N:5]2[H:13])[C:6]1"
C       -1.56847964       0.08732932      -0.00610628
C       -0.37386683      -0.72008366       0.49569496
C        0.37012362      -0.38877793      -0.82252371
C        1.53148463       0.12246241       0.03428151
N        0.48383435       0.38709291       1.05723421
C       -0.43692156       0.89793636      -0.62130313
H       -2.16861979      -0.39197353      -0.78421621
H       -2.23770712       0.57200495       0.70694703
H       -0.43802567      -1.66716132       1.03255072
H        0.49696237      -0.97482973      -1.73055717
H        1.99167661       1.04355843      -0.34238559
H        2.30051583      -0.59620991       0.31634677
H        0.04902320       1.62865170       0.66403690
13
Frame=13 idx=001025 GeodesicLength=0.8597036000370861 rxn_smarts="[C:1]1([H:7])([H:8])[C@@:2]2([H:9])[C@:3]3([H:10])[C:4]([H:11])([H:12])[N:5]2[C@:6]13[H:13]>>[C:1]1([H:7])([H:8])[C@@:2]2([H:9])[C@:3]([H:10])([C:4]([H:11])([H:12])[N:5]2[H:13])[C:6]1"
C       -1.56507517       0.08891377      -0.00809472
C       -0.37307159      -0.72304604       0.49808672
C        0.36726900      -0.39536455      -0.82392217
C        1.52835347       0.12297781       0.03285780
N        0.48402005       0.38188942       1.05901023
C       -0.43271766       0.89272662      -0.62643057
H       -2.16785640      -0.38807365      -0.78586833
H       -2.23469018       0.57732515       0.70220383
H       -0.44585570      -1.67020048       1.03253629
H        0.50491610      -0.98650261      -1.72689303
H        1.97879646       1.04782487      -0.34720669
H        2.30585545      -0.58965920       0.30611645
H        0.05005618       1.64118889       0.68760420
13
Frame=14 idx=001025 GeodesicLength=0.9258993932657266 rxn_smarts="[C:1]1([H:7])([H:8])[C@@:2]2([H:9])[C@:3]3([H:10])[C:4]([H:11])([H:12])[N:5]2[C@:6]13[H:13]>>[C:1]1([H:7])([H:8])[C@@:2]2([H:9])[C@:3]([H:10])([C:4]([H:11])([H:12])[N:5]2[H:13])[C:6]1"
C       -1.56164101       0.09051482      -0.01015423
C       -0.37228957      -0.72602318       0.50038797
C        0.36444021      -0.40211586      -0.82540096
C        1.52517418       0.12353091       0.03131485
N        0.48416966       0.37672834       1.06061852
C       -0.42855655       0.88731636      -0.63190577
H       -2.16714341      -0.38424860      -0.78746144
H       -2.23152276       0.58282912       0.69735666
H       -0.45377382      -1.67311280       1.03253109
H        0.51298636      -0.99836304      -1.72310082
H        1.96579674       1.05207905      -0.35203864
H        2.31111395      -0.58284683       0.29577560
H        0.05124601       1.65371171       0.71207717
13
Frame=15 idx=001025 GeodesicLength=0.9920879010404038 rxn_smarts="[C:1]1([H:7])([H:8])[C@@:2]2([H:9])[C@:3]3([H:10])[C:4]([H:11])([H:12])[N:5]2[C@:6]13[H:13]>>[C:1]1([H:7])([H:8])[C@@:2]2([H:9])[C@:3]([H:10])([C:4]([H:11])([H:12])[N:5]2[H:13])[C:6]1"
C       -1.55817669       0.09213486      -0.01229478
C       -0.37152313      -0.72901098       0.50259637
C        0.36163902      -0.40904322      -0.82696232
C        1.52194265       0.12412817       0.02964241
N        0.48427954       0.37161842       1.06204796
C       -0.42444231       0.88169076      -0.63775518
H       -2.16648442      -0.38050694      -0.78899542
H       -2.22819765       0.58853435       0.69238836
H       -0.46178240      -1.67588774       1.03254166
H        0.52117780      -1.01042825      -1.71916988
H        1.95266531       1.05632959      -0.35689357
H        2.31628869      -0.57575870       0.28531993
H        0.05261358       1.66619967       0.73753447
13
Frame=16 idx=001025 GeodesicLength=1.0582558074538235 rxn_smarts="[C:1]1([H:7])([H:8])[C@@:2]2([H:9])[C@:3]3([H:10])[C:4]([H:11])([H:12])[N:5]2[C@:6]13[H:13]>>[C:1]1([H:7])([H:8])[C@@:2]2([H:9])[C@:3]([H:10])([C:4]([H:11])([H:12])[N:5]2[H:13])[C:6]1"
C       -1.55468163       0.09377615      -0.01452610
C       -0.37077474      -0.73200526       0.50471024
C        0.35886722      -0.41615811      -0.82860747
C        1.51865492       0.12477578       0.02783061
N        0.48434624       0.36656779       1.06328854
C       -0.42037885       0.87583465      -0.64400402
H       -2.16588271      -0.37685706      -0.79047053
H       -2.22470752       0.59445764       0.68728163
H       -0.46988413      -1.67851509       1.03257467
H        0.52949457      -1.02271468      -1.71508981
H        1.93939070       1.06058477      -0.36178269
H        2.32137649      -0.56837986       0.27474424
H        0.05417944       1.67863329       0.76405069
