17
Frame=0 idx=011264 GeodesicLength=0.0 rxn_smarts="[C:1]([C:2](=[O:3])[C:4]([C:5]([H:11])([H:12])[H:13])([C:6]([H:14])([H:15])[H:16])[O:7][H:17])([H:8])([H:9])[H:10]>>[C:1]([C@:2]1([O:3][H:17])[C:4]([C:5]([H:11])([H:12])[H:13])([C:6]([H:14])([H:15])[H:16])[O:7]1)([H:8])([H:9])[H:10]"
C        2.01116277       0.38573902      -0.19840284
C        0.87306563      -0.53840333      -0.03118919
O        1.13925865      -1.79742254      -0.04764536
C       -0.54416289      -0.17685329       0.28591595
C       -0.74097072       1.31407154       0.54863000
C       -1.54899041      -0.67256579      -0.75974638
O       -0.51659406      -0.93084150       1.43749865
H        1.76958949       1.17432255      -0.91085496
H        2.91225966      -0.15073413      -0.48648544
H        2.17912631       0.86593170       0.76939597
H       -0.04769076       1.66578293       1.31351250
H       -1.75042778       1.45234277       0.93646496
H       -0.63349231       1.92394918      -0.35280481
H       -2.54418906      -0.59235497      -0.31908793
H       -1.37651882      -1.72225125      -1.00401485
H       -1.52408685      -0.08825540      -1.68369616
H        0.34266120      -2.11245745       0.50250995
17
Frame=1 idx=011264 GeodesicLength=0.0753787307929065 rxn_smarts="[C:1]([C:2](=[O:3])[C:4]([C:5]([H:11])([H:12])[H:13])([C:6]([H:14])([H:15])[H:16])[O:7][H:17])([H:8])([H:9])[H:10]>>[C:1]([C@:2]1([O:3][H:17])[C:4]([C:5]([H:11])([H:12])[H:13])([C:6]([H:14])([H:15])[H:16])[O:7]1)([H:8])([H:9])[H:10]"
C        2.00886967       0.38370853      -0.20412292
C        0.87335572      -0.54149385      -0.01805131
O        1.14299852      -1.80132465      -0.02815870
C       -0.54515722      -0.17240200       0.28206272
C       -0.74635198       1.31530091       0.55333789
C       -1.54320880      -0.66974517      -0.76729435
O       -0.51103718      -0.93227859       1.43243293
H        1.75629033       1.17838198      -0.90558263
H        2.90180569      -0.15106451      -0.51983503
H        2.20130621       0.85488217       0.76344125
H       -0.05436867       1.66606686       1.31968338
H       -1.75724897       1.44946900       0.93910475
H       -0.63858362       1.92924921      -0.34512170
H       -2.54093273      -0.59327628      -0.33167936
H       -1.36774355      -1.71854125      -1.01295400
H       -1.51262231      -0.08268977      -1.68919463
H        0.33262887      -2.11424258       0.53193171
17
Frame=2 idx=011264 GeodesicLength=0.15074752551854279 rxn_smarts="[C:1]([C:2](=[O:3])[C:4]([C:5]([H:11])([H:12])[H:13])([C:6]([H:14])([H:15])[H:16])[O:7][H:17])([H:8])([H:9])[H:10]>>[C:1]([C@:2]1([O:3][H:17])[C:4]([C:5]([H:11])([H:12])[H:13])([C:6]([H:14])([H:15])[H:16])[O:7]1)([H:8])([H:9])[H:10]"
C        2.00657077       0.38160895      -0.20973538
C        0.87366221      -0.54437088      -0.00490879
O        1.14689588      -1.80493820      -0.00895785
C       -0.54598097      -0.16795995       0.27829900
C       -0.75182202       1.31648794       0.55795419
C       -1.53725315      -0.66698214      -0.77471007
O       -0.50549289      -0.93343786       1.42761518
H        1.74343189       1.18262967      -0.89967326
H        2.89034543      -0.15152428      -0.55313523
H        2.22391200       0.84334583       0.75699282
H       -0.06124179       1.66648008       1.32577433
H       -1.76417301       1.44650147       0.94157155
H       -0.64381147       1.93446195      -0.33753942
H       -2.53747943      -0.59430283      -0.34418566
H       -1.35872800      -1.71487955      -1.02170365
H       -1.50105053      -0.07724214      -1.69455442
H        0.32221508      -2.11587806       0.56089668
17
Frame=3 idx=011264 GeodesicLength=0.22608860066220055 rxn_smarts="[C:1]([C:2](=[O:3])[C:4]([C:5]([H:11])([H:12])[H:13])([C:6]([H:14])([H:15])[H:16])[O:7][H:17])([H:8])([H:9])[H:10]>>[C:1]([C@:2]1([O:3][H:17])[C:4]([C:5]([H:11])([H:12])[H:13])([C:6]([H:14])([H:15])[H:16])[O:7]1)([H:8])([H:9])[H:10]"
C        2.00428512       0.37945015      -0.21521716
C        0.87398349      -0.54703014       0.00817105
O        1.15094947      -1.80826263       0.00988904
C       -0.54663216      -0.16352367       0.27460097
C       -0.75737354       1.31763627       0.56245221
C       -1.53115896      -0.66428536      -0.78197431
O       -0.49990892      -0.93432821       1.42301969
H        1.73108769       1.18708028      -0.89310807
H        2.87792017      -0.15207801      -0.58624268
H        2.24689428       0.83130194       0.75005174
H       -0.06830623       1.66702512       1.33176265
H       -1.77118609       1.44344730       0.94385149
H       -0.64916487       1.93958259      -0.33009129
H       -2.53384564      -0.59544886      -0.35654504
H       -1.34951837      -1.71127631      -1.03024333
H       -1.48945225      -0.07192283      -1.69976032
H        0.31142681      -2.11736762       0.58938337
17
Frame=4 idx=011264 GeodesicLength=0.30139629907642684 rxn_smarts="[C:1]([C:2](=[O:3])[C:4]([C:5]([H:11])([H:12])[H:13])([C:6]([H:14])([H:15])[H:16])[O:7][H:17])([H:8])([H:9])[H:10]>>[C:1]([C@:2]1([O:3][H:17])[C:4]([C:5]([H:11])([H:12])[H:13])([C:6]([H:14])([H:15])[H:16])[O:7]1)([H:8])([H:9])[H:10]"
C        2.00203309       0.37723903      -0.22054482
C        0.87432389      -0.54947498       0.02112497
O        1.15516849      -1.81130923       0.02831700
C       -0.54711009      -0.15909299       0.27094648
C       -0.76299933       1.31875440       0.56681189
C       -1.52496733      -0.66166506      -0.78907511
O       -0.49423155      -0.93496251       1.41862651
H        1.71932532       1.19172935      -0.88587321
H        2.86459088      -0.15267955      -0.61901316
H        2.27019743       0.81874351       0.74261142
H       -0.07555292       1.66770909       1.33763614
H       -1.77827638       1.44032375       0.94593805
H       -0.65463518       1.94461207      -0.32280604
H       -2.53005783      -0.59672574      -0.36870405
H       -1.34016669      -1.70774805      -1.03856245
H       -1.47791341      -0.06674197      -1.70480814
H        0.30027161      -2.11871112       0.61737452
17
Frame=5 idx=011264 GeodesicLength=0.3766557461423169 rxn_smarts="[C:1]([C:2](=[O:3])[C:4]([C:5]([H:11])([H:12])[H:13])([C:6]([H:14])([H:15])[H:16])[O:7][H:17])([H:8])([H:9])[H:10]>>[C:1]([C@:2]1([O:3][H:17])[C:4]([C:5]([H:11])([H:12])[H:13])([C:6]([H:14])([H:15])[H:16])[O:7]1)([H:8])([H:9])[H:10]"
C        1.99982771       0.37500723      -0.22568858
C        0.87468378      -0.55170916       0.03390149
O        1.15954801      -1.81406955       0.04627821
C       -0.54741430      -0.15465557       0.26731695
C       -0.76868500       1.31983017       0.57099356
C       -1.51870128      -0.65912198      -0.79598879
O       -0.48845015      -0.93532181       1.41440149
H        1.70816744       1.19662299      -0.87792904
H        2.85040829      -0.15329345      -0.65147982
H        2.29377474       0.80561038       0.73480021
H       -0.08298638       1.66852065       1.34334307
H       -1.78541973       1.43711388       0.94779801
H       -0.66019176       1.94952614      -0.31572179
H       -2.52612332      -0.59813782      -0.38060399
H       -1.33071072      -1.70428869      -1.04662522
H       -1.46648407      -0.06171484      -1.70968229
H        0.28875675      -2.11991855       0.64488653
17
Frame=6 idx=011264 GeodesicLength=0.45184202689603264 rxn_smarts="[C:1]([C:2](=[O:3])[C:4]([C:5]([H:11])([H:12])[H:13])([C:6]([H:14])([H:15])[H:16])[O:7][H:17])([H:8])([H:9])[H:10]>>[C:1]([C@:2]1([O:3][H:17])[C:4]([C:5]([H:11])([H:12])[H:13])([C:6]([H:14])([H:15])[H:16])[O:7]1)([H:8])([H:9])[H:10]"
C        1.99766331       0.37273886      -0.23068364
C        0.87505956      -0.55374265       0.04652871
O        1.16409370      -1.81656893       0.06383880
C       -0.54755266      -0.15022446       0.26371970
C       -0.77443541       1.32087188       0.57503567
C       -1.51235044      -0.65665420      -0.80274223
O       -0.48256075      -0.93545337       1.41035726
H        1.69762682       1.20172344      -0.86932025
H        2.83533358      -0.15386763      -0.68350855
H        2.31763919       0.79194168       0.72639204
H       -0.09059679       1.66944761       1.34894475
H       -1.79262733       1.43383349       0.94946318
H       -0.66583875       1.95434776      -0.30880022
H       -2.52204135      -0.59968321      -0.39229583
H       -1.32113221      -1.70090087      -1.05447501
H       -1.45513378      -0.05681608      -1.71440169
H        0.27685330      -2.12099334       0.67194732
17
Frame=7 idx=011264 GeodesicLength=0.526957722642658 rxn_smarts="[C:1]([C:2](=[O:3])[C:4]([C:5]([H:11])([H:12])[H:13])([C:6]([H:14])([H:15])[H:16])[O:7][H:17])([H:8])([H:9])[H:10]>>[C:1]([C@:2]1([O:3][H:17])[C:4]([C:5]([H:11])([H:12])[H:13])([C:6]([H:14])([H:15])[H:16])[O:7]1)([H:8])([H:9])[H:10]"
C        1.99556095       0.37044986      -0.23550522
C        0.87545492      -0.55558433       0.05894823
O        1.16880971      -1.81881666       0.08094083
C       -0.54752478      -0.14579783       0.26013382
C       -0.78023860       1.32187947       0.57891537
C       -1.50595193      -0.65426868      -0.80932091
O       -0.47652833      -0.93535921       1.40646711
H        1.68775539       1.20702689      -0.86003982
H        2.81945611      -0.15434745      -0.71501946
H        2.34171213       0.77772652       0.71742851
H       -0.09837573       1.67048691       1.35442073
H       -1.79988347       1.43048935       0.95092035
H       -0.67155446       1.95906872      -0.30206702
H       -2.51783639      -0.60136951      -0.40372570
H       -1.31148208      -1.69759389      -1.06209673
H       -1.44393677      -0.05205705      -1.71895857
H        0.26456334      -2.12193310       0.69855849
17
Frame=8 idx=011264 GeodesicLength=0.6021066774501161 rxn_smarts="[C:1]([C:2](=[O:3])[C:4]([C:5]([H:11])([H:12])[H:13])([C:6]([H:14])([H:15])[H:16])[O:7][H:17])([H:8])([H:9])[H:10]>>[C:1]([C@:2]1([O:3][H:17])[C:4]([C:5]([H:11])([H:12])[H:13])([C:6]([H:14])([H:15])[H:16])[O:7]1)([H:8])([H:9])[H:10]"
C        1.99353235       0.36817745      -0.24012995
C        0.87588055      -0.55724140       0.07111754
O        1.17371478      -1.82080703       0.09750559
C       -0.54732642      -0.14136405       0.25654334
C       -0.78607847       1.32284945       0.58260196
C       -1.49952980      -0.65196628      -0.81571157
O       -0.47033157      -0.93502514       1.40270922
H        1.67851874       1.21253484      -0.85007369
H        2.80288894      -0.15474952      -0.74611945
H        2.36590932       0.76295612       0.70813536
H       -0.10632914       1.67163306       1.35973734
H       -1.80716193       1.42707937       0.95214466
H       -0.67731075       1.96367928      -0.29555595
H       -2.51351781      -0.60319621      -0.41484360
H       -1.30179895      -1.69436798      -1.06946822
H       -1.43294627      -0.04745355      -1.72335618
H        0.25188642      -2.12273841       0.72476357
17
Frame=9 idx=011264 GeodesicLength=0.6772150640688388 rxn_smarts="[C:1]([C:2](=[O:3])[C:4]([C:5]([H:11])([H:12])[H:13])([C:6]([H:14])([H:15])[H:16])[O:7][H:17])([H:8])([H:9])[H:10]>>[C:1]([C@:2]1([O:3][H:17])[C:4]([C:5]([H:11])([H:12])[H:13])([C:6]([H:14])([H:15])[H:16])[O:7]1)([H:8])([H:9])[H:10]"
C        1.99157353       0.36590479      -0.24458850
C        0.87632897      -0.55872885       0.08306440
O        1.17880503      -1.82256442       0.11361820
C       -0.54696733      -0.13693499       0.25295586
C       -0.79195862       1.32378107       0.58612809
C       -1.49307283      -0.64974581      -0.82193309
O       -0.46398301      -0.93448453       1.39908723
H        1.66995846       1.21823964      -0.83944710
H        2.78558747      -0.15498777      -0.77666049
H        2.39025063       0.74764725       0.69824467
H       -0.11444407       1.67286933       1.36493941
H       -1.81447437       1.42360750       0.95316156
H       -0.68310889       1.96818890      -0.28922899
H       -2.50908648      -0.60516018      -0.42569628
H       -1.29206528      -1.69122282      -1.07661963
H       -1.42212283      -0.04298804      -1.72760168
H        0.23877961      -2.12342105       0.75057635
17
Frame=10 idx=011264 GeodesicLength=0.7522687314947629 rxn_smarts="[C:1]([C:2](=[O:3])[C:4]([C:5]([H:11])([H:12])[H:13])([C:6]([H:14])([H:15])[H:16])[O:7][H:17])([H:8])([H:9])[H:10]>>[C:1]([C@:2]1([O:3][H:17])[C:4]([C:5]([H:11])([H:12])[H:13])([C:6]([H:14])([H:15])[H:16])[O:7]1)([H:8])([H:9])[H:10]"
C        1.98967804       0.36362889      -0.24890456
C        0.87681470      -0.56005924       0.09486046
O        1.18410398      -1.82411038       0.12938978
C       -0.54645611      -0.13251003       0.24939121
C       -0.79788655       1.32467846       0.58952049
C       -1.48655060      -0.64759872      -0.82801894
O       -0.45752786      -0.93375371       1.39561773
H        1.66200743       1.22413248      -0.82814774
H        2.76747248      -0.15503872      -0.80678904
H        2.41480293       0.73177461       0.68769511
H       -0.12272860       1.67419274       1.37006041
H       -1.82183728       1.42007134       0.95397816
H       -0.68894990       1.97261388      -0.28305114
H       -2.50453413      -0.60726039      -0.43635862
H       -1.28222820      -1.68814921      -1.08359492
H       -1.41139838      -0.03863226      -1.73172274
H        0.22521805      -2.12397974       0.77607435
17
Frame=11 idx=011264 GeodesicLength=0.8272565800049608 rxn_smarts="[C:1]([C:2](=[O:3])[C:4]([C:5]([H:11])([H:12])[H:13])([C:6]([H:14])([H:15])[H:16])[O:7][H:17])([H:8])([H:9])[H:10]>>[C:1]([C@:2]1([O:3][H:17])[C:4]([C:5]([H:11])([H:12])[H:13])([C:6]([H:14])([H:15])[H:16])[O:7]1)([H:8])([H:9])[H:10]"
C        1.98780665       0.36136013      -0.25310770
C        0.87733536      -0.56123814       0.10656946
O        1.18960418      -1.82541784       0.14492348
C       -0.54579286      -0.12808253       0.24586886
C       -0.80386167       1.32552199       0.59279118
C       -1.47989887      -0.64551476      -0.83398539
O       -0.45101580      -0.93281225       1.39231987
H        1.65465693       1.23026402      -0.81608815
H        2.74834715      -0.15483077      -0.83668287
H        2.43960925       0.71521107       0.67638265
H       -0.13120870       1.67556952       1.37511736
H       -1.82925229       1.41644515       0.95457784
H       -0.69480995       1.97693531      -0.27700463
H       -2.49980306      -0.60948197      -0.44688622
H       -1.27221053      -1.68512145      -1.09040038
H       -1.40065763      -0.03439405      -1.73573778
H        0.21115185      -2.12441345       0.80134243
17
Frame=12 idx=011264 GeodesicLength=0.9022421153211287 rxn_smarts="[C:1]([C:2](=[O:3])[C:4]([C:5]([H:11])([H:12])[H:13])([C:6]([H:14])([H:15])[H:16])[O:7][H:17])([H:8])([H:9])[H:10]>>[C:1]([C@:2]1([O:3][H:17])[C:4]([C:5]([H:11])([H:12])[H:13])([C:6]([H:14])([H:15])[H:16])[O:7]1)([H:8])([H:9])[H:10]"
C        1.98598533       0.35910318      -0.25718225
C        0.87788344      -0.56226587       0.11810726
O        1.19530242      -1.82650495       0.16008861
C       -0.54497519      -0.12366823       0.24236263
C       -0.80986208       1.32630124       0.59593145
C       -1.47317193      -0.64348909      -0.83980983
O       -0.44438463      -0.93171544       1.38914922
H        1.64791364       1.23649748      -0.80341542
H        2.72849144      -0.15436414      -0.86608072
H        2.46446231       0.69814579       0.66435266
H       -0.13985171       1.67697431       1.38009954
H       -1.83668387       1.41272611       0.95498139
H       -0.70065858       1.98114626      -0.27109505
H       -2.49492958      -0.61181982      -0.45720949
H       -1.26210281      -1.68213964      -1.09701732
H       -1.38998767      -0.03024978      -1.73962017
H        0.19656948      -2.12467740       0.82635751
17
Frame=13 idx=011264 GeodesicLength=0.9771974870989637 rxn_smarts="[C:1]([C:2](=[O:3])[C:4]([C:5]([H:11])([H:12])[H:13])([C:6]([H:14])([H:15])[H:16])[O:7][H:17])([H:8])([H:9])[H:10]>>[C:1]([C@:2]1([O:3][H:17])[C:4]([C:5]([H:11])([H:12])[H:13])([C:6]([H:14])([H:15])[H:16])[O:7]1)([H:8])([H:9])[H:10]"
C        1.98421939       0.35686406      -0.26113908
C        0.87848013      -0.56316286       0.12952875
O        1.20123041      -1.82739386       0.17497561
C       -0.54400872      -0.11925735       0.23888769
C       -0.81589963       1.32703899       0.59895497
C       -1.46635244      -0.64153445      -0.84552193
O       -0.43765837      -0.93044907       1.38612672
H        1.64178224       1.24291082      -0.79003025
H        2.70775628      -0.15359140      -0.89512089
H        2.48946691       0.68047072       0.65152779
H       -0.14867076       1.67843313       1.38503727
H       -1.84416157       1.40894122       0.95517316
H       -0.70650144       1.98527590      -0.26530709
H       -2.48991431      -0.61428744      -0.46738799
H       -1.25186083      -1.67922609      -1.10348091
H       -1.37935522      -0.02621683      -1.74340350
H        0.18144795      -2.12481549       0.85117968
17
Frame=14 idx=011264 GeodesicLength=1.0521496400925021 rxn_smarts="[C:1]([C:2](=[O:3])[C:4]([C:5]([H:11])([H:12])[H:13])([C:6]([H:14])([H:15])[H:16])[O:7][H:17])([H:8])([H:9])[H:10]>>[C:1]([C@:2]1([O:3][H:17])[C:4]([C:5]([H:11])([H:12])[H:13])([C:6]([H:14])([H:15])[H:16])[O:7]1)([H:8])([H:9])[H:10]"
C        1.98248474       0.35463380      -0.26501056
C        0.87912931      -0.56392618       0.14089726
O        1.20739290      -1.82807374       0.18966804
C       -0.54289451      -0.11485433       0.23546270
C       -0.82197692       1.32771790       0.60188433
C       -1.45939002      -0.63963601      -0.85114080
O       -0.43087325      -0.92902941       1.38326670
H        1.63623108       1.24947750      -0.77591163
H        2.68603798      -0.15248258      -0.92389562
H        2.51463172       0.66216725       0.63778409
H       -0.15768414       1.67991405       1.38996010
H       -1.85169198       1.40506473       0.95515285
H       -0.71232488       1.98931394      -0.25960919
H       -2.48471948      -0.61687458      -0.47748128
H       -1.24142018      -1.67635365      -1.10981267
H       -1.36866346      -0.02226733      -1.74709649
H        0.16573109      -2.12479136       0.87588216
17
Frame=15 idx=011264 GeodesicLength=1.1271220420471513 rxn_smarts="[C:1]([C:2](=[O:3])[C:4]([C:5]([H:11])([H:12])[H:13])([C:6]([H:14])([H:15])[H:16])[O:7][H:17])([H:8])([H:9])[H:10]>>[C:1]([C@:2]1([O:3][H:17])[C:4]([C:5]([H:11])([H:12])[H:13])([C:6]([H:14])([H:15])[H:16])[O:7]1)([H:8])([H:9])[H:10]"
C        1.98077264       0.35240826      -0.26881837
C        0.87983760      -0.56456033       0.15225752
O        1.21380318      -1.82854639       0.20423034
C       -0.54163277      -0.11045820       0.23209902
C       -0.82809971       1.32833747       0.60473267
C       -1.45225249      -0.63779034      -0.85668589
O       -0.42404672      -0.92746125       1.38058207
H        1.63125794       1.25619939      -0.76101073
H        2.66324061      -0.15099729      -0.95247680
H        2.53997910       0.64318456       0.62301920
H       -0.16690481       1.68141001       1.39489027
H       -1.85928534       1.40108928       0.95492103
H       -0.71813181       1.99326617      -0.25398465
H       -2.47932219      -0.61958608      -0.48753554
H       -1.23072962      -1.67351509      -1.11603671
H       -1.35785758      -0.01838932      -1.75071256
H        0.14937197      -2.12459086       0.90052912
17
Frame=16 idx=011264 GeodesicLength=1.2021005099016904 rxn_smarts="[C:1]([C:2](=[O:3])[C:4]([C:5]([H:11])([H:12])[H:13])([C:6]([H:14])([H:15])[H:16])[O:7][H:17])([H:8])([H:9])[H:10]>>[C:1]([C@:2]1([O:3][H:17])[C:4]([C:5]([H:11])([H:12])[H:13])([C:6]([H:14])([H:15])[H:16])[O:7]1)([H:8])([H:9])[H:10]"
C        1.97909833       0.35020504      -0.27254148
C        0.88060207      -0.56507349       0.16353419
O        1.22045379      -1.82881587       0.21857107
C       -0.54021724      -0.10607527       0.22877350
C       -0.83423946       1.32888828       0.60747840
C       -1.44497585      -0.63600576      -0.86213453
O       -0.41713259      -0.92575973       1.37803541
H        1.62690634       1.26302819      -0.74536837
H        2.63948548      -0.14908460      -0.98067617
H        2.56535950       0.62359341       0.60725044
H       -0.17630484       1.68290122       1.39980282
H       -1.86690075       1.39701381       0.95447302
H       -0.72388516       1.99712065      -0.24845229
H       -2.47373878      -0.62242500      -0.49748813
H       -1.21985134      -1.67072057      -1.12212707
H       -1.34700977      -0.01459535      -1.75423175
H        0.13235027      -2.12419497       0.92510094
