11
Frame=0 idx=002655 GeodesicLength=0.0 rxn_smarts="[C:1]([n:2]1[c:3]([H:10])[n:4][n:5][c:6]1[H:11])([H:7])([H:8])[H:9]>>[C:1](/[N:2]=[C:3](/[N:4]1[N:5]=[C:6]1[H:11])[H:10])([H:7])([H:8])[H:9]"
C       -1.63369449      -0.05122006       0.06925081
N       -0.21396802      -0.10534075      -0.19756719
C        0.54217138       0.93415730      -0.20015374
N        1.87008208       0.78577081      -0.11611447
N        2.29677494      -0.42060912       0.79361518
C        1.57532875      -1.03479612       0.04843114
H       -2.16593713      -0.73144858      -0.59749183
H       -2.03388033       0.95818165      -0.07331322
H       -1.84872649      -0.35235466       1.09786111
H        0.19254370       1.96034107      -0.31734000
H        1.41930558      -1.94268153      -0.50717777
11
Frame=1 idx=002655 GeodesicLength=0.037235714148696905 rxn_smarts="[C:1]([n:2]1[c:3]([H:10])[n:4][n:5][c:6]1[H:11])([H:7])([H:8])[H:9]>>[C:1](/[N:2]=[C:3](/[N:4]1[N:5]=[C:6]1[H:11])[H:10])([H:7])([H:8])[H:9]"
C       -1.63184083      -0.05213277       0.06998941
N       -0.20998744      -0.10418250      -0.18447310
C        0.54318378       0.93925127      -0.19192220
N        1.87214854       0.77943134      -0.12388993
N        2.29417224      -0.41858200       0.78881754
C        1.56617397      -1.03056039       0.04247435
H       -2.15650951      -0.73470722      -0.60026097
H       -2.03302399       0.95596231      -0.07772178
H       -1.85368914      -0.35296593       1.09711490
H        0.19254722       1.96378985      -0.31605093
H        1.41682516      -1.94530397      -0.50407729
11
Frame=2 idx=002655 GeodesicLength=0.07448035844614917 rxn_smarts="[C:1]([n:2]1[c:3]([H:10])[n:4][n:5][c:6]1[H:11])([H:7])([H:8])[H:9]>>[C:1](/[N:2]=[C:3](/[N:4]1[N:5]=[C:6]1[H:11])[H:10])([H:7])([H:8])[H:9]"
C       -1.62995723      -0.05304895       0.07069462
N       -0.20602699      -0.10290647      -0.17108435
C        0.54426243       0.94437107      -0.18343810
N        1.87402306       0.77311716      -0.13169935
N        2.29183310      -0.41660785       0.78368980
C        1.55707159      -1.02632525       0.03636364
H       -2.14681220      -0.73807696      -0.60303034
H       -2.03211603       0.95368661      -0.08237726
H       -1.85880404      -0.35348454       1.09627750
H        0.19248678       1.96717972      -0.31463400
H        1.41403954      -1.94790454      -0.50076216
11
Frame=3 idx=002655 GeodesicLength=0.11174268094193918 rxn_smarts="[C:1]([n:2]1[c:3]([H:10])[n:4][n:5][c:6]1[H:11])([H:7])([H:8])[H:9]>>[C:1](/[N:2]=[C:3](/[N:4]1[N:5]=[C:6]1[H:11])[H:10])([H:7])([H:8])[H:9]"
C       -1.62813513      -0.05395212       0.07133138
N       -0.20205643      -0.10154436      -0.15659880
C        0.54540397       0.94949967      -0.17419123
N        1.87571579       0.76681830      -0.13983039
N        2.29028857      -0.41472939       0.77766417
C        1.54813260      -1.02210468       0.02992805
H       -2.13649436      -0.74204311      -0.60564722
H       -2.03123007       0.95123160      -0.08824199
H       -1.86472083      -0.35320888       1.09538207
H        0.19231759       1.97051811      -0.31244451
H        1.41077830      -1.95048516      -0.49735155
11
Frame=4 idx=002655 GeodesicLength=0.14899896195550885 rxn_smarts="[C:1]([n:2]1[c:3]([H:10])[n:4][n:5][c:6]1[H:11])([H:7])([H:8])[H:9]>>[C:1](/[N:2]=[C:3](/[N:4]1[N:5]=[C:6]1[H:11])[H:10])([H:7])([H:8])[H:9]"
C       -1.62648846      -0.05482725       0.07185387
N       -0.19805729      -0.10011312      -0.13984647
C        0.54657867       0.95463764      -0.16343313
N        1.87721473       0.76053508      -0.14866990
N        2.29029113      -0.41303915       0.76995728
C        1.53948612      -1.01791674       0.02292550
H       -2.12501881      -0.74735539      -0.60783534
H       -2.03042992       0.94839393      -0.09672982
H       -1.87235570      -0.35110373       1.09446659
H        0.19200748       1.97380863      -0.30860056
H        1.40677205      -1.95301990      -0.49408801
11
Frame=5 idx=002655 GeodesicLength=0.1865171234422007 rxn_smarts="[C:1]([n:2]1[c:3]([H:10])[n:4][n:5][c:6]1[H:11])([H:7])([H:8])[H:9]>>[C:1](/[N:2]=[C:3](/[N:4]1[N:5]=[C:6]1[H:11])[H:10])([H:7])([H:8])[H:9]"
C       -1.62491827      -0.05570886       0.07223243
N       -0.19393171      -0.09845672      -0.12012320
C        0.54794097       0.95991551      -0.15074029
N        1.87838523       0.75427022      -0.15838125
N        2.29196416      -0.41164561       0.75998667
C        1.53093178      -1.01375477       0.01519538
H       -2.11184085      -0.75462922      -0.60924859
H       -2.02954859       0.94488136      -0.10884299
H       -1.88209958      -0.34648550       1.09351702
H        0.19145441       1.97704180      -0.30246707
H        1.40166244      -1.95542820      -0.49112810
11
Frame=6 idx=002655 GeodesicLength=0.22401961642644325 rxn_smarts="[C:1]([n:2]1[c:3]([H:10])[n:4][n:5][c:6]1[H:11])([H:7])([H:8])[H:9]>>[C:1](/[N:2]=[C:3](/[N:4]1[N:5]=[C:6]1[H:11])[H:10])([H:7])([H:8])[H:9]"
C       -1.62307520      -0.05666209       0.07258357
N       -0.18987932      -0.09660089      -0.10134860
C        0.54935850       0.96521016      -0.13891939
N        1.87924838       0.74800978      -0.16806524
N        2.29298595      -0.41008746       0.75050708
C        1.52205089      -1.00952930       0.00776078
H       -2.09880749      -0.76112666      -0.61096971
H       -2.02832434       0.94142540      -0.11953667
H       -1.89089681      -0.34310596       1.09220967
H        0.19099792       1.98032855      -0.29675831
H        1.39634151      -1.95786155      -0.48746319
11
Frame=7 idx=002655 GeodesicLength=0.2616105136218468 rxn_smarts="[C:1]([n:2]1[c:3]([H:10])[n:4][n:5][c:6]1[H:11])([H:7])([H:8])[H:9]>>[C:1](/[N:2]=[C:3](/[N:4]1[N:5]=[C:6]1[H:11])[H:10])([H:7])([H:8])[H:9]"
C       -1.62102575      -0.05767296       0.07288012
N       -0.18584510      -0.09452578      -0.08252247
C        0.55090500       0.97058558      -0.12730702
N        1.87979574       0.74175750      -0.17795487
N        2.29390587      -0.40849187       0.74081466
C        1.51290199      -1.00527753       0.00037245
H       -2.08543423      -0.76757591      -0.61274761
H       -2.02679348       0.93788053      -0.13010997
H       -1.89949424      -0.34003329       1.09066754
H        0.19050179       1.98362532      -0.29075031
H        1.39058240      -1.96027159      -0.48334252
11
Frame=8 idx=002655 GeodesicLength=0.2995380571785091 rxn_smarts="[C:1]([n:2]1[c:3]([H:10])[n:4][n:5][c:6]1[H:11])([H:7])([H:8])[H:9]>>[C:1](/[N:2]=[C:3](/[N:4]1[N:5]=[C:6]1[H:11])[H:10])([H:7])([H:8])[H:9]"
C       -1.61911999      -0.05874850       0.07286929
N       -0.18163539      -0.09223856      -0.05818283
C        0.55259464       0.97601603      -0.11273334
N        1.87981260       0.73550335      -0.18993830
N        2.29788920      -0.40720319       0.72707012
C        1.50385235      -1.00105081      -0.00811652
H       -2.06902417      -0.77773356      -0.61292837
H       -2.02497461       0.93295667      -0.14749991
H       -1.91202603      -0.33217124       1.08895353
H        0.18975106       1.98726529      -0.27966552
H        1.38288035      -1.96259547      -0.47982816
11
Frame=9 idx=002655 GeodesicLength=0.3376812669777979 rxn_smarts="[C:1]([n:2]1[c:3]([H:10])[n:4][n:5][c:6]1[H:11])([H:7])([H:8])[H:9]>>[C:1](/[N:2]=[C:3](/[N:4]1[N:5]=[C:6]1[H:11])[H:10])([H:7])([H:8])[H:9]"
C       -1.61678806      -0.05998228       0.07271296
N       -0.17735038      -0.08937927      -0.03276627
C        0.55451726       0.98172538      -0.09798258
N        1.87921035       0.72918762      -0.20270547
N        2.30197261      -0.40602979       0.71211161
C        1.49417384      -0.99676362      -0.01671597
H       -2.05136943      -0.78856663      -0.61268183
H       -2.02241797       0.92731809      -0.16599873
H       -1.92490023      -0.32390457       1.08662903
H        0.18892979       1.99120880      -0.26700424
H        1.37402222      -1.96481372      -0.47559852
11
Frame=10 idx=002655 GeodesicLength=0.3761863295847272 rxn_smarts="[C:1]([n:2]1[c:3]([H:10])[n:4][n:5][c:6]1[H:11])([H:7])([H:8])[H:9]>>[C:1](/[N:2]=[C:3](/[N:4]1[N:5]=[C:6]1[H:11])[H:10])([H:7])([H:8])[H:9]"
C       -1.61407322      -0.06137931       0.07242461
N       -0.17303484      -0.08614579      -0.00608785
C        0.55659902       0.98756802      -0.08288349
N        1.87800985       0.72288635      -0.21612487
N        2.30626222      -0.40490157       0.69606382
C        1.48388567      -0.99239906      -0.02542306
H       -2.03247098      -0.80036675      -0.61180543
H       -2.01913856       0.92099821      -0.18603422
H       -1.93824070      -0.31482613       1.08387559
H        0.18815517       1.99546780      -0.25277749
H        1.36404636      -1.96690176      -0.47122760
11
Frame=11 idx=002655 GeodesicLength=0.41496126257150456 rxn_smarts="[C:1]([n:2]1[c:3]([H:10])[n:4][n:5][c:6]1[H:11])([H:7])([H:8])[H:9]>>[C:1](/[N:2]=[C:3](/[N:4]1[N:5]=[C:6]1[H:11])[H:10])([H:7])([H:8])[H:9]"
C       -1.61087491      -0.06293700       0.07208941
N       -0.16872633      -0.08248059       0.02044503
C        0.55884182       0.99358967      -0.06815505
N        1.87625975       0.71658682      -0.22959924
N        2.30990182      -0.40385008       0.67991735
C        1.47287500      -0.98795129      -0.03396959
H       -2.01297587      -0.81216491      -0.61068523
H       -2.01514837       0.91429248      -0.20580813
H       -1.95098993      -0.30625384       1.08067106
H        0.18747946       1.99996120      -0.23840090
H        1.35335757      -1.96879245      -0.46650470
11
Frame=12 idx=002655 GeodesicLength=0.453767163651334 rxn_smarts="[C:1]([n:2]1[c:3]([H:10])[n:4][n:5][c:6]1[H:11])([H:7])([H:8])[H:9]>>[C:1](/[N:2]=[C:3](/[N:4]1[N:5]=[C:6]1[H:11])[H:10])([H:7])([H:8])[H:9]"
C       -1.60722814      -0.06454222       0.07190111
N       -0.16459119      -0.07868459       0.04294337
C        0.56115991       0.99960807      -0.05582096
N        1.87438347       0.71029010      -0.24158432
N        2.31103082      -0.40267897       0.66654096
C        1.46130800      -0.98345416      -0.04167167
H       -1.99511854      -0.82132704      -0.61064632
H       -2.01094856       0.90844775      -0.22061100
H       -1.96047338      -0.30145637       1.07732871
H        0.18700664       2.00435455      -0.22740425
H        1.34347096      -1.97055712      -0.46097563
11
Frame=13 idx=002655 GeodesicLength=0.492802527998856 rxn_smarts="[C:1]([n:2]1[c:3]([H:10])[n:4][n:5][c:6]1[H:11])([H:7])([H:8])[H:9]>>[C:1](/[N:2]=[C:3](/[N:4]1[N:5]=[C:6]1[H:11])[H:10])([H:7])([H:8])[H:9]"
C       -1.60326383      -0.06623837       0.07168690
N       -0.16048337      -0.07463409       0.06485716
C        0.56359198       1.00569778      -0.04405778
N        1.87214908       0.70397065      -0.25343639
N        2.31152873      -0.40156409       0.65341061
C        1.44926579      -0.97891870      -0.04919275
H       -1.97707292      -0.83026498      -0.61055159
H       -2.00638725       0.90250209      -0.23484448
H       -1.96923481      -0.29728284       1.07378839
H        0.18661643       2.00888135      -0.21650146
H        1.33329018      -1.97214880      -0.45515861
11
Frame=14 idx=002655 GeodesicLength=0.5323489027178993 rxn_smarts="[C:1]([n:2]1[c:3]([H:10])[n:4][n:5][c:6]1[H:11])([H:7])([H:8])[H:9]>>[C:1](/[N:2]=[C:3](/[N:4]1[N:5]=[C:6]1[H:11])[H:10])([H:7])([H:8])[H:9]"
C       -1.59886160      -0.06813672       0.07133699
N       -0.15629969      -0.07007382       0.08855633
C        0.56619977       1.01202303      -0.03155641
N        1.86922400       0.69764726      -0.26604042
N        2.31239193      -0.40069129       0.63875063
C        1.43650867      -0.97428787      -0.05695173
H       -1.95736566      -0.84065213      -0.60945409
H       -2.00099091       0.89556118      -0.25141523
H       -1.97881531      -0.29174306       1.06977739
H        0.18626313       2.01379369      -0.20361486
H        1.32174568      -1.97344027      -0.44938859
11
Frame=15 idx=002655 GeodesicLength=0.5720792798709344 rxn_smarts="[C:1]([n:2]1[c:3]([H:10])[n:4][n:5][c:6]1[H:11])([H:7])([H:8])[H:9]>>[C:1](/[N:2]=[C:3](/[N:4]1[N:5]=[C:6]1[H:11])[H:10])([H:7])([H:8])[H:9]"
C       -1.59417942      -0.07008004       0.07102396
N       -0.15220458      -0.06538804       0.11037979
C        0.56887955       1.01834324      -0.02025340
N        1.86611020       0.69129729      -0.27796723
N        2.31203869      -0.39983011       0.62530547
C        1.42336100      -0.96963129      -0.06430925
H       -1.93823419      -0.84996968      -0.60871617
H       -1.99542891       0.88894217      -0.26592727
H       -1.98682448      -0.28784022       1.06570309
H        0.18603703       2.01871264      -0.19198072
H        1.31044511      -1.97455597      -0.44325828
11
Frame=16 idx=002655 GeodesicLength=0.6118438347503016 rxn_smarts="[C:1]([n:2]1[c:3]([H:10])[n:4][n:5][c:6]1[H:11])([H:7])([H:8])[H:9]>>[C:1](/[N:2]=[C:3](/[N:4]1[N:5]=[C:6]1[H:11])[H:10])([H:7])([H:8])[H:9]"
C       -1.58937297      -0.07199404       0.07078561
N       -0.14823965      -0.06076113       0.12965397
C        0.57157740       1.02454170      -0.01047403
N        1.86301611       0.68490117      -0.28890803
N        2.31033682      -0.39892945       0.61365085
C        1.41006817      -0.96499719      -0.07116835
H       -1.92025657      -0.85776765      -0.60861647
H       -1.99001759       0.88298859      -0.27766284
H       -1.99294462      -0.28595666       1.06176912
H        0.18593628       2.02349045      -0.18219778
H        1.29989661      -1.97551579      -0.43683204
