15
Frame=0 idx=011500 GeodesicLength=0.0 rxn_smarts="[O:1]([C@@:2]1([H:9])[C:3]([H:10])([H:11])[C@:4]2([C:5]([H:12])([H:13])[O:6]2)[C:7]1([H:14])[H:15])[H:8]>>[O:1]([C:2](=[C:3]([H:10])[H:11])[C:7]([C:4]([C:5]([H:9])([H:12])[H:13])=[O:6])([H:14])[H:15])[H:8]"
O       -1.90635488      -0.21478853       1.25879649
C       -0.81047866       0.00954862       0.51643640
C       -0.66976121       0.39363284      -0.93802324
C        0.88088189       0.38509386      -0.52995821
C        1.11413825      -1.05677174      -0.29893061
O        1.91784547       0.75595428      -1.21105968
C        0.36869105       0.85832882       0.90674752
H       -2.61711676      -0.54443960       0.70132175
H       -0.11696448      -1.13315766       0.41366230
H       -1.02337591       1.40996661      -1.10645343
H       -1.02542953      -0.28893862      -1.71083445
H        1.86415983      -1.34418048       0.43611267
H        0.98577335      -1.74087173      -1.13647553
H        0.09938143       1.91354049       0.90117333
H        0.93861021       0.59708284       1.79748475
15
Frame=1 idx=011500 GeodesicLength=0.12244589292309667 rxn_smarts="[O:1]([C@@:2]1([H:9])[C:3]([H:10])([H:11])[C@:4]2([C:5]([H:12])([H:13])[O:6]2)[C:7]1([H:14])[H:15])[H:8]>>[O:1]([C:2](=[C:3]([H:10])[H:11])[C:7]([C:4]([C:5]([H:9])([H:12])[H:13])=[O:6])([H:14])[H:15])[H:8]"
O       -1.90252066      -0.21896952       1.27135267
C       -0.81623347       0.00345119       0.51251886
C       -0.69331631       0.39304762      -0.93671629
C        0.88579933       0.38245448      -0.52541862
C        1.13762200      -1.05867754      -0.30689762
O        1.93568170       0.73926791      -1.19229091
C        0.36389442       0.85454908       0.90328108
H       -2.63932899      -0.48690921       0.71480297
H       -0.11354931      -1.15096211       0.40692112
H       -1.07006749       1.40129091      -1.10353613
H       -1.02899452      -0.28396838      -1.72230081
H        1.87701462      -1.34636932       0.43883904
H        1.03070544      -1.73641817      -1.15221976
H        0.10575875       1.91235662       0.89298711
H        0.92753449       0.59585644       1.79867729
15
Frame=2 idx=011500 GeodesicLength=0.24480927619858678 rxn_smarts="[O:1]([C@@:2]1([H:9])[C:3]([H:10])([H:11])[C@:4]2([C:5]([H:12])([H:13])[O:6]2)[C:7]1([H:14])[H:15])[H:8]>>[O:1]([C:2](=[C:3]([H:10])[H:11])[C:7]([C:4]([C:5]([H:9])([H:12])[H:13])=[O:6])([H:14])[H:15])[H:8]"
O       -1.89909455      -0.22340322       1.28280504
C       -0.82231274      -0.00266281       0.50804442
C       -0.71727901       0.39245518      -0.93574247
C        0.89118012       0.37932879      -0.52087681
C        1.16142695      -1.06074258      -0.31481172
O        1.95377689       0.72319211      -1.17256156
C        0.35883546       0.85056560       0.89939566
H       -2.65933744      -0.42771906       0.73096261
H       -0.11048221      -1.16912846       0.39951030
H       -1.11805256       1.39177330      -1.10047007
H       -1.03224540      -0.27815477      -1.73437773
H        1.88940822      -1.34919439       0.44190895
H        1.07642719      -1.73159667      -1.16771578
H        0.11194816       1.91085455       0.88428707
H        0.91580091       0.59443244       1.79964211
15
Frame=3 idx=011500 GeodesicLength=0.3670915982807241 rxn_smarts="[O:1]([C@@:2]1([H:9])[C:3]([H:10])([H:11])[C@:4]2([C:5]([H:12])([H:13])[O:6]2)[C:7]1([H:14])[H:15])[H:8]>>[O:1]([C:2](=[C:3]([H:10])[H:11])[C:7]([C:4]([C:5]([H:9])([H:12])[H:13])=[O:6])([H:14])[H:15])[H:8]"
O       -1.89613990      -0.22793061       1.29311920
C       -0.82873712      -0.00871020       0.50299684
C       -0.74169371       0.39195199      -0.93511343
C        0.89702836       0.37569915      -0.51631409
C        1.18551848      -1.06299119      -0.32262077
O        1.97213600       0.70763118      -1.15187681
C        0.35353029       0.84641719       0.89506454
H       -2.67681817      -0.36736089       0.74982594
H       -0.10784609      -1.18761839       0.39141140
H       -1.16736589       1.38142003      -1.09728467
H       -1.03517840      -0.27130033      -1.74708515
H        1.90125519      -1.35270624       0.44535390
H        1.12290965      -1.72643478      -1.18286696
H        0.11800096       1.90907643       0.87504138
H        0.90340036       0.59285666       1.80034868
15
Frame=4 idx=011500 GeodesicLength=0.4892831443633665 rxn_smarts="[O:1]([C@@:2]1([H:9])[C:3]([H:10])([H:11])[C@:4]2([C:5]([H:12])([H:13])[O:6]2)[C:7]1([H:14])[H:15])[H:8]>>[O:1]([C:2](=[C:3]([H:10])[H:11])[C:7]([C:4]([C:5]([H:9])([H:12])[H:13])=[O:6])([H:14])[H:15])[H:8]"
O       -1.89371088      -0.23240188       1.30227068
C       -0.83551342      -0.01460059       0.49736509
C       -0.76660301       0.39164822      -0.93483720
C        0.90334879       0.37154585      -0.51170708
C        1.20986626      -1.06545098      -0.33026664
O        1.99075965       0.69247890      -1.13024186
C        0.34800748       0.84215038       0.89025917
H       -2.69150379      -0.30635096       0.77138940
H       -0.10571839      -1.20638674       0.38259712
H       -1.21806974       1.37021859      -1.09401306
H       -1.03778060      -0.26318483      -1.76042473
H        1.91247041      -1.35695356       0.44919461
H        1.17012598      -1.72096991      -1.19755845
H        0.12398175       1.90706763       0.86521655
H        0.89033952       0.59118989       1.80075643
15
Frame=5 idx=011500 GeodesicLength=0.6115602189319332 rxn_smarts="[O:1]([C@@:2]1([H:9])[C:3]([H:10])([H:11])[C@:4]2([C:5]([H:12])([H:13])[O:6]2)[C:7]1([H:14])[H:15])[H:8]>>[O:1]([C:2](=[C:3]([H:10])[H:11])[C:7]([C:4]([C:5]([H:9])([H:12])[H:13])=[O:6])([H:14])[H:15])[H:8]"
O       -1.89176884      -0.23661449       1.31041421
C       -0.84266815      -0.02023612       0.49114887
C       -0.79214956       0.39165981      -0.93487795
C        0.91015525       0.36684790      -0.50705623
C        1.23444953      -1.06815393      -0.33767430
O        2.00963474       0.67758765      -1.10773446
C        0.34230396       0.83781389       0.88493169
H       -2.70315103      -0.24526417       0.79528800
H       -0.10418276      -1.22540935       0.37306205
H       -1.27024920       1.35814967      -1.09050931
H       -1.04008205      -0.25354724      -1.77440461
H        1.92300464      -1.36198144       0.45351479
H        1.21806827      -1.71524328      -1.21166135
H        0.12997055       1.90489606       0.85471811
H        0.87666467       0.58949505       1.80084048
15
Frame=6 idx=011500 GeodesicLength=0.7337438297333337 rxn_smarts="[O:1]([C@@:2]1([H:9])[C:3]([H:10])([H:11])[C@:4]2([C:5]([H:12])([H:13])[O:6]2)[C:7]1([H:14])[H:15])[H:8]>>[O:1]([C:2](=[C:3]([H:10])[H:11])[C:7]([C:4]([C:5]([H:9])([H:12])[H:13])=[O:6])([H:14])[H:15])[H:8]"
O       -1.89033016      -0.24062042       1.31748524
C       -0.85017870      -0.02558772       0.48435343
C       -0.81832287       0.39204452      -0.93522920
C        0.91742896       0.36157283      -0.50234360
C        1.25928488      -1.07112884      -0.34480725
O        2.02874512       0.66290048      -1.08432463
C        0.33642965       0.83343892       0.87906079
H       -2.71169318      -0.18422819       0.82161975
H       -0.10326316      -1.24465157       0.36274985
H       -1.32398347       1.34515529      -1.08687139
H       -1.04204219      -0.24220146      -1.78897434
H        1.93281795      -1.36780241       0.45827836
H        1.26676858      -1.70931593      -1.22507773
H        0.13596291       1.90256366       0.84353721
H        0.86237566       0.58786086       1.80054351
15
Frame=7 idx=011500 GeodesicLength=0.8558769830650335 rxn_smarts="[O:1]([C@@:2]1([H:9])[C:3]([H:10])([H:11])[C@:4]2([C:5]([H:12])([H:13])[O:6]2)[C:7]1([H:14])[H:15])[H:8]>>[O:1]([C:2](=[C:3]([H:10])[H:11])[C:7]([C:4]([C:5]([H:9])([H:12])[H:13])=[O:6])([H:14])[H:15])[H:8]"
O       -1.88936317      -0.24428086       1.32354802
C       -0.85805654      -0.03058639       0.47697962
C       -0.84520677       0.39288596      -0.93586634
C        0.92517600       0.35569904      -0.49756443
C        1.28436847      -1.07440557      -0.35160838
O        2.04808574       0.64832250      -1.06004006
C        0.33041674       0.82906686       0.87260522
H       -2.71699562      -0.12369172       0.85020029
H       -0.10302205      -1.26409101       0.35165638
H       -1.37934452       1.33117767      -1.08305587
H       -1.04369130      -0.22888412      -1.80412367
H        1.94187337      -1.37444749       0.46352659
H        1.31623009      -1.70323681      -1.23768996
H        0.14202182       1.90010391       0.83160520
H        0.84750774       0.58636801       1.79982739
15
Frame=8 idx=011500 GeodesicLength=0.9779893731526536 rxn_smarts="[O:1]([C@@:2]1([H:9])[C:3]([H:10])([H:11])[C@:4]2([C:5]([H:12])([H:13])[O:6]2)[C:7]1([H:14])[H:15])[H:8]>>[O:1]([C:2](=[C:3]([H:10])[H:11])[C:7]([C:4]([C:5]([H:9])([H:12])[H:13])=[O:6])([H:14])[H:15])[H:8]"
O       -1.88882316      -0.24745993       1.32868758
C       -0.86629462      -0.03514888       0.46903169
C       -0.87288113       0.39428619      -0.93676427
C        0.93340739       0.34920031      -0.49270378
C        1.30969534      -1.07802157      -0.35800857
O        2.06765000       0.63373660      -1.03490201
C        0.32431420       0.82474755       0.86552018
H       -2.71898378      -0.06416340       0.88082667
H       -0.10352135      -1.28369341       0.33975465
H       -1.43643836       1.31613109      -1.07902110
H       -1.04503941      -0.21327583      -1.81982407
H        1.95011601      -1.38195180       0.46928693
H        1.36645965      -1.69707052      -1.24935751
H        0.14822483       1.89756557       0.81884140
H        0.83211440       0.58511803       1.79863219
15
Frame=9 idx=011500 GeodesicLength=1.1000974654701623 rxn_smarts="[O:1]([C@@:2]1([H:9])[C:3]([H:10])([H:11])[C@:4]2([C:5]([H:12])([H:13])[O:6]2)[C:7]1([H:14])[H:15])[H:8]>>[O:1]([C:2](=[C:3]([H:10])[H:11])[C:7]([C:4]([C:5]([H:9])([H:12])[H:13])=[O:6])([H:14])[H:15])[H:8]"
O       -1.88861732      -0.25012609       1.33309688
C       -0.87485976      -0.03920298       0.46053586
C       -0.90146611       0.39635967      -0.93784245
C        0.94211853       0.34203583      -0.48777003
C        1.33529067      -1.08201964      -0.36393310
O        2.08738405       0.61901330      -1.00900104
C        0.31817746       0.82053513       0.85774548
H       -2.71774180      -0.00598059       0.91305321
H       -0.10477014      -1.30342780       0.32696318
H       -1.49539687       1.29988171      -1.07462229
H       -1.04603878      -0.19504113      -1.83594059
H        1.95753720      -1.39032459       0.47558675
H        1.41747309      -1.69091282      -1.25992053
H        0.15463654       1.89500619       0.80514872
H        0.81627324       0.58420381       1.79689994
15
Frame=10 idx=011500 GeodesicLength=1.2221717225190014 rxn_smarts="[O:1]([C@@:2]1([H:9])[C:3]([H:10])([H:11])[C@:4]2([C:5]([H:12])([H:13])[O:6]2)[C:7]1([H:14])[H:15])[H:8]>>[O:1]([C:2](=[C:3]([H:10])[H:11])[C:7]([C:4]([C:5]([H:9])([H:12])[H:13])=[O:6])([H:14])[H:15])[H:8]"
O       -1.88868637      -0.25225656       1.33674173
C       -0.88376354      -0.04272297       0.45147759
C       -0.93100099       0.39913751      -0.93908445
C        0.95132242       0.33417541      -0.48275978
C        1.36117660      -1.08643596      -0.36933682
O        2.10731670       0.60409773      -0.98229256
C        0.31201709       0.81645465       0.84923337
H       -2.71319917       0.05065880       0.94692570
H       -0.10682242      -1.32328449       0.31326196
H       -1.55632778       1.28224088      -1.06989079
H       -1.04673304      -0.17381139      -1.85246292
H        1.96409718      -1.39959455       0.48244809
H        1.46933848      -1.68481947      -1.26927494
H        0.16126865       1.89241555       0.79043727
H        0.79999619       0.58374485       1.79457655
15
Frame=11 idx=011500 GeodesicLength=1.344204440733445 rxn_smarts="[O:1]([C@@:2]1([H:9])[C:3]([H:10])([H:11])[C@:4]2([C:5]([H:12])([H:13])[O:6]2)[C:7]1([H:14])[H:15])[H:8]>>[O:1]([C:2](=[C:3]([H:10])[H:11])[C:7]([C:4]([C:5]([H:9])([H:12])[H:13])=[O:6])([H:14])[H:15])[H:8]"
O       -1.88894054      -0.25379341       1.33972538
C       -0.89298915      -0.04565910       0.44186318
C       -0.96156441       0.40268731      -0.94044291
C        0.96102334       0.32558141      -0.47766909
C        1.38737806      -1.09131215      -0.37415585
O        2.12743343       0.58889771      -0.95479181
C        0.30587704       0.81254303       0.83992496
H       -2.70540991       0.10544793       0.98220573
H       -0.10970947      -1.34324631       0.29861046
H       -1.61933903       1.26300676      -1.06477186
H       -1.04714880      -0.14917969      -1.86930009
H        1.96978301      -1.40977918       0.48989276
H        1.52209137      -1.67886385      -1.27728382
H        0.16817241       1.88981726       0.77459643
H        0.78334265       0.58385228       1.79159651
15
Frame=12 idx=011500 GeodesicLength=1.466183300865274 rxn_smarts="[O:1]([C@@:2]1([H:9])[C:3]([H:10])([H:11])[C@:4]2([C:5]([H:12])([H:13])[O:6]2)[C:7]1([H:14])[H:15])[H:8]>>[O:1]([C:2](=[C:3]([H:10])[H:11])[C:7]([C:4]([C:5]([H:9])([H:12])[H:13])=[O:6])([H:14])[H:15])[H:8]"
O       -1.88928515      -0.25472949       1.34213449
C       -0.90251507      -0.04795980       0.43168775
C       -0.99323717       0.40709031      -0.94186011
C        0.97123127       0.31621172      -0.47250337
C        1.41392007      -1.09669630      -0.37832327
O        2.14772542       0.57331551      -0.92650995
C        0.29979829       0.80884122       0.82974872
H       -2.69442651       0.15815220       1.01869050
H       -0.11346158      -1.36328803       0.28293147
H       -1.68457421       1.24186066      -1.05920828
H       -1.04728488      -0.12064002      -1.88632184
H        1.97455868      -1.42089824       0.49794144
H        1.57579296      -1.67313945      -1.28379015
H        0.17539208       1.88722645       0.75749473
H        0.76636579       0.58465326       1.78788787
15
Frame=13 idx=011500 GeodesicLength=1.58822176008189 rxn_smarts="[O:1]([C@@:2]1([H:9])[C:3]([H:10])([H:11])[C@:4]2([C:5]([H:12])([H:13])[O:6]2)[C:7]1([H:14])[H:15])[H:8]>>[O:1]([C:2](=[C:3]([H:10])[H:11])[C:7]([C:4]([C:5]([H:9])([H:12])[H:13])=[O:6])([H:14])[H:15])[H:8]"
O       -1.88950872      -0.25492687       1.34426911
C       -0.91229142      -0.04952398       0.42098276
C       -1.02617138       0.41247141      -0.94323945
C        0.98198448       0.30601935      -0.46724516
C        1.44082934      -1.10265291      -0.38173154
O        2.16818783       0.55720096      -0.89753076
C        0.29389787       0.80541814       0.81861817
H       -2.68061078       0.20821000       1.05575328
H       -0.11808922      -1.38338788       0.26614943
H       -1.75222105       1.21834822      -1.05303323
H       -1.04710560      -0.08744251      -1.90332682
H        1.97840084      -1.43298871       0.50662943
H        1.63038273      -1.66778372      -1.28858437
H        0.18307807       1.88472724       0.73896278
H        0.74923700       0.58631125       1.78332637
15
Frame=14 idx=011500 GeodesicLength=1.710152900489874 rxn_smarts="[O:1]([C@@:2]1([H:9])[C:3]([H:10])([H:11])[C@:4]2([C:5]([H:12])([H:13])[O:6]2)[C:7]1([H:14])[H:15])[H:8]>>[O:1]([C:2](=[C:3]([H:10])[H:11])[C:7]([C:4]([C:5]([H:9])([H:12])[H:13])=[O:6])([H:14])[H:15])[H:8]"
O       -1.88957879      -0.25453429       1.34601283
C       -0.92231794      -0.05038771       0.40971490
C       -1.06037467       0.41880043      -0.94454471
C        0.99326172       0.29494541      -0.46191559
C        1.46814832      -1.10922577      -0.38434593
O        2.18880754       0.54052887      -0.86777472
C        0.28814275       0.80226455       0.80645689
H       -2.66381544       0.25587148       1.09360361
H       -0.12361367      -1.40353778       0.24817831
H       -1.82235311       1.19201613      -1.04635748
H       -1.04666398      -0.04902156      -1.92014195
H        1.98128735      -1.44604878       0.51596549
H        1.68601407      -1.66285270      -1.29156550
H        0.19114750       1.88223968       0.71884696
H        0.73190837       0.58894204       1.77786691
15
Frame=15 idx=011500 GeodesicLength=1.8319830363028573 rxn_smarts="[O:1]([C@@:2]1([H:9])[C:3]([H:10])([H:11])[C@:4]2([C:5]([H:12])([H:13])[O:6]2)[C:7]1([H:14])[H:15])[H:8]>>[O:1]([C:2](=[C:3]([H:10])[H:11])[C:7]([C:4]([C:5]([H:9])([H:12])[H:13])=[O:6])([H:14])[H:15])[H:8]"
O       -1.88934553      -0.25351194       1.34750842
C       -0.93256162      -0.05050701       0.39787810
C       -1.09595141       0.42612904      -0.94570309
C        1.00507606       0.28293878      -0.45651149
C        1.49589912      -1.11646671      -0.38607944
O        2.20956194       0.52319744      -0.83724769
C        0.28259268       0.79940861       0.79316734
H       -2.64419536       0.30091726       1.13193120
H       -0.13004469      -1.42372116       0.22893583
H       -1.89502768       1.16225058      -1.03916856
H       -1.04602008      -0.00454944      -1.93648183
H        1.98318942      -1.46009992       0.52597433
H        1.74269704      -1.65843849      -1.29254975
H        0.19966313       1.87976466       0.69694833
H        0.71446699       0.59268830       1.77139832
15
Frame=16 idx=011500 GeodesicLength=1.953791326868056 rxn_smarts="[O:1]([C@@:2]1([H:9])[C:3]([H:10])([H:11])[C@:4]2([C:5]([H:12])([H:13])[O:6]2)[C:7]1([H:14])[H:15])[H:8]>>[O:1]([C:2](=[C:3]([H:10])[H:11])[C:7]([C:4]([C:5]([H:9])([H:12])[H:13])=[O:6])([H:14])[H:15])[H:8]"
O       -1.88865404      -0.25180218       1.34889613
C       -0.94299388      -0.04981982       0.38547701
C       -1.13300919       0.43451088      -0.94662296
C        1.01746725       0.26994221      -0.45103689
C        1.52411242      -1.12445824      -0.38685876
O        2.23046679       0.50509471      -0.80594545
C        0.27732248       0.79689812       0.77865303
H       -2.62197653       0.34322363       1.17043127
H       -0.13740095      -1.44392873       0.20830309
H       -1.97036945       1.12809691      -1.03152843
H       -1.04523254       0.04706665      -1.95192958
H        1.98406567      -1.47521617       0.53665362
H        1.80048872      -1.65466984      -1.29136716
H        0.20870744       1.87734208       0.67306201
H        0.69700581       0.59771979       1.76381308
