16
Frame=0 idx=004681 GeodesicLength=0.0 rxn_smarts="[C:1]([C:2]([C:3]([H:10])([H:11])[H:12])([O:4][H:13])[C:5]([O:6][H:16])([H:14])[H:15])([H:7])([H:8])[H:9]>>[C:1]([C:2][C:5]([O:6][H:16])([H:14])[H:15])([H:7])([H:8])[H:9].[C:3]([O:4][H:13])([H:10])([H:11])[H:12]"
C       -1.27026531      -1.15120994      -0.47940702
C       -0.22979240      -0.09757975      -0.28519983
C       -0.72231012       1.64825362       0.69236969
O       -0.13530076       0.10912587       1.27793724
C        1.12962898      -0.56595189      -0.65807393
O        2.08363351       0.41436444      -0.23006692
H       -1.03809281      -2.08324382       0.06400245
H       -2.25773422      -0.81843447      -0.14903656
H       -1.34898130      -1.38719360      -1.54390776
H       -0.04690203       2.22255389       0.07485808
H       -1.71514481       1.58825739       0.26863832
H       -0.76155601       2.03000839       1.72154042
H        0.80409278       0.30735297       1.42477632
H        1.37342556      -1.52698881      -0.15523661
H        1.17471917      -0.72062471      -1.74157140
H        2.96057971       0.03131042      -0.28162256
16
Frame=1 idx=004681 GeodesicLength=0.03372917916558015 rxn_smarts="[C:1]([C:2]([C:3]([H:10])([H:11])[H:12])([O:4][H:13])[C:5]([O:6][H:16])([H:14])[H:15])([H:7])([H:8])[H:9]>>[C:1]([C:2][C:5]([O:6][H:16])([H:14])[H:15])([H:7])([H:8])[H:9].[C:3]([O:4][H:13])([H:10])([H:11])[H:12]"
C       -1.27005483      -1.14927891      -0.48143750
C       -0.22809021      -0.09835827      -0.27896769
C       -0.72297029       1.64199109       0.68487301
O       -0.13552386       0.10381036       1.28288597
C        1.13220146      -0.56428557      -0.65466282
O        2.08764609       0.40878310      -0.21451447
H       -1.03648597      -2.08563151       0.05301911
H       -2.25716352      -0.82002841      -0.14700893
H       -1.34981945      -1.37300015      -1.54852114
H       -0.08133667       2.22090850       0.03525017
H       -1.73269927       1.57509833       0.30320101
H       -0.72222977       2.05134117       1.70377484
H        0.80377835       0.30085678       1.43143483
H        1.37211264      -1.53116909      -0.16257667
H        1.17695909      -0.70480676      -1.74016867
H        2.96367620       0.02376935      -0.26658106
16
Frame=2 idx=004681 GeodesicLength=0.0675093079831738 rxn_smarts="[C:1]([C:2]([C:3]([H:10])([H:11])[H:12])([O:4][H:13])[C:5]([O:6][H:16])([H:14])[H:15])([H:7])([H:8])[H:9]>>[C:1]([C:2][C:5]([O:6][H:16])([H:14])[H:15])([H:7])([H:8])[H:9].[C:3]([O:4][H:13])([H:10])([H:11])[H:12]"
C       -1.26991521      -1.14716511      -0.48347571
C       -0.22633675      -0.09918894      -0.27268749
C       -0.72352091       1.63572882       0.67733106
O       -0.13575945       0.09846307       1.28789758
C        1.13483072      -0.56260908      -0.65115552
O        2.09145424       0.40334066      -0.19901449
H       -1.03506940      -2.08777459       0.04199556
H       -2.25661825      -0.82124616      -0.14513287
H       -1.35064623      -1.35861220      -1.55300303
H       -0.11732670       2.21811744      -0.00367016
H       -1.74848876       1.56236749       0.33876448
H       -0.68289555       2.07196799       1.68382866
H        0.80345438       0.29424257       1.43820742
H        1.37091393      -1.53514084      -0.16980515
H        1.17928958      -0.68902670      -1.73847308
H        2.96663436       0.01653556      -0.25160726
16
Frame=3 idx=004681 GeodesicLength=0.10141926207242208 rxn_smarts="[C:1]([C:2]([C:3]([H:10])([H:11])[H:12])([O:4][H:13])[C:5]([O:6][H:16])([H:14])[H:15])([H:7])([H:8])[H:9]>>[C:1]([C:2][C:5]([O:6][H:16])([H:14])[H:15])([H:7])([H:8])[H:9].[C:3]([O:4][H:13])([H:10])([H:11])[H:12]"
C       -1.26983903      -1.14485060      -0.48552503
C       -0.22451865      -0.10006529      -0.26636422
C       -0.72400384       1.62945031       0.66973492
O       -0.13598341       0.09309950       1.29296640
C        1.13752820      -0.56092310      -0.64755852
O        2.09509775       0.39801380      -0.18356950
H       -1.03383314      -2.08966423       0.03091178
H       -2.25608866      -0.82207613      -0.14338576
H       -1.35146345      -1.34398184      -1.55736402
H       -0.15497144       2.21410825      -0.04187050
H       -1.76251492       1.55012374       0.37532302
H       -0.64357427       2.09184116       1.66168120
H        0.80313571       0.28756733       1.44507416
H        1.36982587      -1.53891502      -0.17693085
H        1.18172281      -0.67326792      -1.73649782
H        2.96948048       0.00954005      -0.23662528
16
Frame=4 idx=004681 GeodesicLength=0.135410457234952 rxn_smarts="[C:1]([C:2]([C:3]([H:10])([H:11])[H:12])([O:4][H:13])[C:5]([O:6][H:16])([H:14])[H:15])([H:7])([H:8])[H:9]>>[C:1]([C:2][C:5]([O:6][H:16])([H:14])[H:15])([H:7])([H:8])[H:9].[C:3]([O:4][H:13])([H:10])([H:11])[H:12]"
C       -1.26982000      -1.14232622      -0.48756359
C       -0.22262155      -0.10096259      -0.26001617
C       -0.72448443       1.62315668       0.66209817
O       -0.13615602       0.08773934       1.29807168
C        1.14030245      -0.55924205      -0.64389047
O        2.09863343       0.39276679      -0.16822660
H       -1.03278008      -2.09128164       0.01982674
H       -2.25557700      -0.82249441      -0.14175852
H       -1.35226324      -1.32914797      -1.56157074
H       -0.19414059       2.20892110      -0.07899266
H       -1.77472046       1.53846787       0.41259429
H       -0.60460072       2.11085602       1.63740084
H        0.80286019       0.28091005       1.45198532
H        1.36884596      -1.54251237      -0.18395389
H        1.18425543      -0.65758369      -1.73425859
H        2.97226663       0.00273309      -0.22174582
16
Frame=5 idx=004681 GeodesicLength=0.16942885923730722 rxn_smarts="[C:1]([C:2]([C:3]([H:10])([H:11])[H:12])([O:4][H:13])[C:5]([O:6][H:16])([H:14])[H:15])([H:7])([H:8])[H:9]>>[C:1]([C:2][C:5]([O:6][H:16])([H:14])[H:15])([H:7])([H:8])[H:9].[C:3]([O:4][H:13])([H:10])([H:11])[H:12]"
C       -1.26983727      -1.13957362      -0.48957322
C       -0.22063537      -0.10184681      -0.25366362
C       -0.72502202       1.61685349       0.65443419
O       -0.13624834       0.08242131       1.30319686
C        1.14314664      -0.55757038      -0.64016834
O        2.10210440       0.38755062      -0.15301461
H       -1.03189711      -2.09258146       0.00880046
H       -2.25506388      -0.82248068      -0.14024431
H       -1.35302308      -1.31415019      -1.56560014
H       -0.23463809       2.20259131      -0.11480848
H       -1.78509841       1.52742720       0.45031390
H       -0.56627617       2.12889287       1.61114701
H        0.80264681       0.27436521       1.45890159
H        1.36794953      -1.54593292      -0.19087758
H        1.18687166      -0.64201752      -1.73177589
H        2.97502070      -0.00394844      -0.20706781
16
Frame=6 idx=004681 GeodesicLength=0.2035518960332503 rxn_smarts="[C:1]([C:2]([C:3]([H:10])([H:11])[H:12])([O:4][H:13])[C:5]([O:6][H:16])([H:14])[H:15])([H:7])([H:8])[H:9]>>[C:1]([C:2][C:5]([O:6][H:16])([H:14])[H:15])([H:7])([H:8])[H:9].[C:3]([O:4][H:13])([H:10])([H:11])[H:12]"
C       -1.26988631      -1.13658935      -0.49156179
C       -0.21855004      -0.10271445      -0.24731769
C       -0.72566508       1.61051905       0.64674221
O       -0.13623453       0.07714746       1.30832755
C        1.14607490      -0.55591192      -0.63640092
O        2.10555762       0.38233278      -0.13793077
H       -1.03117199      -2.09357328      -0.00218935
H       -2.25454814      -0.82204149      -0.13882945
H       -1.35374626      -1.29895897      -1.56946334
H       -0.27656665       2.19511815      -0.14918191
H       -1.79367080       1.51704752       0.48845864
H       -0.52861453       2.14599208       1.58285317
H        0.80251877       0.26797681       1.46579591
H        1.36713450      -1.54920064      -0.19772610
H        1.18959200      -0.62655560      -1.72906277
H        2.97777653      -0.01058815      -0.19251340
16
Frame=7 idx=004681 GeodesicLength=0.2377409726303578 rxn_smarts="[C:1]([C:2]([C:3]([H:10])([H:11])[H:12])([O:4][H:13])[C:5]([O:6][H:16])([H:14])[H:15])([H:7])([H:8])[H:9]>>[C:1]([C:2][C:5]([O:6][H:16])([H:14])[H:15])([H:7])([H:8])[H:9].[C:3]([O:4][H:13])([H:10])([H:11])[H:12]"
C       -1.26994813      -1.13336615      -0.49350712
C       -0.21636729      -0.10353339      -0.24098822
C       -0.72645618       1.60415580       0.63903722
O       -0.13609909       0.07195022       1.31345397
C        1.14907297      -0.55425260      -0.63260152
O        2.10902650       0.37707333      -0.12298175
H       -1.03057487      -2.09423482      -0.01310124
H       -2.25400821      -0.82119294      -0.13747596
H       -1.35442414      -1.28359783      -1.57313856
H       -0.31966308       2.18647491      -0.18200469
H       -1.80048248       1.50739516       0.52675868
H       -0.49186856       2.16203453       1.55271566
H        0.80247680       0.26182033       1.47264587
H        1.36637158      -1.55230639      -0.20451503
H        1.19239277      -0.61118226      -1.72613775
H        2.98055140      -0.01723792      -0.17815957
16
Frame=8 idx=004681 GeodesicLength=0.2720519157548429 rxn_smarts="[C:1]([C:2]([C:3]([H:10])([H:11])[H:12])([O:4][H:13])[C:5]([O:6][H:16])([H:14])[H:15])([H:7])([H:8])[H:9]>>[C:1]([C:2][C:5]([O:6][H:16])([H:14])[H:15])([H:7])([H:8])[H:9].[C:3]([O:4][H:13])([H:10])([H:11])[H:12]"
C       -1.27001805      -1.12990776      -0.49542092
C       -0.21408057      -0.10429690      -0.23468959
C       -0.72744185       1.59776126       0.63132407
O       -0.13582738       0.06683528       1.31856136
C        1.15215287      -0.55259813      -0.62878047
O        2.11255663       0.37173441      -0.10816195
H       -1.03009709      -2.09457782      -0.02395350
H       -2.25344702      -0.81995189      -0.13618262
H       -1.35505582      -1.26805906      -1.57663823
H       -0.36398453       2.17672574      -0.21313733
H       -1.80556734       1.49845938       0.56519472
H       -0.45605983       2.17709003       1.52068466
H        0.80254017       0.25593858       1.47942713
H        1.36565695      -1.55527395      -0.21127436
H        1.19529583      -0.59589072      -1.72301510
H        2.98337703      -0.02398843      -0.16393788
16
Frame=9 idx=004681 GeodesicLength=0.3065664750101408 rxn_smarts="[C:1]([C:2]([C:3]([H:10])([H:11])[H:12])([O:4][H:13])[C:5]([O:6][H:16])([H:14])[H:15])([H:7])([H:8])[H:9]>>[C:1]([C:2][C:5]([O:6][H:16])([H:14])[H:15])([H:7])([H:8])[H:9].[C:3]([O:4][H:13])([H:10])([H:11])[H:12]"
C       -1.27008200      -1.12620582      -0.49730621
C       -0.21168478      -0.10499788      -0.22841707
C       -0.72865572       1.59132732       0.62360120
O       -0.13541135       0.06182133       1.32364987
C        1.15531798      -0.55093636      -0.62494010
O        2.11617906       0.36627408      -0.09343963
H       -1.02970071      -2.09461101      -0.03480020
H       -2.25284455      -0.81834622      -0.13490358
H       -1.35565295      -1.25227054      -1.57997524
H       -0.40953730       2.16580081      -0.24259930
H       -1.80897486       1.49022931       0.60377758
H       -0.42120254       2.19120003       1.48673179
H        0.80270631       0.25038075       1.48613604
H        1.36497278      -1.55811189      -0.21804675
H        1.19830912      -0.58062019      -1.71970142
H        2.98626153      -0.03093372      -0.14976698
16
Frame=10 idx=004681 GeodesicLength=0.341360343989412 rxn_smarts="[C:1]([C:2]([C:3]([H:10])([H:11])[H:12])([O:4][H:13])[C:5]([O:6][H:16])([H:14])[H:15])([H:7])([H:8])[H:9]>>[C:1]([C:2][C:5]([O:6][H:16])([H:14])[H:15])([H:7])([H:8])[H:9].[C:3]([O:4][H:13])([H:10])([H:11])[H:12]"
C       -1.27013784      -1.12226554      -0.49917338
C       -0.20918077      -0.10563155      -0.22217391
C       -0.73011936       1.58484606       0.61587745
O       -0.13484452       0.05691051       1.32872181
C        1.15857027      -0.54925372      -0.62108320
O        2.11991971       0.36067127      -0.07878217
H       -1.02937140      -2.09435025      -0.04567490
H       -2.25219818      -0.81640705      -0.13362333
H       -1.35622774      -1.23620328      -1.58316664
H       -0.45634816       2.15365911      -0.27036531
H       -1.81072563       1.48273302       0.64249592
H       -0.38727828       2.20438817       1.45080777
H        0.80297946       0.24517685       1.49277911
H        1.36430757      -1.56082325      -0.22486389
H        1.20144049      -0.56531673      -1.71620580
H        2.98921437      -0.03813365      -0.13556954
16
Frame=11 idx=004681 GeodesicLength=0.3765066751576092 rxn_smarts="[C:1]([C:2]([C:3]([H:10])([H:11])[H:12])([O:4][H:13])[C:5]([O:6][H:16])([H:14])[H:15])([H:7])([H:8])[H:9]>>[C:1]([C:2][C:5]([O:6][H:16])([H:14])[H:15])([H:7])([H:8])[H:9].[C:3]([O:4][H:13])([H:10])([H:11])[H:12]"
C       -1.27017016      -1.11807754      -0.50101865
C       -0.20656087      -0.10618662      -0.21596231
C       -0.73186566       1.57831045       0.60816603
O       -0.13410984       0.05210690       1.33376320
C        1.16191981      -0.54754243      -0.61721934
O        2.12380843       0.35488200      -0.06417854
H       -1.02907858      -2.09379803      -0.05660226
H       -2.25149388      -0.81414685      -0.13230863
H       -1.35677840      -1.21981073      -1.58620225
H       -0.50445130       2.14026948      -0.29632929
H       -1.81081203       1.47602241       0.68131791
H       -0.35438906       2.21666232       1.41282092
H        0.80336732       0.24035942       1.49933444
H        1.36365976      -1.56342003      -0.23177779
H        1.20471074      -0.54993403      -1.71252996
H        2.99224371      -0.04569674      -0.12127349
16
Frame=12 idx=004681 GeodesicLength=0.4120783617516306 rxn_smarts="[C:1]([C:2]([C:3]([H:10])([H:11])[H:12])([O:4][H:13])[C:5]([O:6][H:16])([H:14])[H:15])([H:7])([H:8])[H:9]>>[C:1]([C:2][C:5]([O:6][H:16])([H:14])[H:15])([H:7])([H:8])[H:9].[C:3]([O:4][H:13])([H:10])([H:11])[H:12]"
C       -1.27017843      -1.11364078      -0.50286022
C       -0.20384298      -0.10664309      -0.20979431
C       -0.73394557       1.57173919       0.60043400
O       -0.13320817       0.04745072       1.33876593
C        1.16534919      -0.54577420      -0.61334051
O        2.12787034       0.34888619      -0.04959205
H       -1.02880308      -2.09294052      -0.06760367
H       -2.25072712      -0.81161245      -0.13096883
H       -1.35732288      -1.20307596      -1.58910404
H       -0.55378866       2.12565938      -0.32055362
H       -1.80934281       1.46993647       0.72026450
H       -0.32238169       2.22800915       1.37280283
H        0.80387466       0.23600018       1.50579710
H        1.36299849      -1.56587900      -0.23880219
H        1.20810008      -0.53441719      -1.70866721
H        2.99534865      -0.05369809      -0.10677772
16
Frame=13 idx=004681 GeodesicLength=0.44799427104067246 rxn_smarts="[C:1]([C:2]([C:3]([H:10])([H:11])[H:12])([O:4][H:13])[C:5]([O:6][H:16])([H:14])[H:15])([H:7])([H:8])[H:9]>>[C:1]([C:2][C:5]([O:6][H:16])([H:14])[H:15])([H:7])([H:8])[H:9].[C:3]([O:4][H:13])([H:10])([H:11])[H:12]"
C       -1.27017175      -1.10897556      -0.50466176
C       -0.20101300      -0.10700806      -0.20366966
C       -0.73631004       1.56509226       0.59274807
O       -0.13212257       0.04291782       1.34375738
C        1.16888481      -0.54395599      -0.60948289
O        2.13214621       0.34264612      -0.03504994
H       -1.02855361      -2.09180441      -0.07863578
H       -2.24992365      -0.80882192      -0.12953092
H       -1.35787072      -1.18602247      -1.59185026
H       -0.60409345       2.10974507      -0.34264740
H       -1.80618305       1.46483138       0.75896922
H       -0.29186532       2.23836732       1.33075724
H        0.80450937       0.23209844       1.51218053
H        1.36233801      -1.56820961      -0.24598238
H        1.21164943      -0.51875475      -1.70467076
H        2.99857934      -0.06214564      -0.09223070
16
Frame=14 idx=004681 GeodesicLength=0.48440479191428054 rxn_smarts="[C:1]([C:2]([C:3]([H:10])([H:11])[H:12])([O:4][H:13])[C:5]([O:6][H:16])([H:14])[H:15])([H:7])([H:8])[H:9]>>[C:1]([C:2][C:5]([O:6][H:16])([H:14])[H:15])([H:7])([H:8])[H:9].[C:3]([O:4][H:13])([H:10])([H:11])[H:12]"
C       -1.27008309      -1.10407035      -0.50646044
C       -0.19808775      -0.10725323      -0.19758442
C       -0.73901905       1.55842099       0.58510264
O       -0.13087422       0.03853760       1.34868170
C        1.17246574      -0.54205953      -0.60561726
O        2.13655452       0.33615088      -0.02049196
H       -1.02824209      -2.09036985      -0.08979010
H       -2.24897913      -0.80579787      -0.12804706
H       -1.35835563      -1.16863030      -1.59442975
H       -0.65545023       2.09257129      -0.36289548
H       -1.80146455       1.46043486       0.79766964
H       -0.26239605       2.24780938       1.28668717
H        0.80522578       0.22869462       1.51844023
H        1.36161889      -1.57039406      -0.25336533
H        1.21529630      -0.50289901      -1.70045989
H        3.00179056      -0.07114542      -0.07743971
16
Frame=15 idx=004681 GeodesicLength=0.5212224567932011 rxn_smarts="[C:1]([C:2]([C:3]([H:10])([H:11])[H:12])([O:4][H:13])[C:5]([O:6][H:16])([H:14])[H:15])([H:7])([H:8])[H:9]>>[C:1]([C:2][C:5]([O:6][H:16])([H:14])[H:15])([H:7])([H:8])[H:9].[C:3]([O:4][H:13])([H:10])([H:11])[H:12]"
C       -1.26994211      -1.09892832      -0.50821467
C       -0.19506368      -0.10737861      -0.19154956
C       -0.74204301       1.55170140       0.57751732
O       -0.12943650       0.03430226       1.35355832
C        1.17613558      -0.54009817      -0.60177641
O        2.14118656       0.32933915      -0.00596499
H       -1.02789055      -2.08863364      -0.10098472
H       -2.24795864      -0.80254841      -0.12645401
H       -1.35881857      -1.15090950      -1.59682098
H       -0.70752330       2.07417535      -0.38093436
H       -1.79515259       1.45696014       0.83597531
H       -0.23463285       2.25625234       1.24068897
H        0.80606716       0.22580040       1.52457460
H        1.36088112      -1.57244145      -0.26096632
H        1.21909033      -0.48685326      -1.69608731
H        3.00510104      -0.08073966      -0.06256119
16
Frame=16 idx=004681 GeodesicLength=0.5583537868126264 rxn_smarts="[C:1]([C:2]([C:3]([H:10])([H:11])[H:12])([O:4][H:13])[C:5]([O:6][H:16])([H:14])[H:15])([H:7])([H:8])[H:9]>>[C:1]([C:2][C:5]([O:6][H:16])([H:14])[H:15])([H:7])([H:8])[H:9].[C:3]([O:4][H:13])([H:10])([H:11])[H:12]"
C       -1.26975481      -1.09360044      -0.50992262
C       -0.19196526      -0.10737539      -0.18557924
C       -0.74534653       1.54495750       0.57001144
O       -0.12781849       0.03021153       1.35838477
C        1.17986183      -0.53805772      -0.59796571
O        2.14602030       0.32222995       0.00852850
H       -1.02750230      -2.08663342      -0.11217175
H       -2.24686909      -0.79914171      -0.12477367
H       -1.35926034      -1.13296790      -1.59902276
H       -0.75994285       2.05469701      -0.39670003
H       -1.78730211       1.45444198       0.87363885
H       -0.20872109       2.26365111       1.19301027
H        0.80702482       0.22342250       1.53058120
H        1.36009484      -1.57433568      -0.26878312
H        1.22299535      -0.47062219      -1.69155912
H        3.00848573      -0.09087713      -0.04767699
