19
Frame=0 idx=011362 GeodesicLength=0.0 rxn_smarts="[C:1]([C:2]([C:3]([C:4]([C:5]([H:16])([H:17])[H:18])([H:14])[H:15])([C:6](=[O:7])[H:19])[H:13])([H:11])[H:12])([H:8])([H:9])[H:10]>>[C:1]([C:2]([C:3]([C:4]([C:5]([H:16])([H:17])[H:18])([H:14])[H:15])=[C:6]([O:7][H:13])[H:19])([H:11])[H:12])([H:8])([H:9])[H:10]"
C       -2.52086991      -0.75651794       0.05019297
C       -1.07383434      -1.01722986      -0.35041472
C       -0.08290518       0.03468720       0.11563179
C        1.36652507      -0.39730885      -0.18451978
C        2.50292303       0.56359669       0.12955796
C       -0.40934802       1.40043612      -0.03126088
O        0.08857469       2.10685616       0.91077242
H       -3.17159440      -1.57132461      -0.27291334
H       -2.61300168      -0.65950154       1.13392181
H       -2.90899808       0.16218160      -0.39704721
H       -0.75473128      -1.97655815       0.06810376
H       -1.00994624      -1.14302753      -1.44086930
H        0.26551802       0.93461319       1.30609980
H        1.42005016      -0.66206606      -1.24991609
H        1.53244462      -1.33240564       0.35776279
H        3.45094370       0.11654607      -0.17482057
H        2.56729384       0.78820798       1.19574255
H        2.40018363       1.51197829      -0.39947557
H       -1.04922761       1.89683687      -0.76654838
19
Frame=1 idx=011362 GeodesicLength=0.040305327718636985 rxn_smarts="[C:1]([C:2]([C:3]([C:4]([C:5]([H:16])([H:17])[H:18])([H:14])[H:15])([C:6](=[O:7])[H:19])[H:13])([H:11])[H:12])([H:8])([H:9])[H:10]>>[C:1]([C:2]([C:3]([C:4]([C:5]([H:16])([H:17])[H:18])([H:14])[H:15])=[C:6]([O:7][H:13])[H:19])([H:11])[H:12])([H:8])([H:9])[H:10]"
C       -2.51977042      -0.75273773       0.05119280
C       -1.07258191      -1.01582342      -0.34654764
C       -0.07871475       0.03527205       0.11586861
C        1.36784792      -0.39686318      -0.19133828
C        2.50415928       0.56108138       0.13294425
C       -0.40991172       1.39991961      -0.03685425
O        0.07363999       2.10996786       0.91056315
H       -3.16902828      -1.57187662      -0.26374005
H       -2.61332031      -0.64386602       1.13364852
H       -2.90940557       0.15987934      -0.40686433
H       -0.75524845      -1.97454297       0.07494965
H       -1.00814899      -1.14490053      -1.43642576
H        0.27373325       0.93267342       1.31133523
H        1.41892210      -0.65132643      -1.25907082
H        1.53510923      -1.33700893       0.34200013
H        3.45309702       0.11721845      -0.17314738
H        2.56676334       0.77586023       1.20139277
H        2.40280321       1.51403033      -0.38822635
H       -1.05994493       1.88304316      -0.77168025
19
Frame=2 idx=011362 GeodesicLength=0.08061794840468275 rxn_smarts="[C:1]([C:2]([C:3]([C:4]([C:5]([H:16])([H:17])[H:18])([H:14])[H:15])([C:6](=[O:7])[H:19])[H:13])([H:11])[H:12])([H:8])([H:9])[H:10]>>[C:1]([C:2]([C:3]([C:4]([C:5]([H:16])([H:17])[H:18])([H:14])[H:15])=[C:6]([O:7][H:13])[H:19])([H:11])[H:12])([H:8])([H:9])[H:10]"
C       -2.51864625      -0.74894820       0.05219012
C       -1.07130205      -1.01437559      -0.34266371
C       -0.07454028       0.03595408       0.11606164
C        1.36913429      -0.39634883      -0.19814285
C        2.50537008       0.55853202       0.13627436
C       -0.41049961       1.39947694      -0.04253288
O        0.05834235       2.11279133       0.91047507
H       -3.16643159      -1.57233639      -0.25451809
H       -2.61361216      -0.62823963       1.13324176
H       -2.90978231       0.15746013      -0.41660099
H       -0.75570119      -1.97243430       0.08187255
H       -1.00632315      -1.14678649      -1.43194835
H        0.28201078       0.93072172       1.31662602
H        1.41776878      -0.64057744      -1.26808800
H        1.53767255      -1.34142279       0.32628306
H        3.45519839       0.11790256      -0.17163148
H        2.56632176       0.76335042       1.20690751
H        2.40530505       1.51604244      -0.37686215
H       -1.07028545       1.86923802      -0.77694359
19
Frame=3 idx=011362 GeodesicLength=0.12092766770123772 rxn_smarts="[C:1]([C:2]([C:3]([C:4]([C:5]([H:16])([H:17])[H:18])([H:14])[H:15])([C:6](=[O:7])[H:19])[H:13])([H:11])[H:12])([H:8])([H:9])[H:10]>>[C:1]([C:2]([C:3]([C:4]([C:5]([H:16])([H:17])[H:18])([H:14])[H:15])=[C:6]([O:7][H:13])[H:19])([H:11])[H:12])([H:8])([H:9])[H:10]"
C       -2.51749862      -0.74515465       0.05318340
C       -1.06999610      -1.01287629      -0.33877479
C       -0.07038502       0.03673646       0.11622114
C        1.37038270      -0.39577453      -0.20490380
C        2.50655702       0.55595379       0.13953245
C       -0.41110867       1.39911240      -0.04829171
O        0.04269038       2.11532331       0.91050171
H       -3.16380940      -1.57268340      -0.24531249
H       -2.61387990      -0.61271139       1.13271020
H       -2.91012898       0.15495302      -0.42619501
H       -0.75609026      -1.97023374       0.08883356
H       -1.00447067      -1.14864986      -1.42745172
H        0.29035186       0.92876600       1.32197925
H        1.41659615      -0.62987586      -1.27692970
H        1.54012694      -1.34563489       0.31068801
H        3.45724799       0.11859244      -0.17027558
H        2.56597998       0.75072803       1.21225997
H        2.40768406       1.51799444      -0.36543956
H       -1.08024946       1.85543472      -0.78233532
19
Frame=4 idx=011362 GeodesicLength=0.16121869723617055 rxn_smarts="[C:1]([C:2]([C:3]([C:4]([C:5]([H:16])([H:17])[H:18])([H:14])[H:15])([C:6](=[O:7])[H:19])[H:13])([H:11])[H:12])([H:8])([H:9])[H:10]>>[C:1]([C:2]([C:3]([C:4]([C:5]([H:16])([H:17])[H:18])([H:14])[H:15])=[C:6]([O:7][H:13])[H:19])([H:11])[H:12])([H:8])([H:9])[H:10]"
C       -2.51632858      -0.74136198       0.05417162
C       -1.06866582      -1.01131613      -0.33489277
C       -0.06625312       0.03762156       0.11635915
C        1.37159069      -0.39514976      -0.21159108
C        2.50772066       0.55335387       0.14270347
C       -0.41173656       1.39882772      -0.05412313
O        0.02669684       2.11755820       0.91063498
H       -3.16116689      -1.57289928      -0.23618997
H       -2.61412635      -0.59737038       1.13206743
H       -2.91044475       0.15239083      -0.43558570
H       -0.75641746      -1.96794509       0.09579308
H       -1.00259419      -1.15045538      -1.42295180
H        0.29875885       0.92681204       1.32740207
H        1.41540895      -0.61927840      -1.28556055
H        1.54246439      -1.34963641       0.29529159
H        3.45924424       0.11928476      -0.16908066
H        2.56574767       0.73804741       1.21742387
H        2.40993581       1.51986733      -0.35401614
H       -1.08983437       1.84164909      -0.78785545
19
Frame=5 idx=011362 GeodesicLength=0.20148381109659402 rxn_smarts="[C:1]([C:2]([C:3]([C:4]([C:5]([H:16])([H:17])[H:18])([H:14])[H:15])([C:6](=[O:7])[H:19])[H:13])([H:11])[H:12])([H:8])([H:9])[H:10]>>[C:1]([C:2]([C:3]([C:4]([C:5]([H:16])([H:17])[H:18])([H:14])[H:15])=[C:6]([O:7][H:13])[H:19])([H:11])[H:12])([H:8])([H:9])[H:10]"
C       -2.51513767      -0.73757647       0.05515423
C       -1.06731318      -1.00968424      -0.33103078
C       -0.06214684       0.03861173       0.11648165
C        1.37275816      -0.39448514      -0.21817606
C        2.50886443       0.55073616       0.14577358
C       -0.41237757       1.39862805      -0.06002900
O        0.01037404       2.11949843       0.91086329
H       -3.15850936      -1.57296678      -0.22722011
H       -2.61435214      -0.58230934       1.13132949
H       -2.91073408       0.14980654      -0.44471060
H       -0.75668525      -1.96556785       0.10270756
H       -1.00069770      -1.15216638      -1.41846253
H        0.30723222       0.92487279       1.33289754
H        1.41421603      -0.60884111      -1.29394550
H        1.54468063      -1.35341795       0.28016996
H        3.46118959       0.11996622      -0.16804102
H        2.56562883       0.72536405       1.22237822
H        2.41206261       1.52164072      -0.34265576
H       -1.09905275       1.82789059      -0.79348413
19
Frame=6 idx=011362 GeodesicLength=0.2417404021133103 rxn_smarts="[C:1]([C:2]([C:3]([C:4]([C:5]([H:16])([H:17])[H:18])([H:14])[H:15])([C:6](=[O:7])[H:19])[H:13])([H:11])[H:12])([H:8])([H:9])[H:10]>>[C:1]([C:2]([C:3]([C:4]([C:5]([H:16])([H:17])[H:18])([H:14])[H:15])=[C:6]([O:7][H:13])[H:19])([H:11])[H:12])([H:8])([H:9])[H:10]"
C       -2.51392673      -0.73378715       0.05612919
C       -1.06593718      -1.00799114      -0.32717380
C       -0.05806278       0.03970401       0.11658703
C        1.37388709      -0.39377196      -0.22468565
C        2.50998980       0.54810185       0.14875480
C       -0.41304084       1.39850794      -0.06599581
O       -0.00629756       2.12111832       0.91119550
H       -3.15583340      -1.57290827      -0.21833718
H       -2.61456245      -0.56742502       1.13048903
H       -2.91099411       0.14717984      -0.45364599
H       -0.75689547      -1.96310362       0.10962340
H       -0.99877645      -1.15381888      -1.41396811
H        0.31577506       0.92293116       1.33847069
H        1.41301005      -0.59851316      -1.30212853
H        1.54678533      -1.35700025       0.26525395
H        3.46308786       0.12065640      -0.16716211
H        2.56562461       0.71263101       1.22714373
H        2.41406735       1.52333562      -0.33130519
H       -1.10790017       1.81415331      -0.79924493
19
Frame=7 idx=011362 GeodesicLength=0.28197307315091563 rxn_smarts="[C:1]([C:2]([C:3]([C:4]([C:5]([H:16])([H:17])[H:18])([H:14])[H:15])([C:6](=[O:7])[H:19])[H:13])([H:11])[H:12])([H:8])([H:9])[H:10]>>[C:1]([C:2]([C:3]([C:4]([C:5]([H:16])([H:17])[H:18])([H:14])[H:15])=[C:6]([O:7][H:13])[H:19])([H:11])[H:12])([H:8])([H:9])[H:10]"
C       -2.51269628      -0.73000184       0.05710061
C       -1.06454094      -1.00622652      -0.32333976
C       -0.05400517       0.04090102       0.11667827
C        1.37497639      -0.39302175      -0.23109122
C        2.51109735       0.54545617       0.15163755
C       -0.41372220       1.39847062      -0.07203020
O       -0.02329776       2.12242186       0.91161195
H       -3.15314270      -1.57271160      -0.20960484
H       -2.61475157      -0.55281015       1.12956976
H       -2.91122776       0.14454687      -0.46232248
H       -0.75705008      -1.96055552       0.11648916
H       -0.99683898      -1.15537366      -1.40948982
H        0.32438485       0.92100073       1.34411826
H        1.41180226      -0.58835268      -1.31007633
H        1.54876970      -1.36037643       0.25062327
H        3.46493797       0.12134775      -0.16643592
H        2.56573802       0.69989906       1.23170312
H        2.41595289       1.52493511      -0.32001842
H       -1.11638599       1.80045096      -0.80512296
19
Frame=8 idx=011362 GeodesicLength=0.32220392454149965 rxn_smarts="[C:1]([C:2]([C:3]([C:4]([C:5]([H:16])([H:17])[H:18])([H:14])[H:15])([C:6](=[O:7])[H:19])[H:13])([H:11])[H:12])([H:8])([H:9])[H:10]>>[C:1]([C:2]([C:3]([C:4]([C:5]([H:16])([H:17])[H:18])([H:14])[H:15])=[C:6]([O:7][H:13])[H:19])([H:11])[H:12])([H:8])([H:9])[H:10]"
C       -2.51144824      -0.72621125       0.05806297
C       -1.06312283      -1.00439982      -0.31951020
C       -0.04996967       0.04219951       0.11675522
C        1.37602833      -0.39222497      -0.23741904
C        2.51219075       0.54279766       0.15443171
C       -0.41442851       1.39851232      -0.07811787
O       -0.04064031       2.12338831       0.91211997
H       -3.15043566      -1.57239469      -0.20096750
H       -2.61493056      -0.53837186       1.12855834
H       -2.91143327       0.14188328      -0.47081672
H       -0.75715138      -1.95791999       0.12335542
H       -0.99487739      -1.15686735      -1.40500548
H        0.33306760       0.91906984       1.34984793
H        1.41058333      -0.57830535      -1.31782985
H        1.55064650      -1.36356439       0.23620507
H        3.46674549       0.12204969      -0.16586301
H        2.56596619       0.68712964       1.23607405
H        2.41772668       1.52645384      -0.30875377
H       -1.12451705       1.78677560      -0.81112724
19
Frame=9 idx=011362 GeodesicLength=0.3624428047955931 rxn_smarts="[C:1]([C:2]([C:3]([C:4]([C:5]([H:16])([H:17])[H:18])([H:14])[H:15])([C:6](=[O:7])[H:19])[H:13])([H:11])[H:12])([H:8])([H:9])[H:10]>>[C:1]([C:2]([C:3]([C:4]([C:5]([H:16])([H:17])[H:18])([H:14])[H:15])=[C:6]([O:7][H:13])[H:19])([H:11])[H:12])([H:8])([H:9])[H:10]"
C       -2.51018080      -0.72240723       0.05901482
C       -1.06167964      -1.00251741      -0.31567118
C       -0.04595290       0.04359896       0.11681378
C        1.37704425      -0.39137298      -0.24369292
C        2.51327171       0.54012243       0.15715034
C       -0.41516844       1.39862818      -0.08425644
O       -0.05833833       2.12399837       0.91271384
H       -3.14770411      -1.57197309      -0.19236824
H       -2.61510041      -0.52402040       1.12744167
H       -2.91160769       0.13916528      -0.47919057
H       -0.75719740      -1.95519210       0.13025957
H       -0.99288539      -1.15832806      -1.40049693
H        0.34182204       0.91713342       1.35565475
H        1.40934875      -0.56832487      -1.32542301
H        1.55242416      -1.36657815       0.22193521
H        3.46851341       0.12277248      -0.16544243
H        2.56630385       0.67427456       1.24027481
H        2.41939568       1.52790260      -0.29746459
H       -1.13230873       1.77311801      -0.81725248
19
Frame=10 idx=011362 GeodesicLength=0.402684146613888 rxn_smarts="[C:1]([C:2]([C:3]([C:4]([C:5]([H:16])([H:17])[H:18])([H:14])[H:15])([C:6](=[O:7])[H:19])[H:13])([H:11])[H:12])([H:8])([H:9])[H:10]>>[C:1]([C:2]([C:3]([C:4]([C:5]([H:16])([H:17])[H:18])([H:14])[H:15])=[C:6]([O:7][H:13])[H:19])([H:11])[H:12])([H:8])([H:9])[H:10]"
C       -2.50889815      -0.71859677       0.05995592
C       -1.06021541      -1.00057151      -0.31183706
C       -0.04195842       0.04509989       0.11686299
C        1.37802397      -0.39047705      -0.24988379
C        2.51434195       0.53743803       0.15977918
C       -0.41593841       1.39882407      -0.09043878
O       -0.07636661       2.12425631       0.91338369
H       -3.14495817      -1.57143358      -0.18387745
H       -2.61526607      -0.50985312       1.12624106
H       -2.91175510       0.13642963      -0.48738284
H       -0.75719304      -1.95237825       0.13716042
H       -0.99086848      -1.15972164      -1.39598338
H        0.35064854       0.91519826       1.36154834
H        1.40810546      -0.55846560      -1.33282495
H        1.55409789      -1.36941264       0.20789119
H        3.47024256       0.12350706      -0.16516854
H        2.56675612       0.66139780       1.24428366
H        2.42096143       1.52926557      -0.28621558
H       -1.13976004       1.75949355      -0.82349407
19
Frame=11 idx=011362 GeodesicLength=0.44294334496317816 rxn_smarts="[C:1]([C:2]([C:3]([C:4]([C:5]([H:16])([H:17])[H:18])([H:14])[H:15])([C:6](=[O:7])[H:19])[H:13])([H:11])[H:12])([H:8])([H:9])[H:10]>>[C:1]([C:2]([C:3]([C:4]([C:5]([H:16])([H:17])[H:18])([H:14])[H:15])=[C:6]([O:7][H:13])[H:19])([H:11])[H:12])([H:8])([H:9])[H:10]"
C       -2.50759747      -0.71477376       0.06088685
C       -1.05872873      -0.99856762      -0.30799839
C       -0.03798451       0.04670142       0.11690042
C        1.37896596      -0.38952945      -0.25601185
C        2.51540149       0.53474089       0.16233214
C       -0.41674594       1.39909157      -0.09665736
O       -0.09473648       2.12414745       0.91411771
H       -3.14219009      -1.57079077      -0.17544174
H       -2.61542340      -0.49579714       1.12494859
H       -2.91187152       0.13365633      -0.49544020
H       -0.75713653      -1.94947404       0.14408553
H       -0.98882510      -1.16106995      -1.39145288
H        0.35955091       0.91325888       1.36752536
H        1.40684583      -0.54868017      -1.34006614
H        1.55567046      -1.37208129       0.19401402
H        3.47193330       0.12426055      -0.16503384
H        2.56731462       0.64846223       1.24811817
H        2.42243171       1.53055175      -0.27496509
H       -1.14687451       1.74589313      -0.82986129
19
Frame=12 idx=011362 GeodesicLength=0.48320109782393994 rxn_smarts="[C:1]([C:2]([C:3]([C:4]([C:5]([H:16])([H:17])[H:18])([H:14])[H:15])([C:6](=[O:7])[H:19])[H:13])([H:11])[H:12])([H:8])([H:9])[H:10]>>[C:1]([C:2]([C:3]([C:4]([C:5]([H:16])([H:17])[H:18])([H:14])[H:15])=[C:6]([O:7][H:13])[H:19])([H:11])[H:12])([H:8])([H:9])[H:10]"
C       -2.50628696      -0.71094265       0.06179490
C       -1.05722293      -0.99649908      -0.30415798
C       -0.03403320       0.04840245       0.11693902
C        1.37987024      -0.38853905      -0.26204994
C        2.51645361       0.53204216       0.16478723
C       -0.41758959       1.39943508      -0.10289623
O       -0.11341209       2.12366667       0.91492086
H       -3.13941153      -1.57003048      -0.16714432
H       -2.61559382      -0.48193078       1.12356622
H       -2.91195806       0.13087586      -0.50333220
H       -0.75703900      -1.94647885       0.15102103
H       -0.98675030      -1.16235540      -1.38690673
H        0.36852993       0.91131518       1.37359909
H        1.40557072      -0.53902641      -1.34711407
H        1.55714273      -1.37457406       0.18037730
H        3.47358735       0.12503226      -0.16505108
H        2.56799657       0.63552947       1.25175009
H        2.42380578       1.53174832      -0.26378246
H       -1.15365946       1.73232929      -0.83632074
19
Frame=13 idx=011362 GeodesicLength=0.5234830877313742 rxn_smarts="[C:1]([C:2]([C:3]([C:4]([C:5]([H:16])([H:17])[H:18])([H:14])[H:15])([C:6](=[O:7])[H:19])[H:13])([H:11])[H:12])([H:8])([H:9])[H:10]>>[C:1]([C:2]([C:3]([C:4]([C:5]([H:16])([H:17])[H:18])([H:14])[H:15])=[C:6]([O:7][H:13])[H:19])([H:11])[H:12])([H:8])([H:9])[H:10]"
C       -2.50496262      -0.70709697       0.06268739
C       -1.05569538      -0.99437483      -0.30030894
C       -0.03010165       0.05020220       0.11697040
C        1.38073894      -0.38749764      -0.26802510
C        2.51749877       0.52933550       0.16716443
C       -0.41847867       1.39985338      -0.10915499
O       -0.13241229       2.12280199       0.91577987
H       -3.13661544      -1.56917126      -0.15890704
H       -2.61576765      -0.46816246       1.12209238
H       -2.91201442       0.12806302      -0.51110917
H       -0.75689427      -1.94339558       0.15799156
H       -0.98464516      -1.16360104      -1.38234001
H        0.37758219       0.90936297       1.37976690
H        1.40427973      -0.52944822      -1.35400980
H        1.55852101      -1.37690941       0.16690988
H        3.47520693       0.12582862      -0.16520923
H        2.56878869       0.62254623       1.25520554
H        2.42509092       1.53286891      -0.25260835
H       -1.16011962       1.71879457      -0.84289571
19
Frame=14 idx=011362 GeodesicLength=0.5637797820062287 rxn_smarts="[C:1]([C:2]([C:3]([C:4]([C:5]([H:16])([H:17])[H:18])([H:14])[H:15])([C:6](=[O:7])[H:19])[H:13])([H:11])[H:12])([H:8])([H:9])[H:10]>>[C:1]([C:2]([C:3]([C:4]([C:5]([H:16])([H:17])[H:18])([H:14])[H:15])=[C:6]([O:7][H:13])[H:19])([H:11])[H:12])([H:8])([H:9])[H:10]"
C       -2.50362956      -0.70324123       0.06355568
C       -1.05414931      -0.99218577      -0.29645781
C       -0.02619325       0.05209959       0.11701134
C        1.38157018      -0.38641615      -0.27390570
C        2.51853862       0.52663126       0.16944499
C       -0.41941278       1.40034017      -0.11541427
O       -0.15170287       2.12155816       0.91667994
H       -3.13381248      -1.56819464      -0.15081672
H       -2.61595769      -0.45458659       1.12053622
H       -2.91203880       0.12525450      -0.51872127
H       -0.75670923      -1.94022103       0.16497255
H       -0.98251074      -1.16477746      -1.37775830
H        0.38670646       0.90739805       1.38604020
H        1.40297175      -0.51999701      -1.36071853
H        1.55980250      -1.37908220       0.15368693
H        3.47679101       0.12664640      -0.16551623
H        2.56970042       0.60957845       1.25845869
H        2.42628826       1.53390087      -0.24151274
H       -1.16625249       1.70529462      -0.84956496
19
Frame=15 idx=011362 GeodesicLength=0.6041032584024525 rxn_smarts="[C:1]([C:2]([C:3]([C:4]([C:5]([H:16])([H:17])[H:18])([H:14])[H:15])([C:6](=[O:7])[H:19])[H:13])([H:11])[H:12])([H:8])([H:9])[H:10]>>[C:1]([C:2]([C:3]([C:4]([C:5]([H:16])([H:17])[H:18])([H:14])[H:15])=[C:6]([O:7][H:13])[H:19])([H:11])[H:12])([H:8])([H:9])[H:10]"
C       -2.50228737      -0.69937242       0.06439977
C       -1.05258364      -0.98994016      -0.29259560
C       -0.02230576       0.05409385       0.11705260
C        1.38236496      -0.38528557      -0.27971486
C        2.51957455       0.52392620       0.17164079
C       -0.42039946       1.40089849      -0.12167203
O       -0.17128495       2.11992431       0.91761885
H       -3.13099888      -1.56711845      -0.14281890
H       -2.61616630      -0.44113132       1.11888953
H       -2.91202989       0.12243015      -0.52621754
H       -0.75648269      -1.93695535       0.17199416
H       -0.98034351      -1.16591349      -1.37315182
H        0.39590294       0.90541638       1.39241718
H        1.40164534      -0.51063183      -1.36727140
H        1.56099155      -1.38110095       0.14065242
H        3.47834254       0.12748956      -0.16596238
H        2.57072415       0.59658875       1.26152577
H        2.42740690       1.53485319      -0.23045587
H       -1.17207048       1.69182867      -0.85633067
19
Frame=16 idx=011362 GeodesicLength=0.644473068811228 rxn_smarts="[C:1]([C:2]([C:3]([C:4]([C:5]([H:16])([H:17])[H:18])([H:14])[H:15])([C:6](=[O:7])[H:19])[H:13])([H:11])[H:12])([H:8])([H:9])[H:10]>>[C:1]([C:2]([C:3]([C:4]([C:5]([H:16])([H:17])[H:18])([H:14])[H:15])=[C:6]([O:7][H:13])[H:19])([H:11])[H:12])([H:8])([H:9])[H:10]"
C       -2.50093463      -0.69548588       0.06522255
C       -1.05099655      -0.98764390      -0.28871007
C       -0.01843704       0.05618578       0.11708971
C        1.38312306      -0.38409418      -0.28547797
C        2.52060713       0.52121204       0.17377090
C       -0.42144951       1.40152450      -0.12792787
O       -0.19115662       2.11789805       0.91857561
H       -3.12816689      -1.56595963      -0.13484477
H       -2.61638960      -0.42771276       1.11713730
H       -2.91198860       0.11955209      -0.53365407
H       -0.75621118      -1.93359264       0.17908944
H       -0.97814027      -1.16703433      -1.36850390
H        0.40516888       0.90341637       1.39889324
H        1.40029360      -0.50129231      -1.37370302
H        1.56209321      -1.38297741       0.12773232
H        3.47986295       0.12836707      -0.16654446
H        2.57185135       0.58351596       1.26442930
H        2.42845542       1.53573548      -0.21937484
H       -1.17758470       1.67838571      -0.86319940
