12
Frame=0 idx=005223 GeodesicLength=0.0 rxn_smarts="[C:1]([C:2]#[C:3][C@@:4]1([H:10])[C:5]([H:11])([H:12])[O:6]1)([H:7])([H:8])[H:9]>>[C:1]([C:2]/[C:3](=[C:4]1/[C:5]([H:11])([H:12])[O:6]1)[H:10])([H:7])([H:8])[H:9]"
C       -2.51466923       0.13257208       0.08345440
C       -1.31895005      -0.74363463       0.04266798
C       -0.08522080      -0.34940981       0.11286209
C        1.23489520      -0.31812486      -0.19353307
C        2.63172981      -0.10874831       0.06124363
O        2.03011122      -0.37728210      -1.25803796
H       -3.05952473      -0.00248598      -0.85539886
H       -3.20149613      -0.20171408       0.86405760
H       -2.31967492       1.20515482       0.21787696
H        0.33400597       0.79492707       0.31187985
H        3.23317633      -0.92366041       0.44898387
H        3.03561732       0.89240622       0.16394349
12
Frame=1 idx=005223 GeodesicLength=0.04291589620324765 rxn_smarts="[C:1]([C:2]#[C:3][C@@:4]1([H:10])[C:5]([H:11])([H:12])[O:6]1)([H:7])([H:8])[H:9]>>[C:1]([C:2]/[C:3](=[C:4]1/[C:5]([H:11])([H:12])[O:6]1)[H:10])([H:7])([H:8])[H:9]"
C       -2.52076988       0.12558954       0.07893102
C       -1.31221427      -0.73089139       0.03147084
C       -0.08306277      -0.33030307       0.13449482
C        1.23364053      -0.28731528      -0.18876116
C        2.63711267      -0.11454888       0.05530694
O        2.02359185      -0.39026071      -1.25507816
H       -3.06314021      -0.00562850      -0.86173316
H       -3.20131407      -0.22915543       0.85624473
H       -2.34168228       1.19887456       0.22780126
H        0.34619816       0.82495325       0.32126125
H        3.21496859      -0.93882640       0.45881704
H        3.06667167       0.87751232       0.14124458
12
Frame=2 idx=005223 GeodesicLength=0.08585331386918438 rxn_smarts="[C:1]([C:2]#[C:3][C@@:4]1([H:10])[C:5]([H:11])([H:12])[O:6]1)([H:7])([H:8])[H:9]>>[C:1]([C:2]/[C:3](=[C:4]1/[C:5]([H:11])([H:12])[O:6]1)[H:10])([H:7])([H:8])[H:9]"
C       -2.52659232       0.11813003       0.07502149
C       -1.30457468      -0.71692372       0.01975019
C       -0.08075849      -0.30925382       0.15223359
C        1.23277486      -0.25479494      -0.18629250
C        2.64161364      -0.12123802       0.05040900
O        2.01806530      -0.40205676      -1.25215721
H       -3.06823276      -0.01089313      -0.86618584
H       -3.19860934      -0.25689630       0.85047619
H       -2.36440278       1.19205326       0.23685356
H        0.35888659       0.85652600       0.32869324
H        3.19394826      -0.95474704       0.47032083
H        3.09788172       0.86009443       0.12087748
12
Frame=3 idx=005223 GeodesicLength=0.1289021574295765 rxn_smarts="[C:1]([C:2]#[C:3][C@@:4]1([H:10])[C:5]([H:11])([H:12])[O:6]1)([H:7])([H:8])[H:9]>>[C:1]([C:2]/[C:3](=[C:4]1/[C:5]([H:11])([H:12])[O:6]1)[H:10])([H:7])([H:8])[H:9]"
C       -2.53206676       0.11019469       0.07159733
C       -1.29612822      -0.70185373       0.00790631
C       -0.07822596      -0.28643469       0.16687869
C        1.23231795      -0.22065347      -0.18580271
C        2.64518089      -0.12875718       0.04638505
O        2.01301654      -0.41253730      -1.24937469
H       -3.07428202      -0.01825830      -0.86918888
H       -3.19367668      -0.28483736       0.84631716
H       -2.38768446       1.18468202       0.24505838
H        0.37215374       0.88961122       0.33462028
H        3.17021331      -0.97132726       0.48291074
H        3.12918168       0.84017138       0.10269234
12
Frame=4 idx=005223 GeodesicLength=0.17207685214587437 rxn_smarts="[C:1]([C:2]#[C:3][C@@:4]1([H:10])[C:5]([H:11])([H:12])[O:6]1)([H:7])([H:8])[H:9]>>[C:1]([C:2]/[C:3](=[C:4]1/[C:5]([H:11])([H:12])[O:6]1)[H:10])([H:7])([H:8])[H:9]"
C       -2.53713995       0.10177812       0.06864250
C       -1.28695846      -0.68569800      -0.00396427
C       -0.07542529      -0.26188733       0.17880156
C        1.23231574      -0.18506663      -0.18710149
C        2.64773636      -0.13705537       0.04320314
O        2.00820848      -0.42170354      -1.24669213
H       -3.08096271      -0.02757570      -0.87091716
H       -3.18665975      -0.31303652       0.84350316
H       -2.41141821       1.17668240       0.25267159
H        0.38608448       0.92424978       0.33888232
H        3.14377836      -0.98839509       0.49628172
H        3.16044094       0.81770790       0.08668903
12
Frame=5 idx=005223 GeodesicLength=0.21549215608221978 rxn_smarts="[C:1]([C:2]#[C:3][C@@:4]1([H:10])[C:5]([H:11])([H:12])[O:6]1)([H:7])([H:8])[H:9]>>[C:1]([C:2]/[C:3](=[C:4]1/[C:5]([H:11])([H:12])[O:6]1)[H:10])([H:7])([H:8])[H:9]"
C       -2.54196725       0.09285534       0.06664140
C       -1.27710410      -0.66793656      -0.01747036
C       -0.07237123      -0.23506658       0.18714906
C        1.23308072      -0.14841754      -0.19045386
C        2.64932726      -0.14608189       0.04131364
O        2.00437289      -0.43152213      -1.24372918
H       -3.08849864      -0.03675345      -0.87116579
H       -3.17744573      -0.34357097       0.84154466
H       -2.43605975       1.16757807       0.26289246
H        0.40065599       0.96133413       0.33859076
H        3.11439180      -1.00519382       0.51243245
H        3.19161804       0.79277541       0.07225475
12
Frame=6 idx=005223 GeodesicLength=0.25929661754975347 rxn_smarts="[C:1]([C:2]#[C:3][C@@:4]1([H:10])[C:5]([H:11])([H:12])[O:6]1)([H:7])([H:8])[H:9]>>[C:1]([C:2]/[C:3](=[C:4]1/[C:5]([H:11])([H:12])[O:6]1)[H:10])([H:7])([H:8])[H:9]"
C       -2.54639249       0.08342674       0.06575158
C       -1.26669162      -0.64835382      -0.03309693
C       -0.06914488      -0.20586599       0.19159725
C        1.23458674      -0.11108525      -0.19583069
C        2.64963927      -0.15570276       0.04094794
O        2.00144425      -0.44241307      -1.24001207
H       -3.09674448      -0.04493388      -0.86981023
H       -3.16580819      -0.37714037       0.83998213
H       -2.46129466       1.15700930       0.27691565
H        0.41630755       1.00075529       0.33256229
H        3.08164370      -1.02096636       0.53173903
H        3.22245482       0.76527018       0.05925405
12
Frame=7 idx=005223 GeodesicLength=0.30299973052097595 rxn_smarts="[C:1]([C:2]#[C:3][C@@:4]1([H:10])[C:5]([H:11])([H:12])[O:6]1)([H:7])([H:8])[H:9]>>[C:1]([C:2]/[C:3](=[C:4]1/[C:5]([H:11])([H:12])[O:6]1)[H:10])([H:7])([H:8])[H:9]"
C       -2.55020624       0.07370196       0.06510231
C       -1.25588278      -0.62781382      -0.04820290
C       -0.06567959      -0.17545875       0.19462237
C        1.23668351      -0.07358049      -0.20199120
C        2.64881110      -0.16585229       0.04114246
O        1.99781222      -0.45185178      -1.23634813
H       -3.10480045      -0.05464275      -0.86776432
H       -3.15227664      -0.41043953       0.83885977
H       -2.48650176       1.14569165       0.29047779
H        0.43282241       1.04109689       0.32520543
H        3.04714540      -1.03647875       0.55058140
H        3.25207281       0.73562767       0.04831503
12
Frame=8 idx=005223 GeodesicLength=0.3471082860719902 rxn_smarts="[C:1]([C:2]#[C:3][C@@:4]1([H:10])[C:5]([H:11])([H:12])[O:6]1)([H:7])([H:8])[H:9]>>[C:1]([C:2]/[C:3](=[C:4]1/[C:5]([H:11])([H:12])[O:6]1)[H:10])([H:7])([H:8])[H:9]"
C       -2.55359343       0.06357474       0.06543474
C       -1.24482730      -0.60541577      -0.06528615
C       -0.06215025      -0.14292209       0.19428558
C        1.23961124      -0.03624589      -0.20969605
C        2.64673909      -0.17648267       0.04278361
O        1.99473456      -0.46200089      -1.23209469
H       -3.11352708      -0.06333408      -0.86426125
H       -3.13625273      -0.44631427       0.83777565
H       -2.51202010       1.13278624       0.30769670
H        0.45060586       1.08340965       0.31227948
H        3.00998934      -1.05080968       0.57173006
H        3.28069079       0.70375471       0.03935232
12
Frame=9 idx=005223 GeodesicLength=0.39139388031965433 rxn_smarts="[C:1]([C:2]#[C:3][C@@:4]1([H:10])[C:5]([H:11])([H:12])[O:6]1)([H:7])([H:8])[H:9]>>[C:1]([C:2]/[C:3](=[C:4]1/[C:5]([H:11])([H:12])[O:6]1)[H:10])([H:7])([H:8])[H:9]"
C       -2.55632329       0.05320524       0.06615196
C       -1.23368049      -0.58185942      -0.08244709
C       -0.05856829      -0.10918114       0.19239214
C        1.24313122       0.00048868      -0.21798406
C        2.64343327      -0.18744997       0.04514132
O        1.99105542      -0.47133054      -1.22769341
H       -3.12206931      -0.07259892      -0.86000134
H       -3.11821382      -0.48251275       0.83667177
H       -2.53719036       1.11881720       0.32572280
H        0.46960705       1.12657235       0.29683606
H        2.97118582      -1.06431525       0.59277805
H        3.30763277       0.67016453       0.03243179
12
Frame=10 idx=005223 GeodesicLength=0.43584782267922173 rxn_smarts="[C:1]([C:2]#[C:3][C@@:4]1([H:10])[C:5]([H:11])([H:12])[O:6]1)([H:7])([H:8])[H:9]>>[C:1]([C:2]/[C:3](=[C:4]1/[C:5]([H:11])([H:12])[O:6]1)[H:10])([H:7])([H:8])[H:9]"
C       -2.55833508       0.04266183       0.06694483
C       -1.22256232      -0.55757560      -0.09884149
C       -0.05497038      -0.07470013       0.18979601
C        1.24709662       0.03651018      -0.22627021
C        2.63891217      -0.19867690       0.04785466
O        1.98631722      -0.47891652      -1.22344128
H       -3.13014552      -0.08347567      -0.85530556
H       -3.09838967      -0.51778406       0.83579831
H       -2.56171514       1.10419288       0.34285920
H        0.48991969       1.16994328       0.28055526
H        2.93121181      -1.07731129       0.61249713
H        3.33266060       0.63513201       0.02755314
12
Frame=11 idx=005223 GeodesicLength=0.4803929933837826 rxn_smarts="[C:1]([C:2]#[C:3][C@@:4]1([H:10])[C:5]([H:11])([H:12])[O:6]1)([H:7])([H:8])[H:9]>>[C:1]([C:2]/[C:3](=[C:4]1/[C:5]([H:11])([H:12])[O:6]1)[H:10])([H:7])([H:8])[H:9]"
C       -2.55971571       0.03199466       0.06819363
C       -1.21161064      -0.53205308      -0.11575334
C       -0.05146514      -0.03925930       0.18564702
C        1.25156187       0.07137958      -0.23498942
C        2.63324020      -0.20997051       0.05127650
O        1.98115497      -0.48674078      -1.21879311
H       -3.13787429      -0.09354576      -0.84997812
H       -3.07682210      -0.55395035       0.83405918
H       -2.58567999       1.08812917       0.36225065
H        0.51152720       1.21374570       0.26127195
H        2.89003886      -1.08873019       0.63276917
H        3.35564480       0.59900087       0.02404590
12
Frame=12 idx=005223 GeodesicLength=0.5252069027777271 rxn_smarts="[C:1]([C:2]#[C:3][C@@:4]1([H:10])[C:5]([H:11])([H:12])[O:6]1)([H:7])([H:8])[H:9]>>[C:1]([C:2]/[C:3](=[C:4]1/[C:5]([H:11])([H:12])[O:6]1)[H:10])([H:7])([H:8])[H:9]"
C       -2.56043568       0.02108548       0.06995195
C       -1.20085113      -0.50496633      -0.13373016
C       -0.04810304      -0.00239027       0.17949165
C        1.25658576       0.10547356      -0.24422436
C        2.62624876      -0.22148165       0.05563232
O        1.97572052      -0.49434574      -1.21387045
H       -3.14580172      -0.10338296      -0.84365168
H       -3.05269775      -0.59115516       0.83190174
H       -2.60915025       1.07058844       0.38367838
H        0.53466454       1.25824396       0.23870767
H        2.84710438      -1.09902037       0.65360562
H        3.37671561       0.56135104       0.02250731
12
Frame=13 idx=005223 GeodesicLength=0.5701244535754276 rxn_smarts="[C:1]([C:2]#[C:3][C@@:4]1([H:10])[C:5]([H:11])([H:12])[O:6]1)([H:7])([H:8])[H:9]>>[C:1]([C:2]/[C:3](=[C:4]1/[C:5]([H:11])([H:12])[O:6]1)[H:10])([H:7])([H:8])[H:9]"
C       -2.56033725       0.01007063       0.07172753
C       -1.19033010      -0.47724641      -0.15079458
C       -0.04483466       0.03498681       0.17302259
C        1.26186829       0.13859457      -0.25318984
C        2.61804049      -0.23302828       0.06010083
O        1.96912948      -0.50074041      -1.20897696
H       -3.15286230      -0.11437131      -0.83709617
H       -3.02700790      -0.62733670       0.82943842
H       -2.63159101       1.05221356       0.40456274
H        0.55924524       1.30242249       0.21566644
H        2.80316483      -1.10841366       0.67314523
H        3.39551488       0.52284872       0.02239377
12
Frame=14 idx=005223 GeodesicLength=0.6152650267469864 rxn_smarts="[C:1]([C:2]#[C:3][C@@:4]1([H:10])[C:5]([H:11])([H:12])[O:6]1)([H:7])([H:8])[H:9]>>[C:1]([C:2]/[C:3](=[C:4]1/[C:5]([H:11])([H:12])[O:6]1)[H:10])([H:7])([H:8])[H:9]"
C       -2.55947441      -0.00119248       0.07367724
C       -1.18005027      -0.44830454      -0.16798854
C       -0.04173107       0.07352916       0.16543239
C        1.26751633       0.17119173      -0.26211952
C        2.60847725      -0.24481554       0.06505560
O        1.96185731      -0.50580303      -1.20434936
H       -3.15969404      -0.12685576      -0.82970380
H       -2.99887046      -0.66290813       0.82712060
H       -2.65334099       1.03278209       0.42518637
H        0.58540202       1.34680971       0.19153433
H        2.75767587      -1.11737799       0.69185628
H        3.41223246       0.48294478       0.02429841
12
Frame=15 idx=005223 GeodesicLength=0.6605718650003134 rxn_smarts="[C:1]([C:2]#[C:3][C@@:4]1([H:10])[C:5]([H:11])([H:12])[O:6]1)([H:7])([H:8])[H:9]>>[C:1]([C:2]/[C:3](=[C:4]1/[C:5]([H:11])([H:12])[O:6]1)[H:10])([H:7])([H:8])[H:9]"
C       -2.55780554      -0.01262770       0.07575653
C       -1.17010144      -0.41843850      -0.18499114
C       -0.03878407       0.11288505       0.15701706
C        1.27343100       0.20304045      -0.27092206
C        2.59761011      -0.25667442       0.07030902
O        1.95375923      -0.50988727      -1.19981468
H       -3.16598787      -0.14043410      -0.82183451
H       -2.96864811      -0.69782420       0.82462073
H       -2.67414639       1.01240560       0.44578434
H        0.61313646       1.39101060       0.16656755
H        2.71086729      -1.12554453       0.70968847
H        3.42666932       0.44208901       0.02781870
12
Frame=16 idx=005223 GeodesicLength=0.7060088937278161 rxn_smarts="[C:1]([C:2]#[C:3][C@@:4]1([H:10])[C:5]([H:11])([H:12])[O:6]1)([H:7])([H:8])[H:9]>>[C:1]([C:2]/[C:3](=[C:4]1/[C:5]([H:11])([H:12])[O:6]1)[H:10])([H:7])([H:8])[H:9]"
C       -2.55526316      -0.02424655       0.07807577
C       -1.16055355      -0.38737277      -0.20224849
C       -0.03603460       0.15318491       0.14741699
C        1.27959926       0.23412395      -0.27978274
C        2.58533291      -0.26854235       0.07600256
O        1.94499589      -0.51351019      -1.19518827
H       -3.17176298      -0.15441329      -0.81329122
H       -2.93614489      -0.73260831       0.82147555
H       -2.69386485       0.99065326       0.46731434
H        0.64249762       1.43498804       0.14015422
H        2.66248954      -1.13256862       0.72719061
H        3.43870881       0.40031191       0.03288067
