9
Frame=0 idx=002763 GeodesicLength=0.0 rxn_smarts="[C:1]([C:2](=[O:3])[C:4](=[O:5])[H:9])([H:6])([H:7])[H:8]>>[C:1](=[C:2]=[O:3])([H:7])[H:8].[C:4](=[O:5])([H:6])[H:9]"
C        1.26765972      -0.33010338       0.00583663
C        0.32130729       0.66558253      -0.08366679
O        0.18463110       1.86061545      -0.09693907
C       -1.31501552      -0.11402173      -0.07806251
O       -1.58709682      -1.16879062      -0.54338647
H       -0.12984892      -0.18142462       0.82450844
H        2.32865273      -0.11008889       0.02351254
H        0.93766253      -1.34553802      -0.17442667
H       -2.00795208       0.72376924       0.12262392
9
Frame=1 idx=002763 GeodesicLength=0.10805553284430401 rxn_smarts="[C:1]([C:2](=[O:3])[C:4](=[O:5])[H:9])([H:6])([H:7])[H:8]>>[C:1](=[C:2]=[O:3])([H:7])[H:8].[C:4](=[O:5])([H:6])[H:9]"
C        1.26655895      -0.32862817       0.02404164
C        0.33064909       0.67652588      -0.08855631
O        0.20110191       1.87083679      -0.10742376
C       -1.32401744      -0.11882545      -0.06894666
O       -1.58413824      -1.16454430      -0.56332937
H       -0.12807561      -0.18878156       0.84800480
H        2.32905308      -0.11659475       0.00522806
H        0.93722785      -1.34177549      -0.17179886
H       -2.02835960       0.71178704       0.12278044
9
Frame=2 idx=002763 GeodesicLength=0.21610552739936292 rxn_smarts="[C:1]([C:2](=[O:3])[C:4](=[O:5])[H:9])([H:6])([H:7])[H:8]>>[C:1](=[C:2]=[O:3])([H:7])[H:8].[C:4](=[O:5])([H:6])[H:9]"
C        1.26531501      -0.32656665       0.04081227
C        0.34033175       0.68778253      -0.09547504
O        0.21810614       1.88135390      -0.11870348
C       -1.33306394      -0.12370994      -0.06016451
O       -1.58127001      -1.15974746      -0.58286298
H       -0.12585049      -0.19662455       0.87127773
H        2.32851708      -0.12381128      -0.00985204
H        0.93690204      -1.33747031      -0.16981302
H       -2.04898758       0.69879375       0.12478107
9
Frame=3 idx=002763 GeodesicLength=0.32413776052777477 rxn_smarts="[C:1]([C:2](=[O:3])[C:4](=[O:5])[H:9])([H:6])([H:7])[H:8]>>[C:1](=[C:2]=[O:3])([H:7])[H:8].[C:4](=[O:5])([H:6])[H:9]"
C        1.26385259      -0.32396164       0.05621465
C        0.35037410       0.69932396      -0.10446496
O        0.23571017       1.89215942      -0.13065874
C       -1.34215764      -0.12864245      -0.05174980
O       -1.57860491      -1.15441748      -0.60195192
H       -0.12322025      -0.20507491       0.89437694
H        2.32728521      -0.13151943      -0.02184923
H        0.93663315      -1.33269323      -0.16841876
H       -2.06987243       0.68482576       0.12850182
9
Frame=4 idx=002763 GeodesicLength=0.4321721414672356 rxn_smarts="[C:1]([C:2](=[O:3])[C:4](=[O:5])[H:9])([H:6])([H:7])[H:8]>>[C:1](=[C:2]=[O:3])([H:7])[H:8].[C:4](=[O:5])([H:6])[H:9]"
C        1.26210113      -0.32083289       0.07035008
C        0.36080469       0.71112965      -0.11556827
O        0.25398443       1.90324973      -0.14319889
C       -1.35130157      -0.13359060      -0.04371424
O       -1.57623965      -1.14857091      -0.62057738
H       -0.12022636      -0.21426655       0.91737611
H        2.32553901      -0.13953794      -0.03090506
H        0.93638057      -1.32748866      -0.16757920
H       -2.09104225       0.66990818       0.13381686
9
Frame=5 idx=002763 GeodesicLength=0.5401946468330455 rxn_smarts="[C:1]([C:2](=[O:3])[C:4](=[O:5])[H:9])([H:6])([H:7])[H:8]>>[C:1](=[C:2]=[O:3])([H:7])[H:8].[C:4](=[O:5])([H:6])[H:9]"
C        1.25999701      -0.31718158       0.08336241
C        0.37166232       0.72317659      -0.12881073
O        0.27299524       1.91461043      -0.15623783
C       -1.36049609      -0.13851231      -0.03606032
O       -1.57423376      -1.14221382      -0.63872804
H       -0.11692375      -0.22434789       0.94036148
H        2.32339485      -0.14772294      -0.03723315
H        0.93612590      -1.32187073      -0.16723569
H       -2.11252172       0.65406225       0.14058188
9
Frame=6 idx=002763 GeodesicLength=0.6482097444503929 rxn_smarts="[C:1]([C:2](=[O:3])[C:4](=[O:5])[H:9])([H:6])([H:7])[H:8]>>[C:1](=[C:2]=[O:3])([H:7])[H:8].[C:4](=[O:5])([H:6])[H:9]"
C        1.25746978      -0.31298847       0.09536874
C        0.38299230       0.73545129      -0.14424545
O        0.29280134       1.92622908      -0.16976117
C       -1.36973748      -0.14336372      -0.02876930
O       -1.57264088      -1.13533343      -0.65641136
H       -0.11334244      -0.23549853       0.96341639
H        2.32092104      -0.15595273      -0.04094937
H        0.93585526      -1.31583758      -0.16736181
H       -2.13431891       0.63729409       0.14871333
9
Frame=7 idx=002763 GeodesicLength=0.7562251545192403 rxn_smarts="[C:1]([C:2](=[O:3])[C:4](=[O:5])[H:9])([H:6])([H:7])[H:8]>>[C:1](=[C:2]=[O:3])([H:7])[H:8].[C:4](=[O:5])([H:6])[H:9]"
C        1.25444557      -0.30821798       0.10647686
C        0.39485153       0.74794110      -0.16193918
O        0.31345140       1.93808148      -0.18382263
C       -1.37902141      -0.14809460      -0.02180638
O       -1.57150571      -1.12788668      -0.67365760
H       -0.10950399      -0.24793527       0.98662444
H        2.31814910      -0.16411744      -0.04210641
H        0.93556637      -1.30936926      -0.16794916
H       -2.15643288       0.61959865       0.15818006
9
Frame=8 idx=002763 GeodesicLength=0.8642291154492738 rxn_smarts="[C:1]([C:2](=[O:3])[C:4](=[O:5])[H:9])([H:6])([H:7])[H:8]>>[C:1](=[C:2]=[O:3])([H:7])[H:8].[C:4](=[O:5])([H:6])[H:9]"
C        1.25084371      -0.30282237       0.11678942
C        0.40731021       0.76063184      -0.18196185
O        0.33498474       1.95013481      -0.19853115
C       -1.38833989      -0.15263998      -0.01513222
O       -1.57086797      -1.11980578      -0.69049087
H       -0.10542486      -0.26193332       1.01005491
H        2.31507695      -0.17210641      -0.04070585
H        0.93526977      -1.30242619      -0.16900387
H       -2.17885265       0.60096741       0.16898148
9
Frame=9 idx=002763 GeodesicLength=0.9722368342437884 rxn_smarts="[C:1]([C:2](=[O:3])[C:4](=[O:5])[H:9])([H:6])([H:7])[H:8]>>[C:1](=[C:2]=[O:3])([H:7])[H:8].[C:4](=[O:5])([H:6])[H:9]"
C        1.24657390      -0.29673859       0.12639857
C        0.42045553       0.77350575      -0.20440622
O        0.35741879       1.96233372      -0.21409952
C       -1.39768582      -0.15693247      -0.00867817
O       -1.57076949      -1.11096408      -0.70698255
H       -0.10110544      -0.27783028       1.03378175
H        2.31167606      -0.17979882      -0.03664753
H        0.93498699      -1.29495656      -0.17055866
H       -2.20155053       0.58138133       0.18119234
9
Frame=10 idx=002763 GeodesicLength=1.0802243161686427 rxn_smarts="[C:1]([C:2](=[O:3])[C:4](=[O:5])[H:9])([H:6])([H:7])[H:8]>>[C:1](=[C:2]=[O:3])([H:7])[H:8].[C:4](=[O:5])([H:6])[H:9]"
C        1.24152831      -0.28989267       0.13538865
C        0.43439128       0.78654350      -0.22936074
O        0.38076926       1.97463231      -0.23079445
C       -1.40704373      -0.16087586      -0.00238367
O       -1.57125958      -1.10122609      -0.72314890
H       -0.09653889      -0.29607251       1.05783084
H        2.30788088      -0.18705403      -0.02975970
H        0.93475650      -1.28688512      -0.17267021
H       -2.22448403       0.56083048       0.19489819
9
Frame=11 idx=002763 GeodesicLength=1.1881905419462855 rxn_smarts="[C:1]([C:2](=[O:3])[C:4](=[O:5])[H:9])([H:6])([H:7])[H:8]>>[C:1](=[C:2]=[O:3])([H:7])[H:8].[C:4](=[O:5])([H:6])[H:9]"
C        1.23558135      -0.28219272       0.14385116
C        0.44924590       0.79971554      -0.25693300
O        0.40503212       1.98696654      -0.24899011
C       -1.41639849      -0.16436464       0.00384058
O       -1.57239368      -1.09039035      -0.73904180
H       -0.09170478      -0.31721218       1.08221244
H        2.30359042      -0.19370282      -0.01978124
H        0.93463669      -1.27812137      -0.17540549
H       -2.24758953       0.53930200       0.21024747
9
Frame=12 idx=002763 GeodesicLength=1.296127997470185 rxn_smarts="[C:1]([C:2](=[O:3])[C:4](=[O:5])[H:9])([H:6])([H:7])[H:8]>>[C:1](=[C:2]=[O:3])([H:7])[H:8].[C:4](=[O:5])([H:6])[H:9]"
C        1.22857991      -0.27352722       0.15188901
C        0.46517505       0.81297932      -0.28724273
O        0.43019413       1.99926895      -0.26915019
C       -1.42573052      -0.16727039       0.01009926
O       -1.57423739      -1.07820820      -0.75469903
H       -0.08656951      -0.34194441       1.10688216
H        2.29865588      -0.19953601      -0.00636934
H        0.93471252      -1.26855309      -0.17883314
H       -2.27078007       0.51679105       0.22742400
9
Frame=13 idx=002763 GeodesicLength=1.4040347211578519 rxn_smarts="[C:1]([C:2](=[O:3])[C:4](=[O:5])[H:9])([H:6])([H:7])[H:8]>>[C:1](=[C:2]=[O:3])([H:7])[H:8].[C:4](=[O:5])([H:6])[H:9]"
C        1.22033743      -0.26375956       0.15962108
C        0.48236974       0.82626968      -0.32043079
O        0.45623433       2.01146359      -0.29184373
C       -1.43501768      -0.16944279       0.01652704
O       -1.57687029      -1.06436836      -0.77014875
H       -0.08108258      -0.37113391       1.13171961
H        2.29286370      -0.20428779       0.01091744
H        0.93510541      -1.25804478      -0.18301554
H       -2.29394007       0.49330393       0.24665364
9
Frame=14 idx=002763 GeodesicLength=1.5118961948493892 rxn_smarts="[C:1]([C:2](=[O:3])[C:4](=[O:5])[H:9])([H:6])([H:7])[H:8]>>[C:1](=[C:2]=[O:3])([H:7])[H:8].[C:4](=[O:5])([H:6])[H:9]"
C        1.21061734      -0.25272261       0.16719226
C        0.50105929       0.83948906      -0.35665642
O        0.48312843       2.02346717      -0.31775169
C       -1.44423167      -0.17070199       0.02329022
O       -1.58038712      -1.04849406      -0.78538766
H       -0.07516393      -0.40584918       1.15647311
H        2.28591213      -0.20762223       0.03262874
H        0.93598588      -1.24643149      -0.18799077
H       -2.31692036       0.46886532       0.26820220
9
Frame=15 idx=002763 GeodesicLength=1.6197092203792396 rxn_smarts="[C:1]([C:2](=[O:3])[C:4](=[O:5])[H:9])([H:6])([H:7])[H:8]>>[C:1](=[C:2]=[O:3])([H:7])[H:8].[C:4](=[O:5])([H:6])[H:9]"
C        1.19912483      -0.24021176       0.17477143
C        0.52152753       0.85248757      -0.39609792
O        0.51085930       2.03516778      -0.34768183
C       -1.45334652      -0.17084635       0.03061788
O       -1.58490683      -1.03012482      -0.80037697
H       -0.06869505      -0.44738404       1.18070563
H        2.27738210      -0.20909899       0.05944966
H        0.93759269      -1.23351589      -0.19376282
H       -2.33953805       0.44352649       0.29237493
9
Frame=16 idx=002763 GeodesicLength=1.7274608629808628 rxn_smarts="[C:1]([C:2](=[O:3])[C:4](=[O:5])[H:9])([H:6])([H:7])[H:8]>>[C:1](=[C:2]=[O:3])([H:7])[H:8].[C:4](=[O:5])([H:6])[H:9]"
C        1.18547764      -0.22598098       0.18255877
C        0.54411795       0.86504072      -0.43892434
O        0.53943199       2.04640045      -0.38256500
C       -1.46233355      -0.16966469       0.03882341
O       -1.59056223      -1.00870401      -0.81501915
H       -0.06149497      -0.49725846       1.20369221
H        2.26668301      -0.20814415       0.09219152
H        0.94024495      -1.21906169      -0.20025913
H       -2.36156481       0.41737282       0.31950172
