20
Frame=0 idx=009127 GeodesicLength=0.0 rxn_smarts="[C:1]([C@@:2]1([H:11])[N:3]([C:4]([H:12])([H:13])[H:14])[C:5]1([C:6]([H:15])([H:16])[H:17])[C:7]([H:18])([H:19])[H:20])([H:8])([H:9])[H:10]>>[C:1]([C-:2]1[N+:3]([C:4]([H:12])([H:13])[H:14])([H:11])[C:5]1([C:6]([H:15])([H:16])[H:17])[C:7]([H:18])([H:19])[H:20])([H:8])([H:9])[H:10]"
C       -1.16050903       1.92186722       0.66664068
C       -0.53121940       0.59765943       1.00915463
N       -0.85961341      -0.55389717      -0.41159004
C       -0.93888895      -2.01132666      -0.23900788
C        0.42577896       0.06710133      -0.01501441
C        1.51830815      -0.84046285       0.52626800
C        0.97136848       0.97270433      -1.10657008
H       -2.01769639       2.13050289       1.30639677
H       -0.39856287       2.68120280       0.87835236
H       -1.45692123       2.04550064      -0.37857137
H       -1.45149031      -0.28420867       0.57797773
H       -0.22064162      -2.47998664      -0.91222414
H       -0.73849720      -2.35176381       0.78060445
H       -1.94047773      -2.32996433      -0.52815269
H        2.34128526      -0.21716077       0.88059379
H        1.17260370      -1.43324290       1.37055026
H        1.91837675      -1.50283492      -0.24629778
H        0.18028566       1.50905308      -1.62511500
H        1.51366737       0.38172154      -1.84782391
H        1.67284382       1.69753546      -0.68617137
20
Frame=1 idx=009127 GeodesicLength=0.07228555413499166 rxn_smarts="[C:1]([C@@:2]1([H:11])[N:3]([C:4]([H:12])([H:13])[H:14])[C:5]1([C:6]([H:15])([H:16])[H:17])[C:7]([H:18])([H:19])[H:20])([H:8])([H:9])[H:10]>>[C:1]([C-:2]1[N+:3]([C:4]([H:12])([H:13])[H:14])([H:11])[C:5]1([C:6]([H:15])([H:16])[H:17])[C:7]([H:18])([H:19])[H:20])([H:8])([H:9])[H:10]"
C       -1.15992921       1.92166202       0.66906455
C       -0.53842596       0.59022421       0.99503195
N       -0.85528395      -0.55328772      -0.39965238
C       -0.93879422      -2.01049555      -0.23994728
C        0.43225301       0.06730270      -0.01656341
C        1.52417346      -0.83668762       0.53013375
C        0.97398931       0.96872214      -1.11278909
H       -2.02506784       2.12232672       1.30083183
H       -0.40188011       2.67849900       0.90131993
H       -1.44617932       2.05894456      -0.37752841
H       -1.48127191      -0.28140172       0.57921416
H       -0.23106282      -2.47891333      -0.92450542
H       -0.72923911      -2.35479992       0.77638388
H       -1.94430578      -2.32565756      -0.51921313
H        2.34593400      -0.21146559       0.88397968
H        1.17635912      -1.42824334       1.37446276
H        1.92700131      -1.50091175      -0.23950870
H        0.18118684       1.50415957      -1.62986804
H        1.51366186       0.37539086      -1.85417760
H        1.67688133       1.69463233      -0.69666902
20
Frame=2 idx=009127 GeodesicLength=0.14457561490324747 rxn_smarts="[C:1]([C@@:2]1([H:11])[N:3]([C:4]([H:12])([H:13])[H:14])[C:5]1([C:6]([H:15])([H:16])[H:17])[C:7]([H:18])([H:19])[H:20])([H:8])([H:9])[H:10]>>[C:1]([C-:2]1[N+:3]([C:4]([H:12])([H:13])[H:14])([H:11])[C:5]1([C:6]([H:15])([H:16])[H:17])[C:7]([H:18])([H:19])[H:20])([H:8])([H:9])[H:10]"
C       -1.15921287       1.92126984       0.67176537
C       -0.54574254       0.58263434       0.98070934
N       -0.85085683      -0.55291505      -0.38803707
C       -0.93875046      -2.00972471      -0.24074253
C        0.43868766       0.06753052      -0.01821342
C        1.53004077      -0.83272126       0.53402607
C        0.97654714       0.96467993      -1.11914555
H       -2.03240928       2.11408997       1.29505641
H       -0.40529316       2.67507058       0.92511213
H       -1.43488867       2.07264951      -0.37597825
H       -1.51096318      -0.27795601       0.57900897
H       -0.24177201      -2.47797319      -0.93648982
H       -0.72001458      -2.35762679       0.77228867
H       -1.94806914      -2.32157591      -0.50991991
H        2.35050456      -0.20547068       0.88736828
H        1.18010900      -1.42299379       1.37843417
H        1.93569240      -1.49883621      -0.23259999
H        0.18197550       1.49920327      -1.63467805
H        1.51359749       0.36896469      -1.86061765
H        1.68081820       1.69170095      -0.70734717
20
Frame=3 idx=009127 GeodesicLength=0.21687236263424245 rxn_smarts="[C:1]([C@@:2]1([H:11])[N:3]([C:4]([H:12])([H:13])[H:14])[C:5]1([C:6]([H:15])([H:16])[H:17])[C:7]([H:18])([H:19])[H:20])([H:8])([H:9])[H:10]>>[C:1]([C-:2]1[N+:3]([C:4]([H:12])([H:13])[H:14])([H:11])[C:5]1([C:6]([H:15])([H:16])[H:17])[C:7]([H:18])([H:19])[H:20])([H:8])([H:9])[H:10]"
C       -1.15836644       1.92069486       0.67474175
C       -0.55312534       0.57494488       0.96620970
N       -0.84634645      -0.55277246      -0.37674618
C       -0.93875562      -2.00901749      -0.24140937
C        0.44506193       0.06778181      -0.01995169
C        1.53589670      -0.82856104       0.53794935
C        0.97903477       0.96056692      -1.12563116
H       -2.03972366       2.10581143       1.28905053
H       -0.40884456       2.67091681       0.94969305
H       -1.42304279       2.08660104      -0.37389867
H       -1.54047872      -0.27388955       0.57739800
H       -0.25277772      -2.47715828      -0.94820731
H       -0.71080270      -2.36027192       0.76829289
H       -1.95177086      -2.31770961      -0.50026985
H        2.35498652      -0.19917701       0.89076049
H        1.18384252      -1.41749437       1.38246749
H        1.94444058      -1.49660122      -0.22556654
H        0.18265356       1.49418512      -1.63953782
H        1.51345855       0.36242673      -1.86713723
H        1.68465975       1.68872335      -0.71820744
20
Frame=4 idx=009127 GeodesicLength=0.28917461518445764 rxn_smarts="[C:1]([C@@:2]1([H:11])[N:3]([C:4]([H:12])([H:13])[H:14])[C:5]1([C:6]([H:15])([H:16])[H:17])[C:7]([H:18])([H:19])[H:20])([H:8])([H:9])[H:10]>>[C:1]([C-:2]1[N+:3]([C:4]([H:12])([H:13])[H:14])([H:11])[C:5]1([C:6]([H:15])([H:16])[H:17])[C:7]([H:18])([H:19])[H:20])([H:8])([H:9])[H:10]"
C       -1.15739692       1.91994028       0.67799082
C       -0.56053417       0.56720592       0.95155475
N       -0.84176515      -0.55285234      -0.36577936
C       -0.93880713      -2.00837630      -0.24196145
C        0.45135766       0.06805357      -0.02176783
C        1.54172940      -0.82420499       0.54190614
C        0.98144670       0.95637413      -1.13223792
H       -2.04701333       2.09751126       1.28279033
H       -0.41257876       2.66603334       0.97502951
H       -1.41063349       2.10078313      -0.37126970
H       -1.56974440      -0.26922164       0.57442053
H       -0.26409202      -2.47646077      -0.95968636
H       -0.70158114      -2.36276160       0.76437114
H       -1.95541372      -2.31404632      -0.49025515
H        2.35937066      -0.19258610       0.89415543
H        1.18755019      -1.41174550       1.38656404
H        1.95323736      -1.49420042      -0.21840493
H        0.18322431       1.48910755      -1.64444040
H        1.51323225       0.35576363      -1.87372973
H        1.68841170       1.68568317      -0.72924988
20
Frame=5 idx=009127 GeodesicLength=0.3614829578237363 rxn_smarts="[C:1]([C@@:2]1([H:11])[N:3]([C:4]([H:12])([H:13])[H:14])[C:5]1([C:6]([H:15])([H:16])[H:17])[C:7]([H:18])([H:19])[H:20])([H:8])([H:9])[H:10]>>[C:1]([C-:2]1[N+:3]([C:4]([H:12])([H:13])[H:14])([H:11])[C:5]1([C:6]([H:15])([H:16])[H:17])[C:7]([H:18])([H:19])[H:20])([H:8])([H:9])[H:10]"
C       -1.15631169       1.91900964       0.68150898
C       -0.56793309       0.55946269       0.93676323
N       -0.83712571      -0.55314542      -0.35513299
C       -0.93890277      -2.00780202      -0.24241129
C        0.45756022       0.06834281      -0.02365320
C        1.54752871      -0.81965179       0.54589838
C        0.98377899       0.95209342      -1.13895922
H       -2.05428285       2.08920663       1.27625153
H       -0.41653722       2.66041841       1.00108831
H       -1.39765038       2.11518079      -0.36807057
H       -1.59869948      -0.26397450       0.57012077
H       -0.27572614      -2.47586866      -0.97095345
H       -0.69232886      -2.36511828       0.76049881
H       -1.95899838      -2.31057846      -0.47986882
H        2.36364972      -0.18570007       0.89755211
H        1.19122375      -1.40574766       1.39072507
H        1.96207522      -1.49162848      -0.21111273
H        0.18369226       1.48397509      -1.64937856
H        1.51290550       0.34896227      -1.88039063
H        1.69208221       1.68256359      -0.74047573
20
Frame=6 idx=009127 GeodesicLength=0.43378894454714173 rxn_smarts="[C:1]([C@@:2]1([H:11])[N:3]([C:4]([H:12])([H:13])[H:14])[C:5]1([C:6]([H:15])([H:16])[H:17])[C:7]([H:18])([H:19])[H:20])([H:8])([H:9])[H:10]>>[C:1]([C-:2]1[N+:3]([C:4]([H:12])([H:13])[H:14])([H:11])[C:5]1([C:6]([H:15])([H:16])[H:17])[C:7]([H:18])([H:19])[H:20])([H:8])([H:9])[H:10]"
C       -1.15511971       1.91790316       0.68529044
C       -0.57529077       0.55175320       0.92185176
N       -0.83243872      -0.55364190      -0.34480360
C       -0.93904120      -2.00729417      -0.24276788
C        0.46365849       0.06864718      -0.02560160
C        1.55328651      -0.81490064       0.54992572
C        0.98602963       0.94771926      -1.14578881
H       -2.06153370       2.08091732       1.26940641
H       -0.42076874       2.65406202       1.02784046
H       -1.38408023       2.12977873      -0.36428133
H       -1.62728963      -0.25816965       0.56454091
H       -0.28769680      -2.47537359      -0.98203014
H       -0.68302505      -2.36736150       0.75665368
H       -1.96252479      -2.30729277      -0.46909780
H        2.36781853      -0.17852203       0.90094710
H        1.19485695      -1.39950151       1.39494959
H        1.97094755      -1.48888107      -0.20369025
H        0.18406313       1.47879287      -1.65434613
H        1.51246973       0.34201403      -1.88711507
H        1.69567881       1.67935107      -0.75188343
20
Frame=7 idx=009127 GeodesicLength=0.5060902260692319 rxn_smarts="[C:1]([C@@:2]1([H:11])[N:3]([C:4]([H:12])([H:13])[H:14])[C:5]1([C:6]([H:15])([H:16])[H:17])[C:7]([H:18])([H:19])[H:20])([H:8])([H:9])[H:10]>>[C:1]([C-:2]1[N+:3]([C:4]([H:12])([H:13])[H:14])([H:11])[C:5]1([C:6]([H:15])([H:16])[H:17])[C:7]([H:18])([H:19])[H:20])([H:8])([H:9])[H:10]"
C       -1.15382590       1.91662100       0.68933304
C       -0.58257993       0.54410848       0.90683231
N       -0.82771370      -0.55433050      -0.33478705
C       -0.93922210      -2.00685176      -0.24303758
C        0.46964558       0.06896419      -0.02760943
C        1.55899724      -0.80995228       0.55398613
C        0.98819934       0.94324815      -1.15272141
H       -2.06877315       2.07265396       1.26222051
H       -0.42532647       2.64695429       1.05525399
H       -1.36990683       2.14456242      -0.35987927
H       -1.65547038      -0.25182735       0.55772666
H       -0.30002252      -2.47496494      -0.99293369
H       -0.67365131      -2.36950664       0.75281688
H       -1.96599366      -2.30417542      -0.45792438
H        2.37187422      -0.17105662       0.90433540
H        1.19844552      -1.39300848       1.39923522
H        1.97984851      -1.48595519      -0.19614046
H        0.18434520       1.47357094      -1.65933548
H        1.51191797       0.33491298      -1.89390037
H        1.69921238       1.67603275      -0.76347102
20
Frame=8 idx=009127 GeodesicLength=0.5783807899165461 rxn_smarts="[C:1]([C@@:2]1([H:11])[N:3]([C:4]([H:12])([H:13])[H:14])[C:5]1([C:6]([H:15])([H:16])[H:17])[C:7]([H:18])([H:19])[H:20])([H:8])([H:9])[H:10]>>[C:1]([C-:2]1[N+:3]([C:4]([H:12])([H:13])[H:14])([H:11])[C:5]1([C:6]([H:15])([H:16])[H:17])[C:7]([H:18])([H:19])[H:20])([H:8])([H:9])[H:10]"
C       -1.15243930       1.91516125       0.69363025
C       -0.58977750       0.53655636       0.89171722
N       -0.82295911      -0.55520172      -0.32507492
C       -0.93944302      -2.00647314      -0.24322625
C        0.47551496       0.06929096      -0.02967351
C        1.56465574      -0.80480603       0.55807828
C        0.99028695       0.93867621      -1.15975304
H       -2.07599688       2.06444251       1.25466662
H       -0.43025857       2.63907918       1.08330309
H       -1.35511171       2.15951572      -0.35484123
H       -1.68321327      -0.24496840       0.54971501
H       -0.31272031      -2.47463380      -1.00367875
H       -0.66418831      -2.37156906       0.74896792
H       -1.96939909      -2.30121373      -0.44633528
H        2.37581318      -0.16330548       0.90771343
H        1.20198578      -1.38626928       1.40357996
H        1.98877424      -1.48284628      -0.18846531
H        0.18454354       1.46831554      -1.66434105
H        1.51124258       0.32765252      -1.90074417
H        1.70269010       1.67259670      -0.77523827
20
Frame=9 idx=009127 GeodesicLength=0.6506432592485217 rxn_smarts="[C:1]([C@@:2]1([H:11])[N:3]([C:4]([H:12])([H:13])[H:14])[C:5]1([C:6]([H:15])([H:16])[H:17])[C:7]([H:18])([H:19])[H:20])([H:8])([H:9])[H:10]>>[C:1]([C-:2]1[N+:3]([C:4]([H:12])([H:13])[H:14])([H:11])[C:5]1([C:6]([H:15])([H:16])[H:17])[C:7]([H:18])([H:19])[H:20])([H:8])([H:9])[H:10]"
C       -1.15098911       1.91350538       0.69816368
C       -0.59686782       0.52910590       0.87650898
N       -0.81817527      -0.55623381      -0.31567641
C       -0.93971970      -2.00614853      -0.24333070
C        0.48127709       0.06962930      -0.03179651
C        1.57026369      -0.79947050       0.56218989
C        0.99230959       0.93401506      -1.16687310
H       -2.08320683       2.05628651       1.24669783
H       -0.43566972       2.63043598       1.11192571
H       -1.33967697       2.17459722      -0.34914664
H       -1.71043975      -0.23764132       0.54059979
H       -0.32583958      -2.47437243      -1.01427306
H       -0.65462172      -2.37355236       0.74509243
H       -1.97276231      -2.29836217      -0.43428617
H        2.37964407      -0.15528750       0.91106935
H        1.20547801      -1.37929180       1.40797135
H        1.99771716      -1.47956022      -0.18068220
H        0.18468567       1.46305504      -1.66934854
H        1.51045656       0.32024869      -1.90764058
H        1.70613693       1.66904157      -0.78716510
20
Frame=10 idx=009127 GeodesicLength=0.7228965959988339 rxn_smarts="[C:1]([C@@:2]1([H:11])[N:3]([C:4]([H:12])([H:13])[H:14])[C:5]1([C:6]([H:15])([H:16])[H:17])[C:7]([H:18])([H:19])[H:20])([H:8])([H:9])[H:10]>>[C:1]([C-:2]1[N+:3]([C:4]([H:12])([H:13])[H:14])([H:11])[C:5]1([C:6]([H:15])([H:16])[H:17])[C:7]([H:18])([H:19])[H:20])([H:8])([H:9])[H:10]"
C       -1.14946382       1.91166228       0.70294070
C       -0.60383426       0.52178368       0.86121429
N       -0.81337232      -0.55742652      -0.30657342
C       -0.94003762      -2.00588419      -0.24335505
C        0.48691864       0.06997411      -0.03397809
C        1.57581473      -0.79393741       0.56632360
C        0.99425560       0.92925386      -1.17408670
H       -2.09040516       2.04821616       1.23828388
H       -0.44155679       2.62098166       1.14114209
H       -1.32357237       2.18981917      -0.34276253
H       -1.73718906      -0.22983443       0.53036462
H       -0.33937681      -2.47417522      -1.02472187
H       -0.64493184      -2.37547218       0.74117616
H       -1.97605617      -2.29564181      -0.42177499
H        2.38335684      -0.14698942       0.91440113
H        1.20891915      -1.37206797       1.41241302
H        2.00667899      -1.47608527      -0.17278460
H        0.18476278       1.45778798      -1.67435946
H        1.50953951       0.31268469      -1.91459548
H        1.70955000       1.66535084      -0.79926729
20
Frame=11 idx=009127 GeodesicLength=0.7951432397735264 rxn_smarts="[C:1]([C@@:2]1([H:11])[N:3]([C:4]([H:12])([H:13])[H:14])[C:5]1([C:6]([H:15])([H:16])[H:17])[C:7]([H:18])([H:19])[H:20])([H:8])([H:9])[H:10]>>[C:1]([C-:2]1[N+:3]([C:4]([H:12])([H:13])[H:14])([H:11])[C:5]1([C:6]([H:15])([H:16])[H:17])[C:7]([H:18])([H:19])[H:20])([H:8])([H:9])[H:10]"
C       -1.14787128       1.90962647       0.70795722
C       -0.61066574       0.51460149       0.84583477
N       -0.80855273      -0.55877065      -0.29776002
C       -0.94039772      -2.00567873      -0.24329796
C        0.49244020       0.07032388      -0.03622143
C        1.58130806      -0.78820614       0.57047417
C        0.99612780       0.92439383      -1.18139269
H       -2.09758966       2.04025010       1.22938816
H       -0.44796665       2.61068947       1.17093685
H       -1.30677539       2.20516535      -0.33566231
H       -1.76345283      -0.22156266       0.51903743
H       -0.35335408      -2.47403562      -1.03502604
H       -0.63510458      -2.37733378       0.73720842
H       -1.97927614      -2.29304155      -0.40877739
H        2.38695163      -0.13841269       0.91770205
H        1.21230883      -1.36459710       1.41689908
H        2.01565857      -1.47241777      -0.16477849
H        0.18478348       1.45252731      -1.67936869
H        1.50848875       0.30496167      -1.92161014
H        1.71293949       1.66151714      -0.81154301
20
Frame=12 idx=009127 GeodesicLength=0.8673896865592434 rxn_smarts="[C:1]([C@@:2]1([H:11])[N:3]([C:4]([H:12])([H:13])[H:14])[C:5]1([C:6]([H:15])([H:16])[H:17])[C:7]([H:18])([H:19])[H:20])([H:8])([H:9])[H:10]>>[C:1]([C-:2]1[N+:3]([C:4]([H:12])([H:13])[H:14])([H:11])[C:5]1([C:6]([H:15])([H:16])[H:17])[C:7]([H:18])([H:19])[H:20])([H:8])([H:9])[H:10]"
C       -1.14622139       1.90738821       0.71320775
C       -0.61735532       0.50756580       0.83036782
N       -0.80371804      -0.56025604      -0.28923005
C       -0.94080244      -2.00552921      -0.24315391
C        0.49784531       0.07067822      -0.03853112
C        1.58674424      -0.78227569       0.57463447
C        0.99793028       0.91943860      -1.18879090
H       -2.10475924       2.03240827       1.21996487
H       -0.45495323       2.59952083       1.20129690
H       -1.28925190       2.22062110      -0.32781105
H       -1.78922474      -0.21283971       0.50664309
H       -0.36779991      -2.47394910      -1.04518256
H       -0.62512459      -2.37914281       0.73317931
H       -1.98241881      -2.29054788      -0.39526242
H        2.39042964      -0.12955705       0.92096394
H        1.21564855      -1.35687671       1.42142417
H        2.02465550      -1.46855446      -0.15667089
H        0.18475710       1.44728886      -1.68437097
H        1.50730267       0.29708346      -1.92868716
H        1.71631633       1.65753531      -0.82399128
20
Frame=13 idx=009127 GeodesicLength=0.9396396459155978 rxn_smarts="[C:1]([C@@:2]1([H:11])[N:3]([C:4]([H:12])([H:13])[H:14])[C:5]1([C:6]([H:15])([H:16])[H:17])[C:7]([H:18])([H:19])[H:20])([H:8])([H:9])[H:10]>>[C:1]([C-:2]1[N+:3]([C:4]([H:12])([H:13])[H:14])([H:11])[C:5]1([C:6]([H:15])([H:16])[H:17])[C:7]([H:18])([H:19])[H:20])([H:8])([H:9])[H:10]"
C       -1.14452258       1.90493703       0.71869127
C       -0.62389700       0.50068104       0.81481061
N       -0.79887027      -0.56187402      -0.28097662
C       -0.94125405      -2.00543275      -0.24291743
C        0.50313781       0.07103604      -0.04091113
C        1.59212483      -0.77614564       0.57879848
C        0.99966654       0.91439172      -1.19628057
H       -2.11190916       2.02470990       1.20997793
H       -0.46256529       2.58744615       1.23219985
H       -1.27097464       2.23616878      -0.31917537
H       -1.81450422      -0.20367732       0.49319800
H       -0.38273877      -2.47391093      -1.05518362
H       -0.61498006      -2.38090144       0.72907978
H       -1.98547786      -2.28815077      -0.38120380
H        2.39379228      -0.12042333       0.92417921
H        1.21893987      -1.34890558       1.42598190
H        2.03367050      -1.46449175      -0.14846958
H        0.18469237       1.44209003      -1.68935907
H        1.50597782       0.28905371      -1.93582925
H        1.71969189       1.65339914      -0.83661059
20
Frame=14 idx=009127 GeodesicLength=1.0119016096691473 rxn_smarts="[C:1]([C@@:2]1([H:11])[N:3]([C:4]([H:12])([H:13])[H:14])[C:5]1([C:6]([H:15])([H:16])[H:17])[C:7]([H:18])([H:19])[H:20])([H:8])([H:9])[H:10]>>[C:1]([C-:2]1[N+:3]([C:4]([H:12])([H:13])[H:14])([H:11])[C:5]1([C:6]([H:15])([H:16])[H:17])[C:7]([H:18])([H:19])[H:20])([H:8])([H:9])[H:10]"
C       -1.14278422       1.90226136       0.72440143
C       -0.63028689       0.49394941       0.79915638
N       -0.79400901      -0.56361381      -0.27299481
C       -0.94175575      -2.00538711      -0.24257983
C        0.50832361       0.07139721      -0.04336799
C        1.59745234      -0.76981493       0.58295798
C        1.00134141       0.90925816      -1.20386317
H       -2.11903316       2.01717910       1.19937427
H       -0.47087169       2.57441684       1.26363339
H       -1.25190296       2.25179006      -0.30970671
H       -1.83928920      -0.19408461       0.47871991
H       -0.39820379      -2.47391950      -1.06501844
H       -0.60465692      -2.38261239       0.72490249
H       -1.98844612      -2.28583287      -0.36656525
H        2.39704251      -0.11101165       0.92733787
H        1.22218568      -1.34068091       1.43056529
H        2.04270393      -1.46022638      -0.14018344
H        0.18459963       1.43694900      -1.69432758
H        1.50451291       0.28087840      -1.94304126
H        1.72307769       1.64910462      -0.84940052
20
Frame=15 idx=009127 GeodesicLength=1.0841784748109267 rxn_smarts="[C:1]([C@@:2]1([H:11])[N:3]([C:4]([H:12])([H:13])[H:14])[C:5]1([C:6]([H:15])([H:16])[H:17])[C:7]([H:18])([H:19])[H:20])([H:8])([H:9])[H:10]>>[C:1]([C-:2]1[N+:3]([C:4]([H:12])([H:13])[H:14])([H:11])[C:5]1([C:6]([H:15])([H:16])[H:17])[C:7]([H:18])([H:19])[H:20])([H:8])([H:9])[H:10]"
C       -1.14101612       1.89934793       0.73033587
C       -0.63652090       0.48737149       0.78339930
N       -0.78913388      -0.56546657      -0.26527900
C       -0.94231115      -2.00538963      -0.24213271
C        0.51340893       0.07176128      -0.04590708
C        1.60272977      -0.76328323       0.58710483
C        1.00295931       0.90404326      -1.21153910
H       -2.12611931       2.00984189       1.18810831
H       -0.47993740       2.56039198       1.29557685
H       -1.23200500       2.26746104      -0.29935932
H       -1.86357951      -0.18407055       0.46321918
H       -0.41422494      -2.47397217      -1.07467166
H       -0.59414437      -2.38427601       0.72063971
H       -1.99131476      -2.28357790      -0.35131379
H        2.40018359      -0.10132305       0.93043036
H        1.22538933      -1.33220087       1.43516722
H        2.05175698      -1.45575538      -0.13182235
H        0.18448859       1.43188555      -1.69926926
H        1.50290511       0.27256377      -1.95032755
H        1.72648574       1.64464718      -0.86235983
20
Frame=16 idx=009127 GeodesicLength=1.1564783948412414 rxn_smarts="[C:1]([C@@:2]1([H:11])[N:3]([C:4]([H:12])([H:13])[H:14])[C:5]1([C:6]([H:15])([H:16])[H:17])[C:7]([H:18])([H:19])[H:20])([H:8])([H:9])[H:10]>>[C:1]([C-:2]1[N+:3]([C:4]([H:12])([H:13])[H:14])([H:11])[C:5]1([C:6]([H:15])([H:16])[H:17])[C:7]([H:18])([H:19])[H:20])([H:8])([H:9])[H:10]"
C       -1.13922806       1.89618221       0.73649061
C       -0.64259681       0.48094622       0.76753020
N       -0.78424332      -0.56742216      -0.25782478
C       -0.94292458      -2.00543785      -0.24156430
C        0.51840101       0.07212848      -0.04853586
C        1.60796101      -0.75654936       0.59122977
C        1.00452502       0.89875373      -1.21931046
H       -2.13315660       2.00272498       1.17612598
H       -0.48983614       2.54531818       1.32801275
H       -1.21123782       2.28315982      -0.28807553
H       -1.88737567      -0.17364067       0.44670261
H       -0.43083681      -2.47406971      -1.08412252
H       -0.58343164      -2.38589221       0.71628620
H       -1.99407481      -2.28136983      -0.33541246
H        2.40321944      -0.09135711       0.93344566
H        1.22855495      -1.32346199       1.43977983
H        2.06083121      -1.45107543      -0.12339666
H        0.18436944       1.42692108      -1.70417768
H        1.50115190       0.26411781      -1.95769449
H        1.72992826       1.64002380      -0.87548888
