11
Frame=0 idx=001452 GeodesicLength=0.0 rxn_smarts="[O:1]([C@@:2]1([H:8])[C:3]([H:9])([H:10])[N:4]([H:11])[C:5]1=[O:6])[H:7]>>[O:1]([C:2]([C:3]([N:4]=[C:5]=[O:6])([H:9])[H:10])([H:8])[H:11])[H:7]"
O        0.48662745       1.39726463      -1.00754123
C        0.15080759       0.61757383       0.05763957
C       -1.14398664      -0.15781925      -0.00590145
N       -0.58018359      -1.46277420       0.31711015
C        0.73373734      -1.05073629       0.38708749
O        1.74780732      -1.46211350       0.89632287
H        1.19898740       1.99614509      -0.77419222
H        0.36515533       1.07601035       1.02500193
H       -1.79624100       0.13637623       0.82321567
H       -1.71060794      -0.10778427      -0.93688482
H        0.54789675      -0.98214267      -0.78185797
11
Frame=1 idx=001452 GeodesicLength=0.11526855889376776 rxn_smarts="[O:1]([C@@:2]1([H:8])[C:3]([H:9])([H:10])[N:4]([H:11])[C:5]1=[O:6])[H:7]>>[O:1]([C:2]([C:3]([N:4]=[C:5]=[O:6])([H:9])[H:10])([H:8])[H:11])[H:7]"
O        0.47158332       1.41164378      -1.00835201
C        0.15377881       0.61737292       0.05437706
C       -1.14331370      -0.15644576      -0.00287906
N       -0.57047216      -1.45988907       0.30649920
C        0.73906421      -1.06389601       0.40474529
O        1.74907157      -1.48190501       0.91299642
H        1.19849629       1.99581962      -0.78261456
H        0.36324675       1.08105784       1.02093914
H       -1.79714025       0.13623839       0.82467054
H       -1.70723370      -0.10504354      -0.93541292
H        0.54291885      -0.97495316      -0.79496909
11
Frame=2 idx=001452 GeodesicLength=0.2298995655702354 rxn_smarts="[O:1]([C@@:2]1([H:8])[C:3]([H:9])([H:10])[N:4]([H:11])[C:5]1=[O:6])[H:7]>>[O:1]([C:2]([C:3]([N:4]=[C:5]=[O:6])([H:9])[H:10])([H:8])[H:11])[H:7]"
O        0.45621500       1.42642382      -1.00873500
C        0.15694769       0.61721162       0.05097839
C       -1.14243635      -0.15509863       0.00012051
N       -0.56033010      -1.45682938       0.29562588
C        0.74421300      -1.07723761       0.42307123
O        1.74997468      -1.50227248       0.93028079
H        1.19764914       1.99552183      -0.79168492
H        0.36149960       1.08598403       1.01679549
H       -1.79783830       0.13599232       0.82612603
H       -1.70379020      -0.10225282      -0.93386928
H        0.53789584      -0.96744269      -0.80870913
11
Frame=3 idx=001452 GeodesicLength=0.3440922221916247 rxn_smarts="[O:1]([C@@:2]1([H:8])[C:3]([H:9])([H:10])[N:4]([H:11])[C:5]1=[O:6])[H:7]>>[O:1]([C:2]([C:3]([N:4]=[C:5]=[O:6])([H:9])[H:10])([H:8])[H:11])[H:7]"
O        0.44054836       1.44158621      -1.00866818
C        0.16033095       0.61708944       0.04743520
C       -1.14133627      -0.15378620       0.00309376
N       -0.54970765      -1.45357644       0.28448951
C        0.74913163      -1.09076108       0.44220074
O        1.75051973      -1.52324850       0.94816301
H        1.19639980       1.99527908      -0.80141890
H        0.35992587       1.09079095       1.01256561
H       -1.79832579       0.13563156       0.82757094
H       -1.70026144      -0.09942137      -0.93225774
H        0.53277482      -0.95958365      -0.82317394
11
Frame=4 idx=001452 GeodesicLength=0.45799192712282677 rxn_smarts="[O:1]([C@@:2]1([H:8])[C:3]([H:9])([H:10])[N:4]([H:11])[C:5]1=[O:6])[H:7]>>[O:1]([C:2]([C:3]([N:4]=[C:5]=[O:6])([H:9])[H:10])([H:8])[H:11])[H:7]"
O        0.42461086       1.45711734      -1.00811783
C        0.16394705       0.61700843       0.04374149
C       -1.13999208      -0.15251738       0.00603654
N       -0.53854566      -1.45010675       0.27309128
C        0.75375850      -1.10446345       0.46227421
O        1.75071012      -1.54487291       0.96663379
H        1.19469458       1.99511224      -0.81184733
H        0.35854080       1.09547706       1.00824949
H       -1.79859364       0.13514718       0.82898968
H       -1.69662598      -0.09656171      -0.93058364
H        0.52749546      -0.95134005      -0.83846768
11
Frame=5 idx=001452 GeodesicLength=0.5717656395368486 rxn_smarts="[O:1]([C@@:2]1([H:8])[C:3]([H:9])([H:10])[N:4]([H:11])[C:5]1=[O:6])[H:7]>>[O:1]([C:2]([C:3]([N:4]=[C:5]=[O:6])([H:9])[H:10])([H:8])[H:11])[H:7]"
O        0.40843473       1.47299474      -1.00705811
C        0.16781367       0.61696683       0.03989541
C       -1.13838359      -0.15130465       0.00894534
N       -0.52677602      -1.44639964       0.26143876
C        0.75801046      -1.11834017       0.48348526
O        1.75055672      -1.56716517       0.98562249
H        1.19250554       1.99503036      -0.82298591
H        0.35734575       1.10005211       1.00384656
H       -1.79864031       0.13452877       0.83036336
H       -1.69285979      -0.09369386      -0.92885532
H        0.52199284      -0.94266931      -0.85469784
11
Frame=6 idx=001452 GeodesicLength=0.6856561093158202 rxn_smarts="[O:1]([C@@:2]1([H:8])[C:3]([H:9])([H:10])[N:4]([H:11])[C:5]1=[O:6])[H:7]>>[O:1]([C:2]([C:3]([N:4]=[C:5]=[O:6])([H:9])[H:10])([H:8])[H:11])[H:7]"
O        0.39205321       1.48920096      -1.00545356
C        0.17196165       0.61695928       0.03588850
C       -1.13648027      -0.15016423       0.01181547
N       -0.51429548      -1.44242564       0.24952551
C        0.76177270      -1.13238442       0.50606408
O        1.75006783      -1.59015661       1.00509225
H        1.18978843       1.99504625      -0.83486314
H        0.35635450       1.10451680       0.99935244
H       -1.79845237       0.13375533       0.83167279
H       -1.68893614      -0.09083913      -0.92707668
H        0.51616594      -0.93350859      -0.87201765
11
Frame=7 idx=001452 GeodesicLength=0.7997706657180906 rxn_smarts="[O:1]([C@@:2]1([H:8])[C:3]([H:9])([H:10])[N:4]([H:11])[C:5]1=[O:6])[H:7]>>[O:1]([C:2]([C:3]([N:4]=[C:5]=[O:6])([H:9])[H:10])([H:8])[H:11])[H:7]"
O        0.37551336       1.50570039      -1.00328591
C        0.17642189       0.61697699       0.03171645
C       -1.13425180      -0.14911560       0.01464278
N       -0.50100054      -1.43816086       0.23735600
C        0.76492294      -1.14659335       0.53025743
O        1.74925138      -1.61385807       1.02496192
H        1.18650750       1.99518061      -0.84748684
H        0.35557527       1.10887816       0.99476263
H       -1.79802089       0.13280745       0.83289594
H       -1.68482585      -0.08802306      -0.92525437
H        0.50990675      -0.92379266      -0.89056604
11
Frame=8 idx=001452 GeodesicLength=0.9143099615109269 rxn_smarts="[O:1]([C@@:2]1([H:8])[C:3]([H:9])([H:10])[N:4]([H:11])[C:5]1=[O:6])[H:7]>>[O:1]([C:2]([C:3]([N:4]=[C:5]=[O:6])([H:9])[H:10])([H:8])[H:11])[H:7]"
O        0.35886957       1.52246322      -1.00051916
C        0.18124338       0.61700064       0.02736548
C       -1.13165619      -0.14818530       0.01742031
N       -0.48674749      -1.43357657       0.22492365
C        0.76728709      -1.16097210       0.55638721
O        1.74811225      -1.63826266       1.04514334
H        1.18261677       1.99545066      -0.86087562
H        0.35503184       1.11312846       0.99006589
H       -1.79732773       0.13165699       0.83400439
H       -1.68049293      -0.08527965      -0.92339288
H        0.50306343      -0.91342369      -0.91052261
11
Frame=9 idx=001452 GeodesicLength=1.0303818772910254 rxn_smarts="[O:1]([C@@:2]1([H:8])[C:3]([H:9])([H:10])[N:4]([H:11])[C:5]1=[O:6])[H:7]>>[O:1]([C:2]([C:3]([N:4]=[C:5]=[O:6])([H:9])[H:10])([H:8])[H:11])[H:7]"
O        0.34221606       1.53938520      -0.99716641
C        0.18657870       0.61693317       0.02279068
C       -1.12857380      -0.14742501       0.02015133
N       -0.47115176      -1.42863121       0.21179437
C        0.76850451      -1.17539147       0.58526739
O        1.74658729      -1.66319833       1.06557388
H        1.17807329       1.99582809      -0.87496376
H        0.35475478       1.11727654       0.98519061
H       -1.79623583       0.13012655       0.83505731
H       -1.67591930      -0.08255468      -0.92140294
H        0.49516604      -0.90234886      -0.93229248
11
Frame=10 idx=001452 GeodesicLength=1.1469621410698692 rxn_smarts="[O:1]([C@@:2]1([H:8])[C:3]([H:9])([H:10])[N:4]([H:11])[C:5]1=[O:6])[H:7]>>[O:1]([C:2]([C:3]([N:4]=[C:5]=[O:6])([H:9])[H:10])([H:8])[H:11])[H:7]"
O        0.32556124       1.55651032      -0.99312905
C        0.19242155       0.61679895       0.01800488
C       -1.12499831      -0.14687343       0.02282943
N       -0.45411730      -1.42322949       0.19834882
C        0.76838960      -1.19009671       0.61671383
O        1.74463916      -1.68854472       1.08620989
H        1.17287253       1.99634173      -0.88981958
H        0.35484216       1.12121778       0.98019646
H       -1.79479769       0.12828553       0.83596006
H       -1.67104302      -0.08000305      -0.91934960
H        0.48623008      -0.89040692      -0.95596514
11
Frame=11 idx=001452 GeodesicLength=1.2639649196226868 rxn_smarts="[O:1]([C@@:2]1([H:8])[C:3]([H:9])([H:10])[N:4]([H:11])[C:5]1=[O:6])[H:7]>>[O:1]([C:2]([C:3]([N:4]=[C:5]=[O:6])([H:9])[H:10])([H:8])[H:11])[H:7]"
O        0.30894629       1.57382098      -0.98835781
C        0.19886954       0.61654985       0.01297018
C       -1.12083927      -0.14658756       0.02545719
N       -0.43537486      -1.41731979       0.18448175
C        0.76668146      -1.20517793       0.65098300
O        1.74212950      -1.71406028       1.10715491
H        1.16696983       1.99701001      -0.90544440
H        0.35541263       1.12486168       0.97506750
H       -1.79291453       0.12604218       0.83673201
H       -1.66583601      -0.07764963      -0.91718998
H        0.47595543      -0.87748949      -0.98185437
11
Frame=12 idx=001452 GeodesicLength=1.3811956425968523 rxn_smarts="[O:1]([C@@:2]1([H:8])[C:3]([H:9])([H:10])[N:4]([H:11])[C:5]1=[O:6])[H:7]>>[O:1]([C:2]([C:3]([N:4]=[C:5]=[O:6])([H:9])[H:10])([H:8])[H:11])[H:7]"
O        0.29241575       1.59131101      -0.98278790
C        0.20604097       0.61613381       0.00762306
C       -1.11597895      -0.14663885       0.02803408
N       -0.41460478      -1.41083365       0.17007571
C        0.76308618      -1.22078229       0.68823548
O        1.73889637      -1.73948856       1.12868899
H        1.16026862       1.99789138      -0.92184873
H        0.35664469       1.12807647       0.96977553
H       -1.79044922       0.12329001       0.83739537
H       -1.66026672      -0.07552573      -0.91486573
H        0.46394707      -0.86343360      -1.01032587
11
Frame=13 idx=001452 GeodesicLength=1.498407126013328 rxn_smarts="[O:1]([C@@:2]1([H:8])[C:3]([H:9])([H:10])[N:4]([H:11])[C:5]1=[O:6])[H:7]>>[O:1]([C:2]([C:3]([N:4]=[C:5]=[O:6])([H:9])[H:10])([H:8])[H:11])[H:7]"
O        0.27598252       1.60898482      -0.97637341
C        0.21408795       0.61548060       0.00187007
C       -1.11026235      -0.14712694       0.03057796
N       -0.39140211      -1.40371048       0.15493742
C        0.75731551      -1.23715257       0.72847554
O        1.73457831      -1.76439847       1.15132706
H        1.15268486       1.99908612      -0.93901562
H        0.35879700       1.13067875       0.96427354
H       -1.78718101       0.11986359       0.83803920
H       -1.65433381      -0.07365353      -0.91226323
H        0.44973313      -0.84805188      -1.04184853
11
Frame=14 idx=001452 GeodesicLength=1.6152142374425775 rxn_smarts="[O:1]([C@@:2]1([H:8])[C:3]([H:9])([H:10])[N:4]([H:11])[C:5]1=[O:6])[H:7]>>[O:1]([C:2]([C:3]([N:4]=[C:5]=[O:6])([H:9])[H:10])([H:8])[H:11])[H:7]"
O        0.25962609       1.62688601      -0.96902494
C        0.22317336       0.61454541      -0.00443876
C       -1.10349638      -0.14815646       0.03309175
N       -0.36526690      -1.39583454       0.13881669
C        0.74898977      -1.25457631       0.77154306
O        1.72885633      -1.78847719       1.17585628
H        1.14402676       2.00075728      -0.95696822
H        0.36221682       1.13243861       0.95848144
H       -1.78284070       0.11559459       0.83873923
H       -1.64802551      -0.07206375      -0.90924634
H        0.43274037      -0.83111364      -1.07685020
11
Frame=15 idx=001452 GeodesicLength=1.7312720045502232 rxn_smarts="[O:1]([C@@:2]1([H:8])[C:3]([H:9])([H:10])[N:4]([H:11])[C:5]1=[O:6])[H:7]>>[O:1]([C:2]([C:3]([N:4]=[C:5]=[O:6])([H:9])[H:10])([H:8])[H:11])[H:7]"
O        0.24328486       1.64507135      -0.96068379
C        0.23348278       0.61329003      -0.01149663
C       -1.09544452      -0.14986191       0.03559557
N       -0.33560335      -1.38706799       0.12143812
C        0.73771718      -1.27347234       0.81703547
O        1.72123271      -1.81133374       1.20332937
H        1.13407707       2.00316544      -0.97571750
H        0.36734879       1.13308421       0.95229365
H       -1.77708349       0.11027662       0.83962137
H       -1.64135297      -0.07080664      -0.90563392
H        0.41234093      -0.81234503      -1.11578171
11
Frame=16 idx=001452 GeodesicLength=1.8463470557844317 rxn_smarts="[O:1]([C@@:2]1([H:8])[C:3]([H:9])([H:10])[N:4]([H:11])[C:5]1=[O:6])[H:7]>>[O:1]([C:2]([C:3]([N:4]=[C:5]=[O:6])([H:9])[H:10])([H:8])[H:11])[H:7]"
O        0.22683704       1.66363230      -0.95127700
C        0.24521495       0.61173364      -0.01951428
C       -1.08585206      -0.15240018       0.03812284
N       -0.30168739      -1.37719277       0.10254285
C        0.72300226      -1.29433788       0.86433124
O        1.71113954      -1.83264810       1.23495554
H        1.12258996       2.00660461      -0.99535673
H        0.37471896       1.13235109       0.94562885
H       -1.76956466       0.10368505       0.84083965
H       -1.63434987      -0.06998991      -0.90123271
H        0.38795127      -0.79143785      -1.15904025
