13
Frame=0 idx=004580 GeodesicLength=0.0 rxn_smarts="[C:1]([C@@:2]1([H:10])[C:3]([H:11])([H:12])[N:4]1[C:5](=[O:6])[H:13])([H:7])([H:8])[H:9]>>[C:1]([C:2]1=[N+:4]([C-:5]([O:6][H:10])[H:13])[C:3]1([H:11])[H:12])([H:7])([H:8])[H:9]"
C       -1.63204539      -0.42490610       0.32907397
C       -0.26348561      -0.57940663      -0.30332786
C        0.04677810       0.47489962      -1.34895937
N        0.61193563       0.54659503      -0.02401388
C        1.70560063       0.41713705       0.63545764
O        1.81746281      -0.64019610       1.37894199
H       -1.62383839      -0.76162940       1.36822202
H       -2.33982400      -1.06180724      -0.20425239
H       -2.02422962       0.60374821       0.31089306
H        1.09369956      -1.23360549       0.96739824
H        0.74625090       0.26920513      -2.15433087
H       -0.66821643       1.26936180      -1.55616079
H        2.52991183       1.12060411       0.60105825
13
Frame=1 idx=004580 GeodesicLength=0.0936825924669181 rxn_smarts="[C:1]([C@@:2]1([H:10])[C:3]([H:11])([H:12])[N:4]1[C:5](=[O:6])[H:13])([H:7])([H:8])[H:9]>>[C:1]([C:2]1=[N+:4]([C-:5]([O:6][H:10])[H:13])[C:3]1([H:11])[H:12])([H:7])([H:8])[H:9]"
C       -1.63250454      -0.42021878       0.33569931
C       -0.26636365      -0.57661377      -0.29877264
C        0.05140372       0.46581025      -1.35220958
N        0.61286880       0.54707110      -0.02717637
C        1.70978964       0.41692184       0.63203256
O        1.84139584      -0.65560123       1.34839666
H       -1.62323781      -0.75648637       1.37496859
H       -2.34395419      -1.05394143      -0.19647662
H       -2.01999355       0.61001299       0.31769558
H        1.07906533      -1.24499543       0.94022105
H        0.74955696       0.24574327      -2.15479687
H       -0.65812582       1.26300942      -1.56766379
H        2.50009926       1.15928814       0.64808213
13
Frame=2 idx=004580 GeodesicLength=0.18715655598897063 rxn_smarts="[C:1]([C@@:2]1([H:10])[C:3]([H:11])([H:12])[N:4]1[C:5](=[O:6])[H:13])([H:7])([H:8])[H:9]>>[C:1]([C:2]1=[N+:4]([C-:5]([O:6][H:10])[H:13])[C:3]1([H:11])[H:12])([H:7])([H:8])[H:9]"
C       -1.63251927      -0.41544616       0.34241357
C       -0.26896732      -0.57366409      -0.29449529
C        0.05592984       0.45674536      -1.35574302
N        0.61407449       0.54766771      -0.03087010
C        1.71453624       0.41701490       0.62772760
O        1.86528458      -0.66921970       1.31757199
H       -1.62190630      -0.75134653       1.38176332
H       -2.34775171      -1.04593914      -0.18845905
H       -2.01533315       0.61633566       0.32476988
H        1.06471564      -1.25560768       0.91322878
H        0.75247297       0.22234989      -2.15555880
H       -0.64816703       1.25655944      -1.57933192
H        2.46763102       1.19455034       0.69698303
13
Frame=3 idx=004580 GeodesicLength=0.2805562752233671 rxn_smarts="[C:1]([C@@:2]1([H:10])[C:3]([H:11])([H:12])[N:4]1[C:5](=[O:6])[H:13])([H:7])([H:8])[H:9]>>[C:1]([C:2]1=[N+:4]([C-:5]([O:6][H:10])[H:13])[C:3]1([H:11])[H:12])([H:7])([H:8])[H:9]"
C       -1.63213398      -0.41064759       0.34918488
C       -0.27129021      -0.57052122      -0.29045211
C        0.06037711       0.44778324      -1.35948657
N        0.61547794       0.54847385      -0.03496989
C        1.71969001       0.41767362       0.62282928
O        1.88904402      -0.68083898       1.28688576
H       -1.61992870      -0.74629051       1.38857259
H       -2.35119819      -1.03789478      -0.18028599
H       -2.01034858       0.62263957       0.33207608
H        1.05065043      -1.26543898       0.88638370
H        0.75511914       0.19917437      -2.15649411
H       -0.63835999       1.25004996      -1.59112967
H        2.43290101       1.22583745       0.74688605
13
Frame=4 idx=004580 GeodesicLength=0.3739352197937172 rxn_smarts="[C:1]([C@@:2]1([H:10])[C:3]([H:11])([H:12])[N:4]1[C:5](=[O:6])[H:13])([H:7])([H:8])[H:9]>>[C:1]([C:2]1=[N+:4]([C-:5]([O:6][H:10])[H:13])[C:3]1([H:11])[H:12])([H:7])([H:8])[H:9]"
C       -1.63143114      -0.40591180       0.35595935
C       -0.27336026      -0.56716562      -0.28658048
C        0.06477781       0.43901506      -1.36332525
N        0.61695395       0.54957218      -0.03926345
C        1.72498997       0.41916468       0.61780614
O        1.91262125      -0.69024294       1.25665754
H       -1.61747099      -0.74143206       1.39534263
H       -2.35428548      -1.02993600      -0.17210835
H       -2.00517930       0.62881664       0.33955575
H        1.03679550      -1.27450509       0.85977193
H        0.75765366       0.17645821      -2.15744549
H       -0.62869138       1.24350051      -1.60298355
H        2.39662641       1.25266625       0.79661321
13
Frame=5 idx=004580 GeodesicLength=0.4673966636372719 rxn_smarts="[C:1]([C@@:2]1([H:10])[C:3]([H:11])([H:12])[N:4]1[C:5](=[O:6])[H:13])([H:7])([H:8])[H:9]>>[C:1]([C:2]1=[N+:4]([C-:5]([O:6][H:10])[H:13])[C:3]1([H:11])[H:12])([H:7])([H:8])[H:9]"
C       -1.63051235      -0.40127443       0.36268121
C       -0.27519236      -0.56355228      -0.28283838
C        0.06915924       0.43048142      -1.36711156
N        0.61840899       0.55097051      -0.04363581
C        1.73025239       0.42155070       0.61286651
O        1.93606816      -0.69769704       1.22724427
H       -1.61466575      -0.73682832       1.40199366
H       -2.35706402      -1.02210379      -0.16400340
H       -1.99999396       0.63479873       0.34713693
H        1.02304212      -1.28290243       0.83319612
H        0.76020768       0.15411516      -2.15807135
H       -0.61918176       1.23701843      -1.61482607
H        2.35947163       1.27542336       0.84536787
13
Frame=6 idx=004580 GeodesicLength=0.5609696156768541 rxn_smarts="[C:1]([C@@:2]1([H:10])[C:3]([H:11])([H:12])[N:4]1[C:5](=[O:6])[H:13])([H:7])([H:8])[H:9]>>[C:1]([C:2]1=[N+:4]([C-:5]([O:6][H:10])[H:13])[C:3]1([H:11])[H:12])([H:7])([H:8])[H:9]"
C       -1.62944935      -0.39676351       0.36932765
C       -0.27686500      -0.55973784      -0.27917095
C        0.07354973       0.42217298      -1.37081297
N        0.61975907       0.55265725      -0.04793425
C        1.73527656       0.42491014       0.60838690
O        1.95974546      -0.70312133       1.19822250
H       -1.61169171      -0.73250240       1.40852318
H       -2.35957579      -1.01442149      -0.15607968
H       -1.99482960       0.64057722       0.35477421
H        1.00917588      -1.29065832       0.80705877
H        0.76286163       0.13232441      -2.15838467
H       -0.60973964       1.23050975      -1.62664947
H        2.32178277       1.29405314       0.89273878
13
Frame=7 idx=004580 GeodesicLength=0.6547788481724184 rxn_smarts="[C:1]([C@@:2]1([H:10])[C:3]([H:11])([H:12])[N:4]1[C:5](=[O:6])[H:13])([H:7])([H:8])[H:9]>>[C:1]([C:2]1=[N+:4]([C-:5]([O:6][H:10])[H:13])[C:3]1([H:11])[H:12])([H:7])([H:8])[H:9]"
C       -1.62831687      -0.39237693       0.37587560
C       -0.27841457      -0.55573379      -0.27554645
C        0.07797321       0.41406831      -1.37436754
N        0.62095769       0.55460642      -0.05210013
C        1.73995802       0.42918502       0.60446724
O        1.98396570      -0.70668082       1.16936714
H       -1.60867654      -0.72845209       1.41490234
H       -2.36188468      -1.00687122      -0.14838038
H       -1.98975902       0.64615507       0.36242832
H        0.99503063      -1.29782953       0.78147296
H        0.76568714       0.11102184      -2.15824924
H       -0.60032730       1.22397951      -1.63843286
H        2.28380659       1.30892820       0.93856300
13
Frame=8 idx=004580 GeodesicLength=0.7487593302682674 rxn_smarts="[C:1]([C@@:2]1([H:10])[C:3]([H:11])([H:12])[N:4]1[C:5](=[O:6])[H:13])([H:7])([H:8])[H:9]>>[C:1]([C:2]1=[N+:4]([C-:5]([O:6][H:10])[H:13])[C:3]1([H:11])[H:12])([H:7])([H:8])[H:9]"
C       -1.62718004      -0.38812261       0.38230960
C       -0.27989355      -0.55158235      -0.27194375
C        0.08244152       0.40614590      -1.37775367
N        0.62198141       0.55677944      -0.05607584
C        1.74424561       0.43431553       0.60119608
O        2.00889991      -0.70840454       1.14043175
H       -1.60573350      -0.72467920       1.42112536
H       -2.36405802      -0.99945725      -0.14094674
H       -1.98482502       0.65153962       0.37006682
H        0.98047216      -1.30450718       0.75662032
H        0.76870277       0.09021901      -2.15765978
H       -0.59090021       1.21740149      -1.65016536
H        2.24584697       1.32035214       0.98279522
13
Frame=9 idx=004580 GeodesicLength=0.8430379165596209 rxn_smarts="[C:1]([C@@:2]1([H:10])[C:3]([H:11])([H:12])[N:4]1[C:5](=[O:6])[H:13])([H:7])([H:8])[H:9]>>[C:1]([C:2]1=[N+:4]([C-:5]([O:6][H:10])[H:13])[C:3]1([H:11])[H:12])([H:7])([H:8])[H:9]"
C       -1.62608345      -0.38396604       0.38861926
C       -0.28131469      -0.54726708      -0.26836217
C        0.08696000       0.39835102      -1.38092404
N        0.62282615       0.55912268      -0.05986956
C        1.74816115       0.44016514       0.59847129
O        2.03479132      -0.70854883       1.11117597
H       -1.60290582      -0.72113675       1.42716516
H       -2.36614741      -0.99212791      -0.13376070
H       -1.98007539       0.65675999       0.37768291
H        0.96535281      -1.31074495       0.73239945
H        0.77197942       0.06961902      -2.15649700
H       -0.58148177       1.21083687      -1.66180618
H        2.20793768       1.32893682       1.02570561
13
Frame=10 idx=004580 GeodesicLength=0.9373686670709384 rxn_smarts="[C:1]([C@@:2]1([H:10])[C:3]([H:11])([H:12])[N:4]1[C:5](=[O:6])[H:13])([H:7])([H:8])[H:9]>>[C:1]([C:2]1=[N+:4]([C-:5]([O:6][H:10])[H:13])[C:3]1([H:11])[H:12])([H:7])([H:8])[H:9]"
C       -1.62502989      -0.37989442       0.39481960
C       -0.28271740      -0.54285480      -0.26478941
C        0.09153133       0.39065296      -1.38393459
N        0.62350695       0.56160337      -0.06348815
C        1.75170818       0.44670937       0.59630916
O        2.06170586      -0.70683649       1.08137400
H       -1.60023475      -0.71779693       1.43306370
H       -2.36818388      -0.98485840      -0.12682461
H       -1.97545236       0.66185569       0.38526765
H        0.94966629      -1.31661485       0.70907234
H        0.77543477       0.04937334      -2.15490046
H       -0.57198781       1.20417072      -1.67341541
H        2.17005271       1.33449044       1.06744618
13
Frame=11 idx=004580 GeodesicLength=1.0317800585781682 rxn_smarts="[C:1]([C@@:2]1([H:10])[C:3]([H:11])([H:12])[N:4]1[C:5](=[O:6])[H:13])([H:7])([H:8])[H:9]>>[C:1]([C:2]1=[N+:4]([C-:5]([O:6][H:10])[H:13])[C:3]1([H:11])[H:12])([H:7])([H:8])[H:9]"
C       -1.62404859      -0.37589237       0.40090360
C       -0.28411512      -0.53834843      -0.26122065
C        0.09615747       0.38302345      -1.38676236
N        0.62402146       0.56419261      -0.06692853
C        1.75490220       0.45386040       0.59465064
O        2.08975071      -0.70324500       1.05095301
H       -1.59776108      -0.71465271       1.43880451
H       -2.37020549      -0.97761030      -0.12014827
H       -1.97097130       0.66684620       0.39282749
H        0.93335282      -1.32218345       0.68661020
H        0.77908810       0.02937146      -2.15282104
H       -0.56241440       1.19741977      -1.68497130
H        2.13224322       1.33721837       1.10810270
13
Frame=12 idx=004580 GeodesicLength=1.1262276555543742 rxn_smarts="[C:1]([C@@:2]1([H:10])[C:3]([H:11])([H:12])[N:4]1[C:5](=[O:6])[H:13])([H:7])([H:8])[H:9]>>[C:1]([C:2]1=[N+:4]([C-:5]([O:6][H:10])[H:13])[C:3]1([H:11])[H:12])([H:7])([H:8])[H:9]"
C       -1.62317382      -0.37195195       0.40686495
C       -0.28553576      -0.53377975      -0.25764390
C        0.10084661       0.37543179      -1.38939533
N        0.62437052       0.56684905      -0.07017105
C        1.75774407       0.46158005       0.59349502
O        2.11903611      -0.69769010       1.01974815
H       -1.59554835      -0.71169276       1.44438162
H       -2.37225844      -0.97036030      -0.11374650
H       -1.96664053       0.67174975       0.40034981
H        0.91633980      -1.32752183       0.66508729
H        0.78294088       0.00959204      -2.15025916
H       -0.55272545       1.19055674      -1.69646167
H        2.09460436       1.33723727       1.14775078
13
Frame=13 idx=004580 GeodesicLength=1.2208029849484185 rxn_smarts="[C:1]([C@@:2]1([H:10])[C:3]([H:11])([H:12])[N:4]1[C:5](=[O:6])[H:13])([H:7])([H:8])[H:9]>>[C:1]([C:2]1=[N+:4]([C-:5]([O:6][H:10])[H:13])[C:3]1([H:11])[H:12])([H:7])([H:8])[H:9]"
C       -1.62242604      -0.36803940       0.41270589
C       -0.28699636      -0.52914546      -0.25404675
C        0.10560257       0.36782939      -1.39182560
N        0.62455014       0.56953373      -0.07320888
C        1.76024463       0.46981037       0.59280324
O        2.14976956      -0.69015563       0.98745791
H       -1.59362592      -0.70885729       1.44981095
H       -2.37436257      -0.96307134      -0.10760597
H       -1.96247188       0.67659944       0.40781780
H        0.89852064      -1.33268933       0.64449150
H        0.78704178      -0.01014172      -2.14719554
H       -0.54291986       1.18358561      -1.70789009
H        2.05707331       1.33474164       1.18668553
13
Frame=14 idx=004580 GeodesicLength=1.3153547679804065 rxn_smarts="[C:1]([C@@:2]1([H:10])[C:3]([H:11])([H:12])[N:4]1[C:5](=[O:6])[H:13])([H:7])([H:8])[H:9]>>[C:1]([C:2]1=[N+:4]([C-:5]([O:6][H:10])[H:13])[C:3]1([H:11])[H:12])([H:7])([H:8])[H:9]"
C       -1.62182054      -0.36414450       0.41842718
C       -0.28851545      -0.52448331      -0.25042277
C        0.11042897       0.36019349      -1.39405601
N        0.62457306       0.57221845      -0.07605176
C        1.76241448       0.47853345       0.59254911
O        2.18193999      -0.68031320       0.95413343
H       -1.59203139      -0.70614542       1.45508519
H       -2.37655957      -0.95570617      -0.10173353
H       -1.95844038       0.68142061       0.41523686
H        0.87991899      -1.33777289       0.62485459
H        0.79133456      -0.02976110      -2.14363627
H       -0.53294475       1.17644580      -1.71926546
H        2.01970204       1.32951478       1.22487943
13
Frame=15 idx=004580 GeodesicLength=1.4098656224940895 rxn_smarts="[C:1]([C@@:2]1([H:10])[C:3]([H:11])([H:12])[N:4]1[C:5](=[O:6])[H:13])([H:7])([H:8])[H:9]>>[C:1]([C:2]1=[N+:4]([C-:5]([O:6][H:10])[H:13])[C:3]1([H:11])[H:12])([H:7])([H:8])[H:9]"
C       -1.62137452      -0.36023673       0.42403196
C       -0.29010863      -0.51980314      -0.24675989
C        0.11533271       0.35248007      -1.39608024
N        0.62444150       0.57486919      -0.07869739
C        1.76425763       0.48772008       0.59271498
O        2.21568981      -0.66798636       0.91959176
H       -1.59079556      -0.70351586       1.46021402
H       -2.37887817      -0.94821657      -0.09612319
H       -1.95453871       0.68625022       0.42260269
H        0.86047869      -1.34284453       0.60616401
H        0.79584214      -0.04936861      -2.13956139
H       -0.52277878       1.16911727      -1.73059367
H        1.98243190       1.32153498       1.26249634
13
Frame=16 idx=004580 GeodesicLength=1.5042818761435612 rxn_smarts="[C:1]([C@@:2]1([H:10])[C:3]([H:11])([H:12])[N:4]1[C:5](=[O:6])[H:13])([H:7])([H:8])[H:9]>>[C:1]([C:2]1=[N+:4]([C-:5]([O:6][H:10])[H:13])[C:3]1([H:11])[H:12])([H:7])([H:8])[H:9]"
C       -1.62111387      -0.35629326       0.42951951
C       -0.29179658      -0.51512547      -0.24303991
C        0.12032497       0.34464594      -1.39788318
N        0.62415720       0.57744578      -0.08113244
C        1.76576820       0.49735310       0.59330092
O        2.25113626      -0.65293012       0.88366742
H       -1.58997206      -0.70093693       1.46519777
H       -2.38135482      -0.94055891      -0.09077817
H       -1.95076350       0.69111671       0.42990414
H        0.84013718      -1.34798161       0.58842934
H        0.80058151      -0.06902033      -2.13494597
H       -0.51238432       1.16156195      -1.74187112
H        1.94527984       1.31072313       1.29963167
