17
Frame=0 idx=008610 GeodesicLength=0.0 rxn_smarts="[C:1]([C@@:2]1([H:11])[C:3]([H:12])([H:13])[C@@:4]2([O:5][H:14])[C:6]([H:15])([H:16])[C@@:7]12[H:17])([H:8])([H:9])[H:10]>>[C:1](=[C:2]([C:7]([C:6]([C:4](=[C:3]([H:12])[H:13])[O:5][H:14])([H:15])[H:16])([H:10])[H:17])[H:11])([H:8])[H:9]"
C        2.10004484       0.38916533      -0.15987992
C        0.91292843      -0.50832571      -0.09776258
C       -0.01550172      -0.65870214       1.20833195
C       -1.24545806      -0.24847740       0.52856792
O       -2.21903447      -1.14784972       0.36479360
C       -1.10982939       0.96225816      -0.27028510
C       -0.00296970       0.24733803      -1.07480488
H        3.10080712      -0.01127294       0.01837945
H        1.95742585       1.33136067       0.37451364
H        1.16938563       0.84765202      -1.31608430
H        1.13186470      -1.51610163      -0.44982426
H        0.29270512       0.04215985       1.98050935
H       -0.07082760      -1.66580273       1.61606606
H       -2.90330979      -0.79529146      -0.21209245
H       -1.98382954       1.23089965      -0.86291061
H       -0.74175448       1.83341023       0.27453607
H       -0.37264692      -0.33242019      -1.92205392
17
Frame=1 idx=008610 GeodesicLength=0.09476419794180194 rxn_smarts="[C:1]([C@@:2]1([H:11])[C:3]([H:12])([H:13])[C@@:4]2([O:5][H:14])[C:6]([H:15])([H:16])[C@@:7]12[H:17])([H:8])([H:9])[H:10]>>[C:1](=[C:2]([C:7]([C:6]([C:4](=[C:3]([H:12])[H:13])[O:5][H:14])([H:15])[H:16])([H:10])[H:17])[H:11])([H:8])[H:9]"
C        2.10688971       0.39474664      -0.17176134
C        0.92485735      -0.50195038      -0.09906147
C       -0.02874374      -0.66292152       1.22272192
C       -1.24599640      -0.25759432       0.52287711
O       -2.22061365      -1.15655485       0.34550695
C       -1.10709166       0.96160973      -0.26588129
C       -0.00728473       0.24020448      -1.07052783
H        3.10591803      -0.00869840       0.00759797
H        1.97080149       1.34066339       0.35729835
H        1.17291796       0.85480187      -1.32749284
H        1.14203981      -1.51215371      -0.44512105
H        0.27348534       0.03982525       1.99563864
H       -0.08481546      -1.66952678       1.63140510
H       -2.91304443      -0.78767311      -0.21069999
H       -1.97938163       1.23571923      -0.85817236
H       -0.73508367       1.82635834       0.28585737
H       -0.37485432      -0.33685587      -1.92018524
17
Frame=2 idx=008610 GeodesicLength=0.18950530403761026 rxn_smarts="[C:1]([C@@:2]1([H:11])[C:3]([H:12])([H:13])[C@@:4]2([O:5][H:14])[C:6]([H:15])([H:16])[C@@:7]12[H:17])([H:8])([H:9])[H:10]>>[C:1](=[C:2]([C:7]([C:6]([C:4](=[C:3]([H:12])[H:13])[O:5][H:14])([H:15])[H:16])([H:10])[H:17])[H:11])([H:8])[H:9]"
C        2.11385968       0.40043609      -0.18398847
C        0.93691144      -0.49533445      -0.10053104
C       -0.04254970      -0.66737657       1.23733318
C       -1.24643962      -0.26667008       0.51727707
O       -2.22227728      -1.16484375       0.32629983
C       -1.10420467       0.96089317      -0.26135465
C       -0.01149220       0.23301372      -1.06612427
H        3.11113417      -0.00594493      -0.00331559
H        1.98434768       1.35014191       0.33947273
H        1.17655154       0.86212651      -1.33918543
H        1.15229743      -1.50806560      -0.44017048
H        0.25374657       0.03716985       2.01099001
H       -0.09959233      -1.67354008       1.64678666
H       -2.92231905      -0.78045598      -0.20913612
H       -1.97475905       1.24046311      -0.85329890
H       -0.72828127       1.81917022       0.29723906
H       -0.37693334      -0.34118312      -1.91829358
17
Frame=3 idx=008610 GeodesicLength=0.2842340564750184 rxn_smarts="[C:1]([C@@:2]1([H:11])[C:3]([H:12])([H:13])[C@@:4]2([O:5][H:14])[C:6]([H:15])([H:16])[C@@:7]12[H:17])([H:8])([H:9])[H:10]>>[C:1](=[C:2]([C:7]([C:6]([C:4](=[C:3]([H:12])[H:13])[O:5][H:14])([H:15])[H:16])([H:10])[H:17])[H:11])([H:8])[H:9]"
C        2.12096074       0.40624620      -0.19657900
C        0.94910684      -0.48847074      -0.10218142
C       -0.05694635      -0.67208071       1.25217402
C       -1.24678429      -0.27572411       0.51176467
O       -2.22402691      -1.17272925       0.30716737
C       -1.10115639       0.96009524      -0.25669826
C       -0.01558301       0.22575380      -1.06159039
H        3.11646591      -0.00298369      -0.01437387
H        1.99806199       1.35980584       0.32101037
H        1.18028999       0.86963024      -1.35117960
H        1.16266182      -1.50383122      -0.43494477
H        0.23346716       0.03418699       2.02656491
H       -0.11518183      -1.67785577       1.66221987
H       -2.93118036      -0.77359006      -0.20739128
H       -1.96994472       1.24513117      -0.84828418
H       -0.72133574       1.81182701       0.30869608
H       -0.37887486      -0.34541093      -1.91637452
17
Frame=4 idx=008610 GeodesicLength=0.3789571574874599 rxn_smarts="[C:1]([C@@:2]1([H:11])[C:3]([H:12])([H:13])[C@@:4]2([O:5][H:14])[C:6]([H:15])([H:16])[C@@:7]12[H:17])([H:8])([H:9])[H:10]>>[C:1](=[C:2]([C:7]([C:6]([C:4](=[C:3]([H:12])[H:13])[O:5][H:14])([H:15])[H:16])([H:10])[H:17])[H:11])([H:8])[H:9]"
C        2.12818713       0.41216750      -0.20957620
C        0.96143715      -0.48135369      -0.10401896
C       -0.07195912      -0.67702369       1.26728135
C       -1.24703519      -0.28474605       0.50638622
O       -2.22588244      -1.18018636       0.28818967
C       -1.09793895       0.95922936      -0.25186156
C       -0.01958102       0.21841870      -1.05689996
H        3.12191161       0.00017615      -0.02563552
H        2.01195682       1.36964628       0.30185877
H        1.18410715       0.87730558      -1.36350018
H        1.17311160      -1.49945014      -0.42940528
H        0.21265092       0.03089553       2.04238234
H       -0.13160807      -1.68245873       1.67775279
H       -2.93947926      -0.76717619      -0.20577502
H       -1.96493315       1.24976158      -0.84306149
H       -0.71421548       1.80433368       0.32027488
H       -0.38072970      -0.34953950      -1.91439184
17
Frame=5 idx=008610 GeodesicLength=0.473685152717746 rxn_smarts="[C:1]([C@@:2]1([H:11])[C:3]([H:12])([H:13])[C@@:4]2([O:5][H:14])[C:6]([H:15])([H:16])[C@@:7]12[H:17])([H:8])([H:9])[H:10]>>[C:1](=[C:2]([C:7]([C:6]([C:4](=[C:3]([H:12])[H:13])[O:5][H:14])([H:15])[H:16])([H:10])[H:17])[H:11])([H:8])[H:9]"
C        2.13555165       0.41822433      -0.22298786
C        0.97393252      -0.47397391      -0.10605890
C       -0.08762157      -0.68222916       1.28265036
C       -1.24718379      -0.29377488       0.50111209
O       -2.22783177      -1.18725146       0.26931180
C       -1.09453779       0.95826493      -0.24685972
C       -0.02345740       0.21099218      -1.05205944
H        3.12749023       0.00358334      -0.03709482
H        2.02602301       1.37967938       0.28200578
H        1.18802058       0.88516735      -1.37616019
H        1.18369912      -1.49490995      -0.42352420
H        0.19126161       0.02727513       2.05843481
H       -0.14889953      -1.68737479       1.69337437
H       -2.94737324      -0.76107608      -0.20410322
H       -1.95969943       1.25432968      -0.83765711
H       -0.70692067       1.79665491       0.33197475
H       -0.38245352      -0.35358099      -1.91235851
17
Frame=6 idx=008610 GeodesicLength=0.5684297749821529 rxn_smarts="[C:1]([C@@:2]1([H:11])[C:3]([H:12])([H:13])[C@@:4]2([O:5][H:14])[C:6]([H:15])([H:16])[C@@:7]12[H:17])([H:8])([H:9])[H:10]>>[C:1](=[C:2]([C:7]([C:6]([C:4](=[C:3]([H:12])[H:13])[O:5][H:14])([H:15])[H:16])([H:10])[H:17])[H:11])([H:8])[H:9]"
C        2.14305674       0.42442192      -0.23684419
C        0.98660381      -0.46632349      -0.10831568
C       -0.10396635      -0.68770377       1.29829917
C       -1.24722735      -0.30282258       0.49595732
O       -2.22988019      -1.19392736       0.25055304
C       -1.09094013       0.95719444      -0.24166829
C       -0.02721209       0.20346260      -1.04705544
H        3.13321004       0.00725576      -0.04878976
H        2.04026231       1.38990633       0.26141513
H        1.19202325       0.89321949      -1.38918162
H        1.19443693      -1.49020223      -0.41726364
H        0.16927790       0.02332890       2.07473146
H       -0.16709195      -1.69260614       1.70910965
H       -2.95483901      -0.75528575      -0.20247032
H       -1.95422705       1.25884521      -0.83204140
H       -0.69943108       1.78877617       0.34382385
H       -0.38405578      -0.35753950      -1.91025929
17
Frame=7 idx=008610 GeodesicLength=0.6631960507466109 rxn_smarts="[C:1]([C@@:2]1([H:11])[C:3]([H:12])([H:13])[C@@:4]2([O:5][H:14])[C:6]([H:15])([H:16])[C@@:7]12[H:17])([H:8])([H:9])[H:10]>>[C:1](=[C:2]([C:7]([C:6]([C:4](=[C:3]([H:12])[H:13])[O:5][H:14])([H:15])[H:16])([H:10])[H:17])[H:11])([H:8])[H:9]"
C        2.15070688       0.43076832      -0.25117232
C        0.99946643      -0.45839363      -0.11080395
C       -0.12103361      -0.69345470       1.31424279
C       -1.24716067      -0.31190855       0.49092677
O       -2.23202651      -1.20022112       0.23191573
C       -1.08713237       0.95600453      -0.23627133
C       -0.03083612       0.19581801      -1.04187781
H        3.13908233       0.01121658      -0.06075327
H        2.05467458       1.40032836       0.24005619
H        1.19610979       0.90146876      -1.40258239
H        1.20534570      -1.48531612      -0.41058500
H        0.14667356       0.01905535       2.09127686
H       -0.18621708      -1.69815994       1.72497394
H       -2.96189231      -0.74977409      -0.20090865
H       -1.94849671       1.26330945      -0.82619715
H       -0.69173272       1.78067717       0.35584441
H       -0.38553117      -0.36141839      -1.90808485
17
Frame=8 idx=008610 GeodesicLength=0.7579833478483153 rxn_smarts="[C:1]([C@@:2]1([H:11])[C:3]([H:12])([H:13])[C@@:4]2([O:5][H:14])[C:6]([H:15])([H:16])[C@@:7]12[H:17])([H:8])([H:9])[H:10]>>[C:1](=[C:2]([C:7]([C:6]([C:4](=[C:3]([H:12])[H:13])[O:5][H:14])([H:15])[H:16])([H:10])[H:17])[H:11])([H:8])[H:9]"
C        2.15850857       0.43727610      -0.26599977
C        1.01253848      -0.45017415      -0.11353911
C       -0.13886210      -0.69949589       1.33049094
C       -1.24697821      -0.32105509       0.48602085
O       -2.23426890      -1.20614564       0.21338621
C       -1.08309936       0.95467764      -0.23065682
C       -0.03431640       0.18804444      -1.03651726
H        3.14512058       0.01549454      -0.07301814
H        2.06925901       1.41095075       0.21789885
H        1.20027778       0.90992489      -1.41638276
H        1.21645684      -1.48023675      -0.40344499
H        0.12341739       0.01444904       2.10807504
H       -0.20632016      -1.70404650       1.74098019
H       -2.96856866      -0.74449058      -0.19940967
H       -1.94248617       1.26771802      -0.82011329
H       -0.68381125       1.77233281       0.36805752
H       -0.38686745      -0.36522363      -1.90582777
17
Frame=9 idx=008610 GeodesicLength=0.8527905237730242 rxn_smarts="[C:1]([C@@:2]1([H:11])[C:3]([H:12])([H:13])[C@@:4]2([O:5][H:14])[C:6]([H:15])([H:16])[C@@:7]12[H:17])([H:8])([H:9])[H:10]>>[C:1](=[C:2]([C:7]([C:6]([C:4](=[C:3]([H:12])[H:13])[O:5][H:14])([H:15])[H:16])([H:10])[H:17])[H:11])([H:8])[H:9]"
C        2.16643400       0.44390268      -0.28141385
C        1.02578483      -0.44166622      -0.11653351
C       -0.15749094      -0.70578454       1.34712402
C       -1.24669344      -0.33021470       0.48136043
O       -2.23666036      -1.21160398       0.19515935
C       -1.07883447       0.95325868      -0.22470618
C       -0.03771474       0.18014740      -1.03090875
H        3.15130322       0.02002884      -0.08572477
H        2.08403380       1.42172917       0.19485381
H        1.20445143       0.91856923      -1.43061391
H        1.22769410      -1.47496251      -0.39578635
H        0.09953153       0.00956337       2.12517205
H       -0.22743449      -1.71021396       1.75722887
H       -2.97441180      -0.73975579      -0.19872961
H       -1.93619968       1.27215563      -0.81363068
H       -0.67560222       1.76377349       0.38055830
H       -0.38819076      -0.36892680      -1.90340923
17
Frame=10 idx=008610 GeodesicLength=0.9476242054897983 rxn_smarts="[C:1]([C@@:2]1([H:11])[C:3]([H:12])([H:13])[C@@:4]2([O:5][H:14])[C:6]([H:15])([H:16])[C@@:7]12[H:17])([H:8])([H:9])[H:10]>>[C:1](=[C:2]([C:7]([C:6]([C:4](=[C:3]([H:12])[H:13])[O:5][H:14])([H:15])[H:16])([H:10])[H:17])[H:11])([H:8])[H:9]"
C        2.17452398       0.45071598      -0.29738550
C        1.03928455      -0.43284820      -0.11981416
C       -0.17697854      -0.71238541       1.36408224
C       -1.24627551      -0.33949183       0.47682200
O       -2.23912697      -1.21673426       0.17700893
C       -1.07431104       0.95165765      -0.21851304
C       -0.04093467       0.17208902      -1.02509855
H        3.15768372       0.02493996      -0.09881131
H        2.09897431       1.43271391       0.17095476
H        1.20870066       0.92744647      -1.44528279
H        1.23920556      -1.46945641      -0.38757056
H        0.07491892       0.00433458       2.14252777
H       -0.24961660      -1.71673183       1.77364454
H       -2.97998254      -0.73511253      -0.19807288
H       -1.92958200       1.27651908      -0.80688724
H       -0.66714381       1.75490884       0.39329286
H       -0.38934001      -0.37256503      -1.90089707
17
Frame=11 idx=008610 GeodesicLength=1.0424832300055595 rxn_smarts="[C:1]([C@@:2]1([H:11])[C:3]([H:12])([H:13])[C@@:4]2([O:5][H:14])[C:6]([H:15])([H:16])[C@@:7]12[H:17])([H:8])([H:9])[H:10]>>[C:1](=[C:2]([C:7]([C:6]([C:4](=[C:3]([H:12])[H:13])[O:5][H:14])([H:15])[H:16])([H:10])[H:17])[H:11])([H:8])[H:9]"
C        2.18278135       0.45772066      -0.31395518
C        1.05305255      -0.42371015      -0.12340117
C       -0.19738026      -0.71930404       1.38138292
C       -1.24571585      -0.34890284       0.47242176
O       -2.24166762      -1.22153191       0.15893807
C       -1.06951165       0.94986177      -0.21205016
C       -0.04396661       0.16385708      -1.01906893
H        3.16427423       0.03024263      -0.11234067
H        2.11408210       1.44390234       0.14616509
H        1.21301043       0.93656750      -1.46041242
H        1.25101252      -1.46369584      -0.37874005
H        0.04954315      -0.00123582       2.16015213
H       -0.27292748      -1.72360067       1.79024961
H       -2.98524917      -0.73056320      -0.19750749
H       -1.92260977       1.28081080      -0.79985149
H       -0.65841357       1.74571663       0.40629380
H       -0.39031436      -0.37613493      -1.89827582
17
Frame=12 idx=008610 GeodesicLength=1.137358391172975 rxn_smarts="[C:1]([C@@:2]1([H:11])[C:3]([H:12])([H:13])[C@@:4]2([O:5][H:14])[C:6]([H:15])([H:16])[C@@:7]12[H:17])([H:8])([H:9])[H:10]>>[C:1](=[C:2]([C:7]([C:6]([C:4](=[C:3]([H:12])[H:13])[O:5][H:14])([H:15])[H:16])([H:10])[H:17])[H:11])([H:8])[H:9]"
C        2.19120730       0.46491934      -0.33116622
C        1.06710315      -0.41424126      -0.12731542
C       -0.21875615      -0.72654020       1.39904664
C       -1.24500768      -0.35846490       0.46817845
O       -2.24427788      -1.22599415       0.14095695
C       -1.06441909       0.94785727      -0.20528692
C       -0.04680135       0.15543861      -1.01279888
H        3.17108647       0.03595096      -0.12638510
H        2.12936063       1.45528354       0.12044796
H        1.21736112       0.94594405      -1.47601984
H        1.26313725      -1.45765472      -0.36923337
H        0.02336750      -0.00714317       2.17805406
H       -0.29742218      -1.73081933       1.80706392
H       -2.99017536      -0.72610926      -0.19712487
H       -1.91525933       1.28503420      -0.79248794
H       -0.64938976       1.73617348       0.41959615
H       -0.39111464      -0.37963447      -1.89552557
17
Frame=13 idx=008610 GeodesicLength=1.232247394904595 rxn_smarts="[C:1]([C@@:2]1([H:11])[C:3]([H:12])([H:13])[C@@:4]2([O:5][H:14])[C:6]([H:15])([H:16])[C@@:7]12[H:17])([H:8])([H:9])[H:10]>>[C:1](=[C:2]([C:7]([C:6]([C:4](=[C:3]([H:12])[H:13])[O:5][H:14])([H:15])[H:16])([H:10])[H:17])[H:11])([H:8])[H:9]"
C        2.19980785       0.47232323      -0.34906032
C        1.08145869      -0.40442919      -0.13158037
C       -0.24117233      -0.73410216       1.41708409
C       -1.24413959      -0.36820626       0.46409821
O       -2.24694822      -1.23012869       0.12304709
C       -1.05901277       0.94561968      -0.19820201
C       -0.04941926       0.14681434      -1.00627232
H        3.17813757       0.04208854      -0.14101493
H        2.14481187       1.46685774       0.09377236
H        1.22174069       0.95559707      -1.49212714
H        1.27561930      -1.45130004      -0.35898296
H       -0.00365182      -0.01339238       2.19624049
H       -0.32317964      -1.73838952       1.82410315
H       -2.99477622      -0.72171298      -0.19692476
H       -1.90750021       1.28917929      -0.78477519
H       -0.64005125       1.72624463       0.43322964
H       -0.39172466      -0.38306330      -1.89263503
17
Frame=14 idx=008610 GeodesicLength=1.3271481714187232 rxn_smarts="[C:1]([C@@:2]1([H:11])[C:3]([H:12])([H:13])[C@@:4]2([O:5][H:14])[C:6]([H:15])([H:16])[C@@:7]12[H:17])([H:8])([H:9])[H:10]>>[C:1](=[C:2]([C:7]([C:6]([C:4](=[C:3]([H:12])[H:13])[O:5][H:14])([H:15])[H:16])([H:10])[H:17])[H:11])([H:8])[H:9]"
C        2.20858555       0.47993986      -0.36768738
C        1.09614024      -0.39426405      -0.13622293
C       -0.26470763      -0.74199727       1.43550923
C       -1.24309729      -0.37815235       0.46019780
O       -2.24966894      -1.23393562       0.10520228
C       -1.05326856       0.94312679      -0.19076579
C       -0.05180062       0.13796638      -0.99946746
H        3.18544329       0.04867300      -0.15631408
H        2.16043339       1.47862358       0.06609907
H        1.22612672       0.96554208      -1.50875853
H        1.28849836      -1.44459169      -0.34790980
H       -0.03157546      -0.01998236       2.21471945
H       -0.35027239      -1.74631675       1.84138255
H       -2.99903285      -0.71734988      -0.19694898
H       -1.89929886       1.29324102      -0.77668034
H       -0.63037084       1.71589565       0.44723173
H       -0.39213412      -0.38641839      -1.88958679
17
Frame=15 idx=008610 GeodesicLength=1.4220534516794938 rxn_smarts="[C:1]([C@@:2]1([H:11])[C:3]([H:12])([H:13])[C@@:4]2([O:5][H:14])[C:6]([H:15])([H:16])[C@@:7]12[H:17])([H:8])([H:9])[H:10]>>[C:1](=[C:2]([C:7]([C:6]([C:4](=[C:3]([H:12])[H:13])[O:5][H:14])([H:15])[H:16])([H:10])[H:17])[H:11])([H:8])[H:9]"
C        2.21754200       0.48777663      -0.38710072
C        1.11116966      -0.38373393      -0.14127114
C       -0.28944734      -0.75022852       1.45433529
C       -1.24186628      -0.38833197       0.45649401
O       -2.25242658      -1.23741683       0.08741470
C       -1.04716212       0.94035323      -0.18294674
C       -0.05392389       0.12887491      -0.99236009
H        3.19301975       0.05572063      -0.17237688
H        2.17622544       1.49057460       0.03739056
H        1.23049338       0.97579901      -1.52593525
H        1.30181725      -1.43748132      -0.33592781
H       -0.06045997      -0.02691521       2.23349832
H       -0.37878220      -1.75460099       1.85891717
H       -3.00292842      -0.71299535      -0.19724114
H       -1.89062053       1.29721137      -0.76816943
H       -0.62031997       1.70508919       0.46164061
H       -0.39233019      -0.38969546      -1.88636146
17
Frame=16 idx=008610 GeodesicLength=1.5169490628598907 rxn_smarts="[C:1]([C@@:2]1([H:11])[C:3]([H:12])([H:13])[C@@:4]2([O:5][H:14])[C:6]([H:15])([H:16])[C@@:7]12[H:17])([H:8])([H:9])[H:10]>>[C:1](=[C:2]([C:7]([C:6]([C:4](=[C:3]([H:12])[H:13])[O:5][H:14])([H:15])[H:16])([H:10])[H:17])[H:11])([H:8])[H:9]"
C        2.22667906       0.49584136      -0.40735677
C        1.12657195      -0.37282748      -0.14675377
C       -0.31548116      -0.75880146       1.47357052
C       -1.24043004      -0.39877840       0.45300275
O       -2.25520635      -1.24057324       0.06967130
C       -1.04066598       0.93726934      -0.17471190
C       -0.05576265       0.11951678      -0.98492484
H        3.20088494       0.06324613      -0.18930835
H        2.19218688       1.50271038       0.00760645
H        1.23481143       0.98638994      -1.54367933
H        1.31562707      -1.42991057      -0.32293948
H       -0.09037357      -0.03419257       2.25258476
H       -0.40880140      -1.76324312       1.87671794
H       -3.00645157      -0.70861685      -0.19783000
H       -1.88142546       1.30107912      -0.75920714
H       -0.60986785       1.69378131       0.47649814
H       -0.39229533      -0.39289067      -1.88294029
