17
Frame=0 idx=010932 GeodesicLength=0.0 rxn_smarts="[O:1]([C:2]([C@@:3]1([H:11])[C:4]([H:12])([H:13])[C:5]([H:14])([H:15])[C:6]([H:16])([H:17])[O:7]1)([H:9])[H:10])[H:8]>>[O:1]([C:2]([C:3]1([O:7][C:6]([H:11])([H:16])[H:17])[C:4]([H:12])([H:13])[C:5]1([H:14])[H:15])([H:9])[H:10])[H:8]"
O        2.75488880      -0.13074347      -0.72975390
C        1.77832159      -0.86464850      -0.02579636
C        0.42543798      -0.21732354      -0.12098665
C       -0.82977856      -1.00521293       0.31610484
C       -1.96757152      -0.11534801       0.43324901
C       -0.59193257       1.57084242      -0.41917361
O        0.43274908       1.06558544       0.40666355
H        2.70702633       0.77716988      -0.42004719
H        2.06709337      -0.98142902       1.03184306
H        1.73737487      -1.86038873      -0.47065112
H       -0.56606350       0.50225450      -1.09166765
H       -0.56945274      -1.38167153       1.31572407
H       -0.97250075      -1.85788474      -0.34694125
H       -2.05012820       0.49775154       1.32087615
H       -2.89981650      -0.34637101      -0.06860486
H       -1.31508584       2.19670349       0.09876330
H       -0.14056187       2.15071426      -1.22960136
17
Frame=1 idx=010932 GeodesicLength=0.10225682492519728 rxn_smarts="[O:1]([C:2]([C@@:3]1([H:11])[C:4]([H:12])([H:13])[C:5]([H:14])([H:15])[C:6]([H:16])([H:17])[O:7]1)([H:9])[H:10])[H:8]>>[O:1]([C:2]([C:3]1([O:7][C:6]([H:11])([H:16])[H:17])[C:4]([H:12])([H:13])[C:5]1([H:14])[H:15])([H:9])[H:10])[H:8]"
O        2.74717156      -0.14481694      -0.72757222
C        1.77381278      -0.85799502       0.00161363
C        0.41757274      -0.21996011      -0.11363827
C       -0.83006329      -1.02364920       0.29595911
C       -1.93919485      -0.10207039       0.45278519
C       -0.60578332       1.57017578      -0.43258951
O        0.43157503       1.07624923       0.38273267
H        2.69723069       0.77238475      -0.44679064
H        2.06334610      -0.93834209       1.06230711
H        1.74462134      -1.86961947      -0.40688028
H       -0.54590516       0.48895589      -1.12309933
H       -0.57605917      -1.44533444       1.27816897
H       -0.99639049      -1.84044057      -0.40485350
H       -2.01759168       0.46606557       1.37029765
H       -2.87856434      -0.29737631      -0.05132979
H       -1.31571020       2.19880774       0.10189779
H       -0.17006775       2.16696557      -1.23900859
17
Frame=2 idx=010932 GeodesicLength=0.20462871804359228 rxn_smarts="[O:1]([C:2]([C@@:3]1([H:11])[C:4]([H:12])([H:13])[C:5]([H:14])([H:15])[C:6]([H:16])([H:17])[O:7]1)([H:9])[H:10])[H:8]>>[O:1]([C:2]([C:3]1([O:7][C:6]([H:11])([H:16])[H:17])[C:4]([H:12])([H:13])[C:5]1([H:14])[H:15])([H:9])[H:10])[H:8]"
O        2.74022725      -0.16051483      -0.72352753
C        1.76850338      -0.85116288       0.02911752
C        0.40960977      -0.22179125      -0.10711918
C       -0.83023462      -1.04107762       0.27476092
C       -1.90942148      -0.08986558       0.47262326
C       -0.62028638       1.56983136      -0.44587469
O        0.43113637       1.08736156       0.35687381
H        2.68883462       0.76509230      -0.47198051
H        2.05731990      -0.89541083       1.09203778
H        1.75035465      -1.87714949      -0.34260514
H       -0.52497473       0.47630141      -1.15455664
H       -0.58287896      -1.50665655       1.23781091
H       -1.01979853      -1.82035679      -0.46124942
H       -1.98386078       0.43239370       1.41746425
H       -2.85597006      -0.25084696      -0.03071158
H       -1.31628840       2.20071268       0.10593492
H       -0.20227202       2.18313978      -1.24899868
17
Frame=3 idx=010932 GeodesicLength=0.30715436823127246 rxn_smarts="[O:1]([C:2]([C@@:3]1([H:11])[C:4]([H:12])([H:13])[C:5]([H:14])([H:15])[C:6]([H:16])([H:17])[O:7]1)([H:9])[H:10])[H:8]>>[O:1]([C:2]([C:3]1([O:7][C:6]([H:11])([H:16])[H:17])[C:4]([H:12])([H:13])[C:5]1([H:14])[H:15])([H:9])[H:10])[H:8]"
O        2.73404417      -0.17771731      -0.71764042
C        1.76240295      -0.84415324       0.05664520
C        0.40158824      -0.22289241      -0.10162892
C       -0.83029878      -1.05739011       0.25258495
C       -1.87829244      -0.07872241       0.49267259
C       -0.63541325       1.56972908      -0.45893447
O        0.43138823       1.09873027       0.32904490
H        2.68181508       0.75540168      -0.49562988
H        2.04908052      -0.85260944       1.12097607
H        1.75450722      -1.88301772      -0.27789182
H       -0.50328146       0.46433267      -1.18612557
H       -0.58979340      -1.56525738       1.19490774
H       -1.04287787      -1.79787505      -0.51581391
H       -1.94900322       0.39681920       1.46232386
H       -2.83206197      -0.20686501      -0.00709397
H       -1.31668636       2.20234169       0.11095905
H       -0.23711768       2.19914552      -1.25935538
17
Frame=4 idx=010932 GeodesicLength=0.4098577929714252 rxn_smarts="[O:1]([C:2]([C@@:3]1([H:11])[C:4]([H:12])([H:13])[C:5]([H:14])([H:15])[C:6]([H:16])([H:17])[O:7]1)([H:9])[H:10])[H:8]>>[O:1]([C:2]([C:3]1([O:7][C:6]([H:11])([H:16])[H:17])[C:4]([H:12])([H:13])[C:5]1([H:14])[H:15])([H:9])[H:10])[H:8]"
O        2.72860178      -0.19629197      -0.70992140
C        1.75553684      -0.83695451       0.08412408
C        0.39356081      -0.22335481      -0.09738737
C       -0.83026635      -1.07249366       0.22952804
C       -1.84584495      -0.06862306       0.51283605
C       -0.65111515       1.56978879      -0.47167251
O        0.43226881       1.11015139       0.29923851
H        2.67612014       0.74344233      -0.51776646
H        2.03869788      -0.80987217       1.14903859
H        1.75701496      -1.88724628      -0.21279399
H       -0.48085871       0.45308417      -1.21789033
H       -0.59668660      -1.62083593       1.14974650
H       -1.06581587      -1.77324692      -0.56825439
H       -1.91311346       0.35943012       1.50478781
H       -2.80686431      -0.16548332       0.01918597
H       -1.31673671       2.20363032       0.11705190
H       -0.27449911       2.21487549      -1.26985100
17
Frame=5 idx=010932 GeodesicLength=0.5128554775138008 rxn_smarts="[O:1]([C:2]([C@@:3]1([H:11])[C:4]([H:12])([H:13])[C:5]([H:14])([H:15])[C:6]([H:16])([H:17])[O:7]1)([H:9])[H:10])[H:8]>>[O:1]([C:2]([C:3]1([O:7][C:6]([H:11])([H:16])[H:17])[C:4]([H:12])([H:13])[C:5]1([H:14])[H:15])([H:9])[H:10])[H:8]"
O        2.72369486      -0.21604269      -0.70037244
C        1.74788353      -0.82951621       0.11148241
C        0.38551507      -0.22332711      -0.09448292
C       -0.83018626      -1.08639670       0.20577240
C       -1.81216767      -0.05945442       0.53299096
C       -0.66723737       1.56990134      -0.48395986
O        0.43360505       1.12141561       0.26756960
H        2.67151065       0.72942284      -0.53844884
H        2.02638611      -0.76705605       1.17607610
H        1.75781209      -1.88983050      -0.14737430
H       -0.45778896       0.44251437      -1.24988180
H       -0.60332966      -1.67344331       1.10258217
H       -1.08871490      -1.74668085      -0.61843839
H       -1.87640642       0.32047672       1.54484632
H       -2.78028498      -0.12664136       0.04776385
H       -1.31612346       2.20454300       0.12414537
H       -0.31416771       2.23011533      -1.28027063
17
Frame=6 idx=010932 GeodesicLength=0.6161142416695442 rxn_smarts="[O:1]([C:2]([C@@:3]1([H:11])[C:4]([H:12])([H:13])[C:5]([H:14])([H:15])[C:6]([H:16])([H:17])[O:7]1)([H:9])[H:10])[H:8]>>[O:1]([C:2]([C:3]1([O:7][C:6]([H:11])([H:16])[H:17])[C:4]([H:12])([H:13])[C:5]1([H:14])[H:15])([H:9])[H:10])[H:8]"
O        2.71937680      -0.23680354      -0.68906410
C        1.73949809      -0.82182965       0.13862973
C        0.37755887      -0.22288932      -0.09317170
C       -0.83004745      -1.09901881       0.18142186
C       -1.77728522      -0.05122899       0.55303500
C       -0.68375345       1.57000782      -0.49571425
O        0.43536595       1.13232935       0.23406652
H        2.66800855       0.71346633      -0.55768353
H        2.01213864      -0.72412887       1.20200235
H        1.75687657      -1.89075085      -0.08173427
H       -0.43412917       0.43262222      -1.28219776
H       -0.60971337      -1.72271385       1.05383642
H       -1.11182007      -1.71847931      -0.66603361
H       -1.83895894       0.27993548       1.58234514
H       -2.75242598      -0.09033488       0.07826732
H       -1.31472846       2.20501118       0.13233440
H       -0.35596135       2.24480570      -1.29033951
17
Frame=7 idx=010932 GeodesicLength=0.7196620597853132 rxn_smarts="[O:1]([C:2]([C@@:3]1([H:11])[C:4]([H:12])([H:13])[C:5]([H:14])([H:15])[C:6]([H:16])([H:17])[O:7]1)([H:9])[H:10])[H:8]>>[O:1]([C:2]([C:3]1([O:7][C:6]([H:11])([H:16])[H:17])[C:4]([H:12])([H:13])[C:5]1([H:14])[H:15])([H:9])[H:10])[H:8]"
O        2.71556884      -0.25836101      -0.67605091
C        1.73039825      -0.81385389       0.16548162
C        0.36975262      -0.22215804      -0.09358279
C       -0.82987398      -1.11035865       0.15663274
C       -1.74124916      -0.04390325       0.57285818
C       -0.70056331       1.57003434      -0.50683725
O        0.43743971       1.14270668       0.19885504
H        2.66550615       0.69576855      -0.57550345
H        1.99607023      -0.68103359       1.22668551
H        1.75415571      -1.88996953      -0.01599867
H       -0.40996217       0.42333581      -1.31488895
H       -0.61575817      -1.76858269       1.00389078
H       -1.13528208      -1.68889159      -0.71085284
H       -1.80094417       0.23793710       1.61718655
H       -2.72329117      -0.05648459       0.11034126
H       -1.31236126       2.20500339       0.14158254
H       -0.39960603       2.25881094      -1.29979937
17
Frame=8 idx=010932 GeodesicLength=0.8235299906598654 rxn_smarts="[O:1]([C:2]([C@@:3]1([H:11])[C:4]([H:12])([H:13])[C:5]([H:14])([H:15])[C:6]([H:16])([H:17])[O:7]1)([H:9])[H:10])[H:8]>>[O:1]([C:2]([C:3]1([O:7][C:6]([H:11])([H:16])[H:17])[C:4]([H:12])([H:13])[C:5]1([H:14])[H:15])([H:9])[H:10])[H:8]"
O        2.71218567      -0.28047444      -0.66141300
C        1.72062373      -0.80555006       0.19193986
C        0.36215680      -0.22126170      -0.09580837
C       -0.82969912      -1.12045089       0.13158589
C       -1.70411488      -0.03742217       0.59234924
C       -0.71754476       1.56991421      -0.51723039
O        0.43971879       1.15239353       0.16209103
H        2.66386961       0.67654197      -0.59190024
H        1.97828345      -0.63772818       1.24997652
H        1.74961411      -1.88744112       0.04966465
H       -0.38538227       0.41453736      -1.34799585
H       -0.62138069      -1.81103713       0.95310779
H       -1.15925157      -1.65818260      -0.75267454
H       -1.76257608       0.19462217       1.64923915
H       -2.69288222      -0.02498058       0.14361552
H       -1.30882009       2.20451198       0.15185892
H       -0.44480046       2.27200764      -1.30840618
17
Frame=9 idx=010932 GeodesicLength=0.9278589145432556 rxn_smarts="[O:1]([C:2]([C@@:3]1([H:11])[C:4]([H:12])([H:13])[C:5]([H:14])([H:15])[C:6]([H:16])([H:17])[O:7]1)([H:9])[H:10])[H:8]>>[O:1]([C:2]([C:3]1([O:7][C:6]([H:11])([H:16])[H:17])[C:4]([H:12])([H:13])[C:5]1([H:14])[H:15])([H:9])[H:10])[H:8]"
O        2.70896797      -0.30292558      -0.64525753
C        1.71016748      -0.79687644       0.21791898
C        0.35473267      -0.22034958      -0.09972736
C       -0.82956406      -1.12941928       0.10649638
C       -1.66601182      -0.03166048       0.61140005
C       -0.73451309       1.56958286      -0.52676357
O        0.44202892       1.16127865       0.12403230
H        2.66283083       0.65600285      -0.60695583
H        1.95910407      -0.59414686       1.27174123
H        1.74323359      -1.88314328       0.11511852
H       -0.36047832       0.40604359      -1.38148485
H       -0.62641288      -1.85035764       0.90173520
H       -1.18366381      -1.62649877      -0.79151935
H       -1.72417674       0.15027254       1.67855768
H       -2.66116350       0.00436571       0.17769172
H       -1.30388992       2.20357345       0.16299701
H       -0.49119138       2.28425824      -1.31598058
17
Frame=10 idx=010932 GeodesicLength=1.0325789711562539 rxn_smarts="[O:1]([C:2]([C@@:3]1([H:11])[C:4]([H:12])([H:13])[C:5]([H:14])([H:15])[C:6]([H:16])([H:17])[O:7]1)([H:9])[H:10])[H:8]>>[O:1]([C:2]([C:3]1([O:7][C:6]([H:11])([H:16])[H:17])[C:4]([H:12])([H:13])[C:5]1([H:14])[H:15])([H:9])[H:10])[H:8]"
O        2.70595968      -0.32548580      -0.62769828
C        1.69909940      -0.78779877       0.24333684
C        0.34760395      -0.21949342      -0.10544629
C       -0.82949110      -1.13728267       0.08150033
C       -1.62695260      -0.02664423       0.62990101
C       -0.75140888       1.56902683      -0.53536813
O        0.44433557       1.16925963       0.08481245
H        2.66236264       0.63434983      -0.62069882
H        1.93852365      -0.55031442       1.29185680
H        1.73498822      -1.87701257       0.18017928
H       -0.33529720       0.39772335      -1.41540807
H       -0.63091577      -1.88643932       0.85023009
H       -1.20873382      -1.59415389      -0.82710388
H       -1.68591073       0.10492852       1.70487957
H       -2.62821972       0.03162927       0.21222423
H       -1.29745924       2.20215935       0.17503222
H       -0.53848405       2.29554831      -1.32222936
17
Frame=11 idx=010932 GeodesicLength=1.1377088018599075 rxn_smarts="[O:1]([C:2]([C@@:3]1([H:11])[C:4]([H:12])([H:13])[C:5]([H:14])([H:15])[C:6]([H:16])([H:17])[O:7]1)([H:9])[H:10])[H:8]>>[O:1]([C:2]([C:3]1([O:7][C:6]([H:11])([H:16])[H:17])[C:4]([H:12])([H:13])[C:5]1([H:14])[H:15])([H:9])[H:10])[H:8]"
O        2.70302893      -0.34793732      -0.60888335
C        1.68746718      -0.77829233       0.26810729
C        0.34079834      -0.21879144      -0.11285509
C       -0.82951160      -1.14414602       0.05677462
C       -1.58703759      -0.02232766       0.64774271
C       -0.76811021       1.56822552      -0.54295110
O        0.44654140       1.17627545       0.04466153
H        2.66230511       0.61179483      -0.63319325
H        1.91669996      -0.50625505       1.31020712
H        1.72487498      -1.86902340       0.24461983
H       -0.30986894       0.38938033      -1.44973291
H       -0.63486246      -1.91943575       0.79895350
H       -1.23443843      -1.56138203      -0.85935541
H       -1.64804866       0.05882738       1.72809963
H       -2.59407023       0.05694400       0.24684711
H       -1.28941478       2.20029477       0.18788542
H       -0.58635302       2.30584873      -1.32692764
17
Frame=12 idx=010932 GeodesicLength=1.2432768003305883 rxn_smarts="[O:1]([C:2]([C@@:3]1([H:11])[C:4]([H:12])([H:13])[C:5]([H:14])([H:15])[C:6]([H:16])([H:17])[O:7]1)([H:9])[H:10])[H:8]>>[O:1]([C:2]([C:3]1([O:7][C:6]([H:11])([H:16])[H:17])[C:4]([H:12])([H:13])[C:5]1([H:14])[H:15])([H:9])[H:10])[H:8]"
O        2.70006061      -0.37006425      -0.58901053
C        1.67531853      -0.76834399       0.29213489
C        0.33432350      -0.21832478      -0.12177235
C       -0.82966837      -1.15013094       0.03251512
C       -1.54639505      -0.01866600       0.66481582
C       -0.78450399       1.56717261      -0.54942191
O        0.44855077       1.18228771       0.00381427
H        2.66250837       0.58855588      -0.64448989
H        1.89388013      -0.46204785       1.32668095
H        1.71290952      -1.85916808       0.30818651
H       -0.28418237       0.38077568      -1.48440703
H       -0.63821967      -1.94952790       0.74822753
H       -1.26069487      -1.52840654      -0.88819733
H       -1.61094332       0.01225352       1.74812709
H       -2.55879347       0.08044028       0.28118020
H       -1.27967164       2.19803033       0.20148815
H       -0.63447868       2.31516432      -1.32987150
17
Frame=13 idx=010932 GeodesicLength=1.3493807497963517 rxn_smarts="[O:1]([C:2]([C@@:3]1([H:11])[C:4]([H:12])([H:13])[C:5]([H:14])([H:15])[C:6]([H:16])([H:17])[O:7]1)([H:9])[H:10])[H:8]>>[O:1]([C:2]([C:3]1([O:7][C:6]([H:11])([H:16])[H:17])[C:4]([H:12])([H:13])[C:5]1([H:14])[H:15])([H:9])[H:10])[H:8]"
O        2.69686317      -0.39169470      -0.56829991
C        1.66269296      -0.75795544       0.31533375
C        0.32810896      -0.21817779      -0.13190070
C       -0.82999146      -1.15540140       0.00890906
C       -1.50522720      -0.01556753       0.68101986
C       -0.80045200       1.56588296      -0.55466967
O        0.45024365       1.18729856      -0.03748729
H        2.66276306       0.56483484      -0.65469437
H        1.87038729      -0.41773686       1.34121366
H        1.69913803      -1.84750313       0.37066012
H       -0.25820378       0.37164500      -1.51932859
H       -0.64088737      -1.97703668       0.69828409
H       -1.28726658      -1.49539354      -0.91371967
H       -1.57496055      -0.03445150       1.76503462
H       -2.52248861       0.10228573       0.31482130
H       -1.26813158       2.19544240       0.21574794
H       -0.68258800       2.32352909      -1.33092420
17
Frame=14 idx=010932 GeodesicLength=1.4559223395064622 rxn_smarts="[O:1]([C:2]([C@@:3]1([H:11])[C:4]([H:12])([H:13])[C:5]([H:14])([H:15])[C:6]([H:16])([H:17])[O:7]1)([H:9])[H:10])[H:8]>>[O:1]([C:2]([C:3]1([O:7][C:6]([H:11])([H:16])[H:17])[C:4]([H:12])([H:13])[C:5]1([H:14])[H:15])([H:9])[H:10])[H:8]"
O        2.69343597      -0.41263828      -0.54695616
C        1.64968862      -0.74712662       0.33762918
C        0.32220354      -0.21837241      -0.14307894
C       -0.83051523      -1.16004819      -0.01390156
C       -1.46365810      -0.01305617       0.69626071
C       -0.81591474       1.56439068      -0.55863995
O        0.45157686       1.19129608      -0.07906519
H        2.66300675       0.54083593      -0.66388583
H        1.84633341      -0.37346154       1.35372289
H        1.68362841      -1.83404215       0.43175605
H       -0.23184615       0.36176642      -1.55442686
H       -0.64295085      -2.00204606       0.64948874
H       -1.31411115      -1.46264997      -0.93581562
H       -1.54039165      -0.08095792       1.77861899
H       -2.48530060       0.12251922       0.34746901
H       -1.25480524       2.19253126       0.23063958
H       -0.73037985       2.33105973      -1.32981505
17
Frame=15 idx=010932 GeodesicLength=1.562890018683602 rxn_smarts="[O:1]([C:2]([C@@:3]1([H:11])[C:4]([H:12])([H:13])[C:5]([H:14])([H:15])[C:6]([H:16])([H:17])[O:7]1)([H:9])[H:10])[H:8]>>[O:1]([C:2]([C:3]1([O:7][C:6]([H:11])([H:16])[H:17])[C:4]([H:12])([H:13])[C:5]1([H:14])[H:15])([H:9])[H:10])[H:8]"
O        2.68968749      -0.43274519      -0.52520394
C        1.63637536      -0.73588114       0.35895382
C        0.31656254      -0.21894819      -0.15503205
C       -0.83127050      -1.16421486      -0.03578214
C       -1.42190113      -0.01110205       0.71044823
C       -0.83082705       1.56274292      -0.56126122
O        0.45246339       1.19429015      -0.12072850
H        2.66309889       0.51675557      -0.67216674
H        1.82195815      -0.32933968       1.36418095
H        1.66650661      -1.81886651       0.49121570
H       -0.20500269       0.35088263      -1.58958780
H       -0.64442321      -2.02480017       0.60209912
H       -1.34098653      -1.43041347      -0.95459542
H       -1.50752755      -0.12683089       1.78891501
H       -2.44741574       0.14123561       0.37879517
H       -1.23967835       2.18935472       0.24613175
H       -0.77761968       2.33788054      -1.32638193
17
Frame=16 idx=010932 GeodesicLength=1.6702697234805948 rxn_smarts="[O:1]([C:2]([C@@:3]1([H:11])[C:4]([H:12])([H:13])[C:5]([H:14])([H:15])[C:6]([H:16])([H:17])[O:7]1)([H:9])[H:10])[H:8]>>[O:1]([C:2]([C:3]1([O:7][C:6]([H:11])([H:16])[H:17])[C:4]([H:12])([H:13])[C:5]1([H:14])[H:15])([H:9])[H:10])[H:8]"
O        2.68553782      -0.45188592      -0.50327110
C        1.62282832      -0.72425163       0.37924781
C        0.31112110      -0.21993594      -0.16748324
C       -0.83227764      -1.16804644      -0.05661952
C       -1.38019364      -0.00967348       0.72350151
C       -0.84514155       1.56099536      -0.56248033
O        0.45281343       1.19629012      -0.16233147
H        2.66291389       0.49278532      -0.67961830
H        1.79748853      -0.28548890       1.37257698
H        1.64792733      -1.80208648       0.54880268
H       -0.17753750       0.33872287      -1.62469669
H       -0.64531133      -2.04555280       0.55632199
H       -1.36763805      -1.39891296      -0.97021435
H       -1.47662795      -0.17162126       1.79603022
H       -2.40905572       0.15850752       0.40850863
H       -1.22274737       2.18598731       0.26220806
H       -0.82409970       2.34416729      -1.32048288
