13
Frame=0 idx=006688 GeodesicLength=0.0 rxn_smarts="[C:1]([c:2]1[c:3]([H:11])[n:4][c:5]([N:6]([H:12])[H:13])[o:7]1)([H:8])([H:9])[H:10]>>[C:1](=[C:2](/[C:3](=[N:4]\[C:5]([N:6]([H:12])[H:13])=[O:7])[H:11])[H:9])([H:8])[H:10]"
C       -2.21445325       0.56850812       0.18617436
C       -1.25533078      -0.37322226       0.44682862
C       -0.37457227      -0.99656150      -0.47081398
N        0.89066593      -0.82160026      -0.64526743
C        1.41713482       0.22316758       0.12903819
N        2.76096638       0.32001657       0.01462105
O        0.75040182       0.96723212       0.83197246
H       -2.25257814       1.16721024      -0.72722176
H       -2.48345190      -0.72315210       0.27639095
H       -2.92647283       0.83923064       0.96247701
H       -0.82163138      -1.82950072      -1.01884633
H        3.24995807       1.01048631       0.55090327
H        3.25936353      -0.35181473      -0.53625635
13
Frame=1 idx=006688 GeodesicLength=0.06289634057726422 rxn_smarts="[C:1]([c:2]1[c:3]([H:11])[n:4][c:5]([N:6]([H:12])[H:13])[o:7]1)([H:8])([H:9])[H:10]>>[C:1](=[C:2](/[C:3](=[N:4]\[C:5]([N:6]([H:12])[H:13])=[O:7])[H:11])[H:9])([H:8])[H:10]"
C       -2.23128690       0.56128702       0.17662024
C       -1.23198700      -0.34118242       0.43198868
C       -0.37350704      -0.98308744      -0.49213942
N        0.89574620      -0.81620340      -0.66283242
C        1.41848988       0.23295022       0.10184092
N        2.76689374       0.31007817       0.03073182
O        0.74499703       0.96293047       0.81868569
H       -2.30833604       1.13147219      -0.75196388
H       -2.46312966      -0.73693081       0.34337157
H       -2.90765967       0.85896191       0.97441179
H       -0.82893526      -1.81291002      -1.03670754
H        3.24839517       0.99066792       0.58616110
H        3.27031954      -0.35803382      -0.52016854
13
Frame=2 idx=006688 GeodesicLength=0.12575307194889668 rxn_smarts="[C:1]([c:2]1[c:3]([H:11])[n:4][c:5]([N:6]([H:12])[H:13])[o:7]1)([H:8])([H:9])[H:10]>>[C:1](=[C:2](/[C:3](=[N:4]\[C:5]([N:6]([H:12])[H:13])=[O:7])[H:11])[H:9])([H:8])[H:10]"
C       -2.24884238       0.55259664       0.16828526
C       -1.20962830      -0.30828710       0.41490006
C       -0.37249706      -0.96910213      -0.51372863
N        0.90036082      -0.80895318      -0.68201483
C        1.42101632       0.23920587       0.07931692
N        2.77218003       0.29886905       0.04785617
O        0.73940096       0.96180017       0.80166309
H       -2.36537688       1.09280763      -0.77357029
H       -2.43764364      -0.74762780       0.41129462
H       -2.88957650       0.87900893       0.98387362
H       -0.83587635      -1.79609346      -1.05463208
H        3.24583110       0.96929819       0.62214721
H        3.28065186      -0.36352281      -0.50539113
13
Frame=3 idx=006688 GeodesicLength=0.18901227623702901 rxn_smarts="[C:1]([c:2]1[c:3]([H:11])[n:4][c:5]([N:6]([H:12])[H:13])[o:7]1)([H:8])([H:9])[H:10]>>[C:1](=[C:2](/[C:3](=[N:4]\[C:5]([N:6]([H:12])[H:13])=[O:7])[H:11])[H:9])([H:8])[H:10]"
C       -2.26816933       0.54186136       0.16177614
C       -1.18761307      -0.27294482       0.39433180
C       -0.37158243      -0.95228969      -0.53799958
N        0.90473035      -0.79857320      -0.70451755
C        1.42475812       0.24445185       0.05815366
N        2.77731051       0.28638587       0.06557156
O        0.73416077       0.96562328       0.77907883
H       -2.42770094       1.04967240      -0.79131668
H       -2.40501867      -0.75544884       0.48143052
H       -2.87257047       0.89804644       0.99233849
H       -0.84198928      -1.77885911      -1.07224201
H        3.24268549       0.94490735       0.66013428
H        3.29099896      -0.37283289      -0.48673946
13
Frame=4 idx=006688 GeodesicLength=0.252190199082292 rxn_smarts="[C:1]([c:2]1[c:3]([H:11])[n:4][c:5]([N:6]([H:12])[H:13])[o:7]1)([H:8])([H:9])[H:10]>>[C:1](=[C:2](/[C:3](=[N:4]\[C:5]([N:6]([H:12])[H:13])=[O:7])[H:11])[H:9])([H:8])[H:10]"
C       -2.28726950       0.52984223       0.15661383
C       -1.16696963      -0.23707259       0.37147514
C       -0.37078284      -0.93555842      -0.56220763
N        0.90880489      -0.78757012      -0.72742338
C        1.42868552       0.24796298       0.03940162
N        2.78133866       0.27363827       0.08325640
O        0.72906384       0.96928020       0.75719197
H       -2.48991446       1.00308831      -0.80566844
H       -2.36688893      -0.75885541       0.55143492
H       -2.85620063       0.91786676       0.99777643
H       -0.84808873      -1.76107057      -1.09077468
H        3.23784200       0.92065369       0.69709398
H        3.30037979      -0.38220534      -0.46817016
13
Frame=5 idx=006688 GeodesicLength=0.3151927317922298 rxn_smarts="[C:1]([c:2]1[c:3]([H:11])[n:4][c:5]([N:6]([H:12])[H:13])[o:7]1)([H:8])([H:9])[H:10]>>[C:1](=[C:2](/[C:3](=[N:4]\[C:5]([N:6]([H:12])[H:13])=[O:7])[H:11])[H:9])([H:8])[H:10]"
C       -2.30606972       0.51610864       0.15447753
C       -1.14713067      -0.20061198       0.34531536
C       -0.37020797      -0.91703206      -0.58937674
N        0.91292776      -0.77570233      -0.75183956
C        1.43260764       0.25137249       0.02036167
N        2.78421057       0.26168322       0.09995285
O        0.72346169       0.97598922       0.73119982
H       -2.55350246       0.95393129      -0.81369927
H       -2.32187002      -0.75859287       0.62039031
H       -2.84005592       0.93597996       1.00310093
H       -0.85386544      -1.74230575      -1.11135237
H        3.23076049       0.89837690       0.73173627
H        3.30873405      -0.39919674      -0.44026680
13
Frame=6 idx=006688 GeodesicLength=0.37791412974252814 rxn_smarts="[C:1]([c:2]1[c:3]([H:11])[n:4][c:5]([N:6]([H:12])[H:13])[o:7]1)([H:8])([H:9])[H:10]>>[C:1](=[C:2](/[C:3](=[N:4]\[C:5]([N:6]([H:12])[H:13])=[O:7])[H:11])[H:9])([H:8])[H:10]"
C       -2.32335911       0.50122014       0.15483177
C       -1.12848075      -0.16451635       0.31699602
C       -0.36982256      -0.89872190      -0.61733798
N        0.91701287      -0.76456850      -0.77600277
C        1.43605292       0.25408003       0.00170691
N        2.78550371       0.24987318       0.11679918
O        0.71706923       0.98442541       0.70255708
H       -2.61537003       0.90254699      -0.81640938
H       -2.27111627      -0.75392341       0.68747558
H       -2.82394688       0.95362104       1.00700788
H       -0.85986816      -1.72290899      -1.13392684
H        3.22101213       0.87706358       0.76565726
H        3.31531290      -0.41819121      -0.40935472
13
Frame=7 idx=006688 GeodesicLength=0.44044992224753027 rxn_smarts="[C:1]([c:2]1[c:3]([H:11])[n:4][c:5]([N:6]([H:12])[H:13])[o:7]1)([H:8])([H:9])[H:10]>>[C:1](=[C:2](/[C:3](=[N:4]\[C:5]([N:6]([H:12])[H:13])=[O:7])[H:11])[H:9])([H:8])[H:10]"
C       -2.33856658       0.48538556       0.15805368
C       -1.11100957      -0.12938788       0.28652191
C       -0.36973613      -0.88065220      -0.64671875
N        0.92119921      -0.75524502      -0.79919623
C        1.43879987       0.25594037      -0.01679584
N        2.78497557       0.23827483       0.13411540
O        0.70959550       0.99468643       0.67049424
H       -2.67490448       0.84983330      -0.81309749
H       -2.21496314      -0.74515071       0.75163914
H       -2.80711612       0.97050505       1.01041191
H       -0.86631879      -1.70267469      -1.15941050
H        3.20824938       0.85842076       0.79778304
H        3.31979528      -0.43993581      -0.37380050
13
Frame=8 idx=006688 GeodesicLength=0.5028016027156555 rxn_smarts="[C:1]([c:2]1[c:3]([H:11])[n:4][c:5]([N:6]([H:12])[H:13])[o:7]1)([H:8])([H:9])[H:10]>>[C:1](=[C:2](/[C:3](=[N:4]\[C:5]([N:6]([H:12])[H:13])=[O:7])[H:11])[H:9])([H:8])[H:10]"
C       -2.35079969       0.46887761       0.16411251
C       -1.09457221      -0.09611275       0.25502188
C       -0.36979708      -0.86403253      -0.67613044
N        0.92521940      -0.74740372      -0.82188760
C        1.44057323       0.25736934      -0.03569294
N        2.78228445       0.22711492       0.15182775
O        0.70089126       1.00682208       0.63467179
H       -2.73033666       0.79595873      -0.80411485
H       -2.15434259      -0.73234469       0.81261899
H       -2.78932270       0.98685010       1.01306264
H       -0.87348582      -1.68148329      -1.18806856
H        3.19203089       0.84157357       0.82923998
H        3.32165752      -0.46318939      -0.33466115
13
Frame=9 idx=006688 GeodesicLength=0.5651358047944895 rxn_smarts="[C:1]([c:2]1[c:3]([H:11])[n:4][c:5]([N:6]([H:12])[H:13])[o:7]1)([H:8])([H:9])[H:10]>>[C:1](=[C:2](/[C:3](=[N:4]\[C:5]([N:6]([H:12])[H:13])=[O:7])[H:11])[H:9])([H:8])[H:10]"
C       -2.35997645       0.45225889       0.17273462
C       -1.07934925      -0.06490842       0.22258662
C       -0.37025224      -0.84860459      -0.70608654
N        0.92916543      -0.74243855      -0.84263659
C        1.44136164       0.25747339      -0.05405436
N        2.77749842       0.21627182       0.17020347
O        0.69113858       1.01954077       0.59633435
H       -2.78076366       0.74333097      -0.78965665
H       -2.09044804      -0.71635664       0.86873018
H       -2.77088698       1.00196853       1.01550602
H       -0.88136831      -1.65992298      -1.21931551
H        3.17291871       0.82860668       0.85805400
H        3.32096215      -0.48721987      -0.29239962
13
Frame=10 idx=006688 GeodesicLength=0.6274738410870108 rxn_smarts="[C:1]([c:2]1[c:3]([H:11])[n:4][c:5]([N:6]([H:12])[H:13])[o:7]1)([H:8])([H:9])[H:10]>>[C:1](=[C:2](/[C:3](=[N:4]\[C:5]([N:6]([H:12])[H:13])=[O:7])[H:11])[H:9])([H:8])[H:10]"
C       -2.36558493       0.43615630       0.18346703
C       -1.06535492      -0.03695013       0.19053999
C       -0.37108951      -0.83556140      -0.73529800
N        0.93286134      -0.74104512      -0.86065888
C        1.44093499       0.25601193      -0.07159472
N        2.77052407       0.20609752       0.18905223
O        0.68020302       1.03175240       0.55653023
H       -2.82417709       0.69405690      -0.77083372
H       -2.02565373      -0.69827835       0.91912428
H       -2.75163125       1.01600956       1.01776100
H       -0.89017019      -1.63820378      -1.25304817
H        3.15118262       0.82003567       0.88385442
H        3.31795558      -0.51008149      -0.24889568
13
Frame=11 idx=006688 GeodesicLength=0.690170919218141 rxn_smarts="[C:1]([c:2]1[c:3]([H:11])[n:4][c:5]([N:6]([H:12])[H:13])[o:7]1)([H:8])([H:9])[H:10]>>[C:1](=[C:2](/[C:3](=[N:4]\[C:5]([N:6]([H:12])[H:13])=[O:7])[H:11])[H:9])([H:8])[H:10]"
C       -2.36820925       0.41996837       0.19621528
C       -1.05210997      -0.01086877       0.15851722
C       -0.37203317      -0.82402720      -0.76387540
N        0.93611669      -0.74015788      -0.87885639
C        1.43969493       0.25408039      -0.08911814
N        2.76155623       0.19609165       0.20840886
O        0.66882262       1.04442796       0.51471661
H       -2.86340546       0.64426552      -0.74797841
H       -1.95816819      -0.67738709       0.96603036
H       -2.73184452       1.02927290       1.01952260
H       -0.89948121      -1.61537062      -1.28937305
H        3.12723931       0.81374695       0.90805246
H        3.31182199      -0.53404218      -0.20226199
13
Frame=12 idx=006688 GeodesicLength=0.7530514892292702 rxn_smarts="[C:1]([c:2]1[c:3]([H:11])[n:4][c:5]([N:6]([H:12])[H:13])[o:7]1)([H:8])([H:9])[H:10]>>[C:1](=[C:2](/[C:3](=[N:4]\[C:5]([N:6]([H:12])[H:13])=[O:7])[H:11])[H:9])([H:8])[H:10]"
C       -2.36779003       0.40462697       0.21018641
C       -1.04007963       0.01171475       0.12782685
C       -0.37335057      -0.81493727      -0.79106239
N        0.93896887      -0.74229246      -0.89422846
C        1.43733183       0.25013439      -0.10462354
N        2.75103052       0.18705259       0.22760149
O        0.65667554       1.05457093       0.47459267
H       -2.89568833       0.59906728      -0.72261185
H       -1.89203027      -0.65608291       1.00712639
H       -2.71174856       1.04122737       1.02123483
H       -0.90953183      -1.59153520      -1.32846423
H        3.10301970       0.81399874       0.92607237
H        3.30319277      -0.55754518      -0.15365055
13
Frame=13 idx=006688 GeodesicLength=0.8163179132836745 rxn_smarts="[C:1]([c:2]1[c:3]([H:11])[n:4][c:5]([N:6]([H:12])[H:13])[o:7]1)([H:8])([H:9])[H:10]>>[C:1](=[C:2](/[C:3](=[N:4]\[C:5]([N:6]([H:12])[H:13])=[O:7])[H:11])[H:9])([H:8])[H:10]"
C       -2.36470360       0.38990182       0.22511229
C       -1.02875166       0.03199528       0.09827837
C       -0.37480650      -0.80832207      -0.81619169
N        0.94135584      -0.74580490      -0.90851985
C        1.43416592       0.24545254      -0.11963848
N        2.73911503       0.17912845       0.24617097
O        0.64420017       1.06414547       0.43380620
H       -2.92304702       0.55502863      -0.69530190
H       -1.82578014      -0.63287604       1.04488708
H       -2.69151167       1.05296906       1.02196047
H       -0.91987201      -1.56725364      -1.36857841
H        3.07678495       0.81391140       0.94471491
H        3.29285070      -0.57827599      -0.10669997
13
Frame=14 idx=006688 GeodesicLength=0.8799763309762078 rxn_smarts="[C:1]([c:2]1[c:3]([H:11])[n:4][c:5]([N:6]([H:12])[H:13])[o:7]1)([H:8])([H:9])[H:10]>>[C:1](=[C:2](/[C:3](=[N:4]\[C:5]([N:6]([H:12])[H:13])=[O:7])[H:11])[H:9])([H:8])[H:10]"
C       -2.35915703       0.37582260       0.24089226
C       -1.01804424       0.04973788       0.07015499
C       -0.37643902      -0.80413769      -0.83934991
N        0.94331829      -0.75083611      -0.92154896
C        1.43026327       0.23993831      -0.13405321
N        2.72596610       0.17218545       0.26422487
O        0.63143623       1.07270721       0.39283312
H       -2.94548128       0.51310943      -0.66638952
H       -1.76020392      -0.60877982       1.07917888
H       -2.67115608       1.06405717       1.02224099
H       -0.93042775      -1.54179712      -1.41029194
H        3.04929521       0.81541801       0.96191233
H        3.28063019      -0.59742532      -0.05980390
13
Frame=15 idx=006688 GeodesicLength=0.9440226652359298 rxn_smarts="[C:1]([c:2]1[c:3]([H:11])[n:4][c:5]([N:6]([H:12])[H:13])[o:7]1)([H:8])([H:9])[H:10]>>[C:1](=[C:2](/[C:3](=[N:4]\[C:5]([N:6]([H:12])[H:13])=[O:7])[H:11])[H:9])([H:8])[H:10]"
C       -2.35148414       0.36250840       0.25720541
C       -1.00791756       0.06506403       0.04352910
C       -0.37827454      -0.80261472      -0.86018385
N        0.94486421      -0.75756073      -0.93303599
C        1.42570169       0.23350941      -0.14776470
N        2.71182593       0.16627343       0.28163525
O        0.61847030       1.08005644       0.35189188
H       -2.96344507       0.47323799      -0.63646554
H       -1.69571698      -0.58380983       1.11050174
H       -2.65078144       1.07484077       1.02180999
H       -0.94100177      -1.51504274      -1.45318200
H        3.02038947       0.81743051       0.97874667
H        3.26736990      -0.61389295      -0.01468796
13
Frame=16 idx=006688 GeodesicLength=1.008292001433061 rxn_smarts="[C:1]([c:2]1[c:3]([H:11])[n:4][c:5]([N:6]([H:12])[H:13])[o:7]1)([H:8])([H:9])[H:10]>>[C:1](=[C:2](/[C:3](=[N:4]\[C:5]([N:6]([H:12])[H:13])=[O:7])[H:11])[H:9])([H:8])[H:10]"
C       -2.34211327       0.35016432       0.27360706
C       -0.99840754       0.07759816       0.01899388
C       -0.38041221      -0.80414875      -0.87813470
N        0.94595259      -0.76655866      -0.94216312
C        1.42048872       0.22575109      -0.16022291
N        2.69713653       0.16156535       0.29806395
O        0.60526193       1.08543102       0.31200962
H       -2.97668005       0.43679985      -0.60665324
H       -1.63381955      -0.55881805       1.13900360
H       -2.63079824       1.08515768       1.02071972
H       -0.95137035      -1.48645050      -1.49719741
H        2.99075972       0.82064186       0.99427411
H        3.25400171      -0.62713338       0.02769943
