14
Frame=0 idx=007127 GeodesicLength=0.0 rxn_smarts="[N:1](=[C:2]1\[O:3][C:4]([H:9])([H:10])[C@@:5]2([H:11])[C:6]([H:12])([H:13])[C@@:7]12[H:14])\[H:8]>>[N:1](=[C:2]1/[C@@:6]2([H:13])[C@:5]([C:4]([O:3][H:12])([H:9])[H:10])([H:11])[C@@:7]12[H:14])\[H:8]"
N        1.78225939      -1.75056027       0.55086132
C        0.81247202      -1.08092730       0.51622373
O        0.95808136       0.35805235      -1.10875383
C        0.27247268       1.39418710      -0.44703833
C       -0.91028109       0.69227140       0.20854711
C       -1.29760379      -0.50603026      -0.54547825
C       -0.48859803      -0.65049562       0.79356034
H        2.69431398      -1.71254352       0.13752554
H       -0.08241566       2.14342306      -1.16410881
H        0.93667987       1.87898535       0.27287086
H       -1.57850237       1.27502813       0.83600517
H        0.10171289      -0.22048829      -1.38410478
H       -2.31753905      -0.85630363      -0.41909141
H       -0.88305222      -0.96459855       1.75298129
14
Frame=1 idx=007127 GeodesicLength=0.09169753616252097 rxn_smarts="[N:1](=[C:2]1\[O:3][C:4]([H:9])([H:10])[C@@:5]2([H:11])[C:6]([H:12])([H:13])[C@@:7]12[H:14])\[H:8]>>[N:1](=[C:2]1/[C@@:6]2([H:13])[C@:5]([C:4]([O:3][H:12])([H:9])[H:10])([H:11])[C@@:7]12[H:14])\[H:8]"
N        1.76808489      -1.76407808       0.55224640
C        0.80885201      -1.07302044       0.50090835
O        0.96983378       0.36717905      -1.09552344
C        0.27309428       1.40227790      -0.44056178
C       -0.90938406       0.69389926       0.20873787
C       -1.27521994      -0.52114644      -0.53404621
C       -0.48365610      -0.63458398       0.81510572
H        2.66901626      -1.73730948       0.11246067
H       -0.08299772       2.14409595      -1.16461740
H        0.92775905       1.89736938       0.28067421
H       -1.59558552       1.27729921       0.81525244
H        0.10161861      -0.21676301      -1.39667641
H       -2.29368574      -0.88025682      -0.42561645
H       -0.87772980      -0.95496249       1.77165604
14
Frame=2 idx=007127 GeodesicLength=0.18338774964384613 rxn_smarts="[N:1](=[C:2]1\[O:3][C:4]([H:9])([H:10])[C@@:5]2([H:11])[C:6]([H:12])([H:13])[C@@:7]12[H:14])\[H:8]>>[N:1](=[C:2]1/[C@@:6]2([H:13])[C@:5]([C:4]([O:3][H:12])([H:9])[H:10])([H:11])[C@@:7]12[H:14])\[H:8]"
N        1.75446748      -1.77541768       0.55476147
C        0.80512515      -1.06490301       0.48634069
O        0.98130670       0.37599651      -1.08255331
C        0.27384755       1.41009766      -0.43416515
C       -0.90814820       0.69531844       0.20925773
C       -1.25301867      -0.53546334      -0.52257800
C       -0.47867602      -0.61926447       0.83569899
H        2.64258956      -1.76184672       0.08719991
H       -0.08340622       2.14456600      -1.16501275
H        0.91911594       1.91533099       0.28809894
H       -1.61165749       1.27866663       0.79501920
H        0.10088101      -0.21342573      -1.40933439
H       -2.26952946      -0.90362096      -0.43189015
H       -0.87289733      -0.94603433       1.78915683
14
Frame=3 idx=007127 GeodesicLength=0.275060720466885 rxn_smarts="[N:1](=[C:2]1\[O:3][C:4]([H:9])([H:10])[C@@:5]2([H:11])[C:6]([H:12])([H:13])[C@@:7]12[H:14])\[H:8]>>[N:1](=[C:2]1/[C@@:6]2([H:13])[C@:5]([C:4]([O:3][H:12])([H:9])[H:10])([H:11])[C@@:7]12[H:14])\[H:8]"
N        1.74175307      -1.78435232       0.55859649
C        0.80149080      -1.05639178       0.47267215
O        0.99263316       0.38464842      -1.06968494
C        0.27466129       1.41773333      -0.42782017
C       -0.90663270       0.69653943       0.21006456
C       -1.23090989      -0.54906470      -0.51113798
C       -0.47365881      -0.60450207       0.85541378
H        2.61454104      -1.78694129       0.06123294
H       -0.08373079       2.14483548      -1.16534635
H        0.91055378       1.93306757       0.29521747
H       -1.62687142       1.27914594       0.77521745
H        0.09966940      -0.21050833      -1.42194771
H       -2.24498430      -0.92649189      -0.43805838
H       -0.86851464      -0.93771780       1.80558071
14
Frame=4 idx=007127 GeodesicLength=0.36673867669619986 rxn_smarts="[N:1](=[C:2]1\[O:3][C:4]([H:9])([H:10])[C@@:5]2([H:11])[C:6]([H:12])([H:13])[C@@:7]12[H:14])\[H:8]>>[N:1](=[C:2]1/[C@@:6]2([H:13])[C@:5]([C:4]([O:3][H:12])([H:9])[H:10])([H:11])[C@@:7]12[H:14])\[H:8]"
N        1.72949676      -1.79186122       0.56262569
C        0.79784073      -1.04779564       0.45949039
O        1.00365938       0.39297199      -1.05715907
C        0.27560371       1.42507907      -0.42158925
C       -0.90479280       0.69759817       0.21122081
C       -1.20918796      -0.56184838      -0.49974805
C       -0.46866958      -0.59041939       0.87417450
H        2.58588875      -1.81113931       0.03627507
H       -0.08390668       2.14490292      -1.16558448
H        0.90231274       1.95033168       0.30192648
H       -1.64101616       1.27889205       0.75608375
H        0.09761215      -0.20804549      -1.43467640
H       -2.22040202      -0.94859078      -0.44399321
H       -0.86443901      -0.93007566       1.82095375
14
Frame=5 idx=007127 GeodesicLength=0.45844009568442756 rxn_smarts="[N:1](=[C:2]1\[O:3][C:4]([H:9])([H:10])[C@@:5]2([H:11])[C:6]([H:12])([H:13])[C@@:7]12[H:14])\[H:8]>>[N:1](=[C:2]1/[C@@:6]2([H:13])[C@:5]([C:4]([O:3][H:12])([H:9])[H:10])([H:11])[C@@:7]12[H:14])\[H:8]"
N        1.71751620      -1.79839725       0.56648943
C        0.79425085      -1.03907777       0.44679309
O        1.01444924       0.40101638      -1.04490771
C        0.27665590       1.43217107      -0.41546638
C       -0.90265509       0.69852418       0.21270787
C       -1.18785371      -0.57385778      -0.48843552
C       -0.46370575      -0.57698371       0.89204526
H        2.55679844      -1.83433174       0.01251646
H       -0.08395675       2.14476131      -1.16576658
H        0.89432271       1.96720952       0.30825482
H       -1.65417218       1.27797646       0.73757396
H        0.09471830      -0.20604824      -1.44747902
H       -2.19578881      -0.96996869      -0.44972175
H       -0.86057936      -0.92299374       1.83539608
14
Frame=6 idx=007127 GeodesicLength=0.5502344197727871 rxn_smarts="[N:1](=[C:2]1\[O:3][C:4]([H:9])([H:10])[C@@:5]2([H:11])[C:6]([H:12])([H:13])[C@@:7]12[H:14])\[H:8]>>[N:1](=[C:2]1/[C@@:6]2([H:13])[C@:5]([C:4]([O:3][H:12])([H:9])[H:10])([H:11])[C@@:7]12[H:14])\[H:8]"
N        1.70630307      -1.80339581       0.57095825
C        0.79117216      -1.02963915       0.43523365
O        1.02542617       0.40924750      -1.03237403
C        0.27762892       1.43932359      -0.40934691
C       -0.90036249       0.69933429       0.21438095
C       -1.16638215      -0.58535871      -0.47721071
C       -0.45866894      -0.56391330       0.90931138
H        2.52562994      -1.85888137      -0.01219703
H       -0.08407617       2.14444467      -1.16605722
H        0.88594422       1.98438669       0.31441866
H       -1.66687821       1.27628980       0.71919182
H        0.09168572      -0.20448785      -1.46001210
H       -2.17049396      -0.99123945      -0.45548072
H       -0.85692828      -0.91611091       1.84918400
14
Frame=7 idx=007127 GeodesicLength=0.642088574259818 rxn_smarts="[N:1](=[C:2]1\[O:3][C:4]([H:9])([H:10])[C@@:5]2([H:11])[C:6]([H:12])([H:13])[C@@:7]12[H:14])\[H:8]>>[N:1](=[C:2]1/[C@@:6]2([H:13])[C@:5]([C:4]([O:3][H:12])([H:9])[H:10])([H:11])[C@@:7]12[H:14])\[H:8]"
N        1.69592750      -1.80696691       0.57570410
C        0.78855235      -1.01965549       0.42451863
O        1.03652144       0.41761744      -1.01966829
C        0.27855356       1.44647163      -0.40325067
C       -0.89788686       0.70002603       0.21625946
C       -1.14490585      -0.59631444      -0.46609569
C       -0.45358009      -0.55127479       0.92592325
H        2.49252706      -1.88428875      -0.03709136
H       -0.08423854       2.14394133      -1.16640439
H        0.87729153       2.00170147       0.32037941
H       -1.67900068       1.27388233       0.70105597
H        0.08831469      -0.20338085      -1.47237298
H       -2.14468963      -1.01223209      -0.46124632
H       -0.85338647      -0.90952692       1.86228887
14
Frame=8 idx=007127 GeodesicLength=0.7340361247120082 rxn_smarts="[N:1](=[C:2]1\[O:3][C:4]([H:9])([H:10])[C@@:5]2([H:11])[C:6]([H:12])([H:13])[C@@:7]12[H:14])\[H:8]>>[N:1](=[C:2]1/[C@@:6]2([H:13])[C@:5]([C:4]([O:3][H:12])([H:9])[H:10])([H:11])[C@@:7]12[H:14])\[H:8]"
N        1.68606272      -1.80972722       0.58024002
C        0.78633632      -1.00926944       0.41450055
O        1.04772916       0.42607573      -1.00682446
C        0.27946296       1.45358845      -0.39719534
C       -0.89522030       0.70063055       0.21835246
C       -1.12351143      -0.60671183      -0.45509369
C       -0.44847348      -0.53908316       0.94190713
H        2.45797076      -1.90982043      -0.06160349
H       -0.08438434       2.14324209      -1.16682732
H        0.86841844       2.01909162       0.32611811
H       -1.69050479       1.27084109       0.68320479
H        0.08448834      -0.20275865      -1.48462222
H       -2.11847411      -1.03288268      -0.46695395
H       -0.84990024      -0.90321611       1.87479742
14
Frame=9 idx=007127 GeodesicLength=0.8260851064679169 rxn_smarts="[N:1](=[C:2]1\[O:3][C:4]([H:9])([H:10])[C@@:5]2([H:11])[C:6]([H:12])([H:13])[C@@:7]12[H:14])\[H:8]>>[N:1](=[C:2]1/[C@@:6]2([H:13])[C@:5]([C:4]([O:3][H:12])([H:9])[H:10])([H:11])[C@@:7]12[H:14])\[H:8]"
N        1.67655491      -1.81198324       0.58431567
C        0.78449172      -0.99857273       0.40502265
O        1.05905056       0.43461542      -0.99384758
C        0.28037326       1.46065765      -0.39118566
C       -0.89236057       0.70116097       0.22065822
C       -1.10226097      -0.61655260      -0.44421014
C       -0.44335058      -0.52734091       0.95727100
H        2.42221803      -1.93511158      -0.08535166
H       -0.08448711       2.14233638      -1.16731861
H        0.85934957       2.03652220       0.33162470
H       -1.70135578       1.26722874       0.66566073
H        0.08010092      -0.20262759      -1.49679898
H       -2.09192280      -1.05315742      -0.47258154
H       -0.84640116      -0.89717529       1.88674120
14
Frame=10 idx=007127 GeodesicLength=0.9182466151786421 rxn_smarts="[N:1](=[C:2]1\[O:3][C:4]([H:9])([H:10])[C@@:5]2([H:11])[C:6]([H:12])([H:13])[C@@:7]12[H:14])\[H:8]>>[N:1](=[C:2]1/[C@@:6]2([H:13])[C@:5]([C:4]([O:3][H:12])([H:9])[H:10])([H:11])[C@@:7]12[H:14])\[H:8]"
N        1.66753013      -1.81366617       0.58801444
C        0.78307108      -0.98753089       0.39611386
O        1.07057490       0.44331157      -0.98063452
C        0.28126738       1.46771535      -0.38520451
C       -0.88932248       0.70162233       0.22314866
C       -1.08108038      -0.62589171      -0.43345614
C       -0.43820503      -0.51601031       0.97207545
H        2.38494319      -1.96036867      -0.10858221
H       -0.08454472       2.14121367      -1.16790561
H        0.84999089       2.05406857       0.33693347
H       -1.71161943       1.26304271       0.64835619
H        0.07522765      -0.20301440      -1.50887771
H       -2.06495547      -1.07311094      -0.47815887
H       -0.84287770      -0.89138111       1.89817751
14
Frame=11 idx=007127 GeodesicLength=1.010524750771729 rxn_smarts="[N:1](=[C:2]1\[O:3][C:4]([H:9])([H:10])[C@@:5]2([H:11])[C:6]([H:12])([H:13])[C@@:7]12[H:14])\[H:8]>>[N:1](=[C:2]1/[C@@:6]2([H:13])[C@:5]([C:4]([O:3][H:12])([H:9])[H:10])([H:11])[C@@:7]12[H:14])\[H:8]"
N        1.65884207      -1.81503626       0.59117351
C        0.78200514      -0.97626853       0.38760804
O        1.08229719       0.45213385      -0.96720601
C        0.28217214       1.47473484      -0.37926059
C       -0.88610502       0.70202993       0.22582666
C       -1.06005320      -0.63472205      -0.42284060
C       -0.43305082      -0.50511029       0.98632313
H        2.34650604      -1.98518721      -0.13095735
H       -0.08451088       2.13986751      -1.16858478
H        0.84038849       2.07166841       0.34203269
H       -1.72125328       1.25835943       0.63133418
H        0.06973477      -0.20392854      -1.52091871
H       -2.03767955      -1.09268421      -0.48366167
H       -0.83929308      -0.88585687       1.90913152
14
Frame=12 idx=007127 GeodesicLength=1.1029168808854013 rxn_smarts="[N:1](=[C:2]1\[O:3][C:4]([H:9])([H:10])[C@@:5]2([H:11])[C:6]([H:12])([H:13])[C@@:7]12[H:14])\[H:8]>>[N:1](=[C:2]1/[C@@:6]2([H:13])[C@:5]([C:4]([O:3][H:12])([H:9])[H:10])([H:11])[C@@:7]12[H:14])\[H:8]"
N        1.65044020      -1.81619284       0.59375675
C        0.78123628      -0.96487179       0.37941418
O        1.09423363       0.46105163      -0.95353881
C        0.28311337       1.48168367      -0.37335197
C       -0.88270137       0.70238937       0.22868800
C       -1.03922573      -0.64305749      -0.41237720
C       -0.42790570      -0.49465158       1.00002732
H        2.30709012      -2.00925924      -0.15237623
H       -0.08433365       2.13826125      -1.16935786
H        0.83057575       2.08926612       0.34692282
H       -1.73022854       1.25322680       0.61461297
H        0.06353475      -0.20541041      -1.53295052
H       -2.01017763      -1.11181105      -0.48908298
H       -0.83565148      -0.88062445       1.91961355
14
Frame=13 idx=007127 GeodesicLength=1.1954464300013106 rxn_smarts="[N:1](=[C:2]1\[O:3][C:4]([H:9])([H:10])[C@@:5]2([H:11])[C:6]([H:12])([H:13])[C@@:7]12[H:14])\[H:8]>>[N:1](=[C:2]1/[C@@:6]2([H:13])[C@:5]([C:4]([O:3][H:12])([H:9])[H:10])([H:11])[C@@:7]12[H:14])\[H:8]"
N        1.64232511      -1.81718992       0.59577135
C        0.78079844      -0.95332042       0.37153020
O        1.10646494       0.47014270      -0.93953337
C        0.28407612       1.48860410      -0.36746684
C       -0.87912935       0.70271118       0.23170939
C       -1.01854551      -0.65093549      -0.40206737
C       -0.42275110      -0.48459493       1.01323630
H        2.26655403      -2.03273482      -0.17296811
H       -0.08400602       2.13639613      -1.17025479
H        0.82045788       2.10694624       0.35162476
H       -1.73860202       1.24766098       0.59813349
H        0.05665757      -0.20746293      -1.54496712
H       -1.98237853      -1.13057189      -0.49442846
H       -0.83192156      -0.87565094       1.92968056
14
Frame=14 idx=007127 GeodesicLength=1.2880938218855602 rxn_smarts="[N:1](=[C:2]1\[O:3][C:4]([H:9])([H:10])[C@@:5]2([H:11])[C:6]([H:12])([H:13])[C@@:7]12[H:14])\[H:8]>>[N:1](=[C:2]1/[C@@:6]2([H:13])[C@:5]([C:4]([O:3][H:12])([H:9])[H:10])([H:11])[C@@:7]12[H:14])\[H:8]"
N        1.63440891      -1.81813032       0.59719514
C        0.78057501      -0.94176090       0.36379201
O        1.11896915       0.47933001      -0.92521133
C        0.28510206       1.49543461      -0.36161313
C       -0.87537932       0.70300251       0.23489706
C       -0.99812807      -0.65834672      -0.39193410
C       -0.41761787      -0.47498119       1.02593142
H        2.22536058      -2.05515853      -0.19248510
H       -0.08345639       2.13423665      -1.17126267
H        0.81012944       2.12458997       0.35612083
H       -1.74629938       1.24174545       0.58197680
H        0.04891937      -0.21012552      -1.55703151
H       -1.95446143      -1.14883839      -0.49968278
H       -0.82812209      -0.87099761       1.93930735
14
Frame=15 idx=007127 GeodesicLength=1.3808362152610718 rxn_smarts="[N:1](=[C:2]1\[O:3][C:4]([H:9])([H:10])[C@@:5]2([H:11])[C:6]([H:12])([H:13])[C@@:7]12[H:14])\[H:8]>>[N:1](=[C:2]1/[C@@:6]2([H:13])[C@:5]([C:4]([O:3][H:12])([H:9])[H:10])([H:11])[C@@:7]12[H:14])\[H:8]"
N        1.62659202      -1.81912425       0.59803405
C        0.78045462      -0.93032754       0.35606549
O        1.13174008       0.48854274      -0.91057553
C        0.28622933       1.50212564      -0.35579883
C       -0.87145048       0.70327538       0.23825416
C       -0.97808143      -0.66529053      -0.38199878
C       -0.41254037      -0.46584437       1.03810541
H        2.18401328      -2.07613987      -0.21076855
H       -0.08261321       2.13175259      -1.17238240
H        0.79966961       2.14210437       0.36039692
H       -1.75327003       1.23557425       0.56621492
H        0.04014789      -0.21343903      -1.56919802
H       -1.92660337      -1.16650029      -0.50483329
H       -0.82428793      -0.86670909       1.94848445
14
Frame=16 idx=007127 GeodesicLength=1.4736508198306555 rxn_smarts="[N:1](=[C:2]1\[O:3][C:4]([H:9])([H:10])[C@@:5]2([H:11])[C:6]([H:12])([H:13])[C@@:7]12[H:14])\[H:8]>>[N:1](=[C:2]1/[C@@:6]2([H:13])[C@:5]([C:4]([O:3][H:12])([H:9])[H:10])([H:11])[C@@:7]12[H:14])\[H:8]"
N        1.61877469      -1.82026229       0.59831573
C        0.78034356      -0.91912060       0.34825581
O        1.14479030       0.49772842      -0.89559149
C        0.28748910       1.50863847      -0.35002641
C       -0.86734596       0.70354073       0.24177720
C       -0.95849036      -0.67177510      -0.37227930
C       -0.40754767      -0.45720209       1.04975957
H        2.14296700      -2.09538816      -0.22776780
H       -0.08140959       2.12890540      -1.17362312
H        0.78913029       2.15942692       0.36444517
H       -1.75948560       1.22923233       0.55089368
H        0.03019442      -0.21744384      -1.58149937
H       -1.89895425      -1.18347753      -0.50986940
H       -0.82045591      -0.86280269       1.95720973
