14
Frame=0 idx=001431 GeodesicLength=0.0 rxn_smarts="[C:1]([C@@:2]([O:3][H:11])([C:4](=[O:5])[C:6]([H:12])([H:13])[H:14])[H:10])([H:7])([H:8])[H:9]>>[C:1]([C:2]([O:3][H:11])([H:10])[H:12])([H:7])([H:8])[H:9].[C:4](=[O:5])=[C:6]([H:13])[H:14]"
C        1.15840971      -1.16520020      -0.21564200
C        0.75924984       0.22414140       0.23823631
O        1.48930187       1.19037700      -0.38385318
C       -0.93682595       0.87311310       0.08862944
O       -0.87867180       2.08072362      -0.13558194
C       -1.92682883      -0.06137019       0.27790553
H        0.54161338      -1.93420497       0.25119526
H        2.19343016      -1.33917814       0.08187794
H        1.10121632      -1.26015882      -1.30152448
H        0.77225019       0.29554998       1.33179048
H        0.91562962       1.98882432      -0.36545962
H       -0.55529183      -0.02573440      -0.63810263
H       -2.97527264       0.20964350       0.23571644
H       -1.65821005      -1.07652626       0.53481250
14
Frame=1 idx=001431 GeodesicLength=0.12735787517355815 rxn_smarts="[C:1]([C@@:2]([O:3][H:11])([C:4](=[O:5])[C:6]([H:12])([H:13])[H:14])[H:10])([H:7])([H:8])[H:9]>>[C:1]([C:2]([O:3][H:11])([H:10])[H:12])([H:7])([H:8])[H:9].[C:4](=[O:5])=[C:6]([H:13])[H:14]"
C        1.17715056      -1.16734472      -0.21622558
C        0.76004679       0.21795353       0.23586496
O        1.48340355       1.18648918      -0.39657838
C       -0.94928534       0.88238543       0.08973496
O       -0.89241779       2.08882011      -0.12441695
C       -1.94497735      -0.04563689       0.28962943
H        0.57433875      -1.94114431       0.26156499
H        2.21837413      -1.32791163       0.06660168
H        1.10615879      -1.27000605      -1.30074391
H        0.79544923       0.29103799       1.32941793
H        0.92823905       1.99503112      -0.35087444
H       -0.56239793      -0.06771857      -0.62334334
H       -2.99077561       0.23072020       0.21452764
H       -1.70330685      -1.07267538       0.52484103
14
Frame=2 idx=001431 GeodesicLength=0.2547080199099291 rxn_smarts="[C:1]([C@@:2]([O:3][H:11])([C:4](=[O:5])[C:6]([H:12])([H:13])[H:14])[H:10])([H:7])([H:8])[H:9]>>[C:1]([C:2]([O:3][H:11])([H:10])[H:12])([H:7])([H:8])[H:9].[C:4](=[O:5])=[C:6]([H:13])[H:14]"
C        1.19640906      -1.16934090      -0.21711432
C        0.76063994       0.21138674       0.23357429
O        1.47670846       1.18241760      -0.40948103
C       -0.96208055       0.89189150       0.09052460
O       -0.90617762       2.09751764      -0.11101990
C       -1.96364393      -0.02965044       0.29979324
H        0.60900600      -1.94820621       0.27221882
H        2.24380113      -1.31571053       0.04996878
H        1.11074111      -1.28011215      -1.29992627
H        0.81902441       0.28640292       1.32664438
H        0.94134646       2.00047392      -0.33658187
H       -0.56969427      -0.11185932      -0.60590549
H       -3.00577096       0.25176831       0.19091482
H       -1.75030922      -1.06697909       0.51638996
14
Frame=3 idx=001431 GeodesicLength=0.38202688035811894 rxn_smarts="[C:1]([C@@:2]([O:3][H:11])([C:4](=[O:5])[C:6]([H:12])([H:13])[H:14])[H:10])([H:7])([H:8])[H:9]>>[C:1]([C:2]([O:3][H:11])([H:10])[H:12])([H:7])([H:8])[H:9].[C:4](=[O:5])=[C:6]([H:13])[H:14]"
C        1.21621452      -1.17115493      -0.21833088
C        0.76101249       0.20441492       0.23138640
O        1.46918166       1.17814302      -0.42251875
C       -0.97522617       0.90162626       0.09081298
O       -0.91992781       2.10679283      -0.09518984
C       -1.98292365      -0.01343199       0.30788073
H        0.64579536      -1.95534944       0.28313669
H        2.26967907      -1.30249502       0.03189628
H        1.11494002      -1.29048511      -1.29903589
H        0.84288904       0.28164108       1.32345493
H        0.95497625       2.00511663      -0.32265099
H       -0.57710823      -0.15836966      -0.58537643
H       -3.02029459       0.27297556       0.16507480
H       -1.79920794      -1.05942415       0.50945997
14
Frame=4 idx=001431 GeodesicLength=0.5092881498657171 rxn_smarts="[C:1]([C@@:2]([O:3][H:11])([C:4](=[O:5])[C:6]([H:12])([H:13])[H:14])[H:10])([H:7])([H:8])[H:9]>>[C:1]([C:2]([O:3][H:11])([H:10])[H:12])([H:7])([H:8])[H:9].[C:4](=[O:5])=[C:6]([H:13])[H:14]"
C        1.23656398      -1.17275250      -0.21990662
C        0.76117884       0.19702753       0.22933599
O        1.46078508       1.17364518      -0.43569432
C       -0.98872169       0.91161348       0.09050502
O       -0.93363657       2.11662611      -0.07661900
C       -2.00287139       0.00300345       0.31347654
H        0.68486736      -1.96249545       0.29432469
H        2.29594795      -1.28821237       0.01223192
H        1.11862423      -1.30114531      -1.29803099
H        0.86705521       0.27678270       1.31984698
H        0.96913925       2.00892737      -0.30921713
H       -0.58458389      -0.20743747      -0.56113913
H       -3.03437591       0.29444041       0.13685687
H       -1.84997245      -1.05002312       0.50402916
14
Frame=5 idx=001431 GeodesicLength=0.6364783897221575 rxn_smarts="[C:1]([C@@:2]([O:3][H:11])([C:4](=[O:5])[C:6]([H:12])([H:13])[H:14])[H:10])([H:7])([H:8])[H:9]>>[C:1]([C:2]([O:3][H:11])([H:10])[H:12])([H:7])([H:8])[H:9].[C:4](=[O:5])=[C:6]([H:13])[H:14]"
C        1.25740131      -1.17408610      -0.22188345
C        0.76118257       0.18923694       0.22747901
O        1.45146831       1.16891150      -0.44904392
C       -1.00253680       0.92190627       0.08958968
O       -0.94728155       2.12693563      -0.05500848
C       -2.02348431       0.01964205       0.31627386
H        0.72635294      -1.96952158       0.30580476
H        2.32249098      -1.27282105      -0.00926129
H        1.12151133      -1.31210436      -1.29685468
H        0.89163120       0.27188792       1.31582833
H        0.98385033       2.01188165      -0.29640368
H       -0.59207388      -0.25924986      -0.53232354
H       -3.04796489       0.31616537       0.10583559
H       -1.90254755      -1.03878438       0.49996782
14
Frame=6 idx=001431 GeodesicLength=0.7635726680148587 rxn_smarts="[C:1]([C@@:2]([O:3][H:11])([C:4](=[O:5])[C:6]([H:12])([H:13])[H:14])[H:10])([H:7])([H:8])[H:9]>>[C:1]([C:2]([O:3][H:11])([H:10])[H:12])([H:7])([H:8])[H:9].[C:4](=[O:5])=[C:6]([H:13])[H:14]"
C        1.27862036      -1.17511696      -0.22431963
C        0.76111053       0.18108426       0.22591625
O        1.44119127       1.16394019      -0.46260742
C       -1.01664215       0.93258351       0.08824788
O       -0.96081113       2.13766105      -0.02990512
C       -2.04473614       0.03643304       0.31594355
H        0.77037324      -1.97626682       0.31763989
H        2.34915288      -1.25633682      -0.03298585
H        1.12313523      -1.32340184      -1.29541980
H        0.91684941       0.26705972       1.31143324
H        0.99908641       2.01397790      -0.28448073
H       -0.59949624      -0.31386905      -0.49776783
H       -3.06091902       0.33798972       0.07114931
H       -1.95691466      -1.02573790       0.49715624
14
Frame=7 idx=001431 GeodesicLength=0.8903096057791959 rxn_smarts="[C:1]([C@@:2]([O:3][H:11])([C:4](=[O:5])[C:6]([H:12])([H:13])[H:14])[H:10])([H:7])([H:8])[H:9]>>[C:1]([C:2]([O:3][H:11])([H:10])[H:12])([H:7])([H:8])[H:9].[C:4](=[O:5])=[C:6]([H:13])[H:14]"
C        1.29996640      -1.17576559      -0.22724884
C        0.76105837       0.17264417       0.22479315
O        1.42983391       1.15873716      -0.47647040
C       -1.03087845       0.94373453       0.08681646
O       -0.97426300       2.14860639      -0.00103200
C       -2.06642406       0.05323270       0.31208221
H        0.81694738      -1.98247860       0.32996059
H        2.37557851      -1.23876282      -0.05942633
H        1.12275375      -1.33504171      -1.29353658
H        0.94303818       0.26241806       1.30668091
H        1.01481494       2.01521443      -0.27365547
H       -0.60673655      -0.37128131      -0.45594966
H       -3.07280550       0.35972488       0.03202238
H       -2.01288386      -1.01098229       0.49496358
14
Frame=8 idx=001431 GeodesicLength=1.0167875332711382 rxn_smarts="[C:1]([C@@:2]([O:3][H:11])([C:4](=[O:5])[C:6]([H:12])([H:13])[H:14])[H:10])([H:7])([H:8])[H:9]>>[C:1]([C:2]([O:3][H:11])([H:10])[H:12])([H:7])([H:8])[H:9].[C:4](=[O:5])=[C:6]([H:13])[H:14]"
C        1.32123121      -1.17601856      -0.23073343
C        0.76122582       0.16404414       0.22433919
O        1.41735135       1.15332694      -0.49067691
C       -1.04520522       0.95547408       0.08593167
O       -0.98767923       2.15965721       0.03193404
C       -2.08842237       0.06979550       0.30406522
H        0.86623939      -1.98790804       0.34293048
H        2.40151166      -1.22023280      -0.08931585
H        1.11946295      -1.34717792      -1.29096751
H        0.97074942       0.25821049       1.30166539
H        1.03096286       2.01565877      -0.26428480
H       -0.61355451      -0.43129599      -0.40494365
H       -3.08332165       0.38119944      -0.01242634
H       -2.07055168      -0.99473327       0.49248249
14
Frame=9 idx=001431 GeodesicLength=1.1428138845122289 rxn_smarts="[C:1]([C@@:2]([O:3][H:11])([C:4](=[O:5])[C:6]([H:12])([H:13])[H:14])[H:10])([H:7])([H:8])[H:9]>>[C:1]([C:2]([O:3][H:11])([H:10])[H:12])([H:7])([H:8])[H:9].[C:4](=[O:5])=[C:6]([H:13])[H:14]"
C        1.34193776      -1.17578623      -0.23479611
C        0.76182569       0.15547373       0.22490356
O        1.40352361       1.14776813      -0.50530736
C       -1.05943683       0.96789223       0.08675504
O       -1.00109009       2.17045119       0.06921771
C       -2.11029053       0.08568769       0.29116685
H        0.91836508      -1.99222376       0.35683159
H        2.42627890      -1.20084117      -0.12369319
H        1.11178650      -1.35983329      -1.28721603
H        1.00075229       0.25469751       1.29645510
H        1.04726269       2.01537839      -0.25691595
H       -0.61953726      -0.49361947      -0.34203093
H       -3.09150718       0.40223545      -0.06328485
H       -2.12987065      -0.97728040       0.48791458
14
Frame=10 idx=001431 GeodesicLength=1.2686971625525225 rxn_smarts="[C:1]([C@@:2]([O:3][H:11])([C:4](=[O:5])[C:6]([H:12])([H:13])[H:14])[H:10])([H:7])([H:8])[H:9]>>[C:1]([C:2]([O:3][H:11])([H:10])[H:12])([H:7])([H:8])[H:9].[C:4](=[O:5])=[C:6]([H:13])[H:14]"
C        1.36147027      -1.17511509      -0.23950385
C        0.76322610       0.14723537       0.22695894
O        1.38799266       1.14215153      -0.52064416
C       -1.07340437       0.98118845       0.09108587
O       -1.01475209       2.18095596       0.11160137
C       -2.13150540       0.10033649       0.27214674
H        0.97361546      -1.99509916       0.37209607
H        2.44908902      -1.18088318      -0.16415701
H        1.09753301      -1.37340205      -1.28155356
H        1.03443488       0.25243521       1.29109606
H        1.06338577       2.01462966      -0.25218480
H       -0.62414954      -0.55780315      -0.26324623
H       -3.09624997       0.42260562      -0.12248453
H       -2.19068581      -0.95923567       0.47878908
14
Frame=11 idx=001431 GeodesicLength=1.3929785912336796 rxn_smarts="[C:1]([C@@:2]([O:3][H:11])([C:4](=[O:5])[C:6]([H:12])([H:13])[H:14])[H:10])([H:7])([H:8])[H:9]>>[C:1]([C:2]([O:3][H:11])([H:10])[H:12])([H:7])([H:8])[H:9].[C:4](=[O:5])=[C:6]([H:13])[H:14]"
C        1.37846661      -1.17394303      -0.24489065
C        0.76573571       0.13980090       0.23112160
O        1.36992547       1.13629132      -0.53734719
C       -1.08675762       0.99553319       0.10173748
O       -1.02899150       2.19152085       0.16130922
C       -2.15042241       0.11250610       0.24481323
H        1.03173472      -1.99552034       0.38940585
H        2.46807779      -1.16096853      -0.21304810
H        1.07324093      -1.38835273      -1.27252876
H        1.07363524       0.25231388       1.28530518
H        1.07859275       2.01336425      -0.25136308
H       -0.62659211      -0.62216102      -0.16254712
H       -3.09479359       0.44149474      -0.19323928
H       -2.25185201      -0.94187958       0.46127162
14
Frame=12 idx=001431 GeodesicLength=1.5169140124034568 rxn_smarts="[C:1]([C@@:2]([O:3][H:11])([C:4](=[O:5])[C:6]([H:12])([H:13])[H:14])[H:10])([H:7])([H:8])[H:9]>>[C:1]([C:2]([O:3][H:11])([H:10])[H:12])([H:7])([H:8])[H:9].[C:4](=[O:5])=[C:6]([H:13])[H:14]"
C        1.39093425      -1.17279990      -0.25090448
C        0.76986418       0.13410936       0.23843426
O        1.34830226       1.13059965      -0.55572301
C       -1.09963244       1.01177945       0.12151744
O       -1.04451492       2.20289230       0.22022845
C       -2.16434159       0.12050383       0.20662861
H        1.09255755      -1.99322122       0.40940815
H        2.48050667      -1.14265919      -0.27333212
H        1.03357113      -1.40589379      -1.25792410
H        1.12129275       0.25591470       1.27896713
H        1.09164551       2.01255211      -0.25575507
H       -0.62534988      -0.68419751      -0.03174604
H       -3.08416768       0.45837918      -0.27736680
H       -2.31066777      -0.92795896       0.42756758
14
Frame=13 idx=001431 GeodesicLength=1.6403233828585098 rxn_smarts="[C:1]([C@@:2]([O:3][H:11])([C:4](=[O:5])[C:6]([H:12])([H:13])[H:14])[H:10])([H:7])([H:8])[H:9]>>[C:1]([C:2]([O:3][H:11])([H:10])[H:12])([H:7])([H:8])[H:9].[C:4](=[O:5])=[C:6]([H:13])[H:14]"
C        1.39428928      -1.17127360      -0.25701123
C        0.77490779       0.13079588       0.24979909
O        1.32373324       1.12533409      -0.57387724
C       -1.11216247       1.03047164       0.14891904
O       -1.06223863       2.21376300       0.28637852
C       -2.16658284       0.12208804       0.15568195
H        1.15177048      -1.98765412       0.43158988
H        2.47981161      -1.12750242      -0.34599989
H        0.97344483      -1.42324323      -1.23447798
H        1.17656687       0.26266057       1.27149158
H        1.10116417       2.01228860      -0.26597679
H       -0.61849166      -0.73868707       0.13289132
H       -3.05958369       0.47127266      -0.36984336
H       -2.35662898      -0.92031404       0.37043512
14
Frame=14 idx=001431 GeodesicLength=1.761344197952511 rxn_smarts="[C:1]([C@@:2]([O:3][H:11])([C:4](=[O:5])[C:6]([H:12])([H:13])[H:14])[H:10])([H:7])([H:8])[H:9]>>[C:1]([C:2]([O:3][H:11])([H:10])[H:12])([H:7])([H:8])[H:9].[C:4](=[O:5])=[C:6]([H:13])[H:14]"
C        1.38914836      -1.17053489      -0.26185069
C        0.77762427       0.12934742       0.26330334
O        1.30160978       1.12074944      -0.58613133
C       -1.12574771       1.05412153       0.16667449
O       -1.08338113       2.22884281       0.34350144
C       -2.15375680       0.11679967       0.10323423
H        1.19870569      -1.98030345       0.45070349
H        2.46665877      -1.11897492      -0.41638814
H        0.90609090      -1.43973489      -1.20556021
H        1.22803066       0.26960346       1.26431125
H        1.11207838       2.01241375      -0.27413037
H       -0.60820253      -0.77607705       0.29452356
H       -3.03350854       0.47746824      -0.43881207
H       -2.37535009      -0.92372113       0.29662103
14
Frame=15 idx=001431 GeodesicLength=1.8833723064316472 rxn_smarts="[C:1]([C@@:2]([O:3][H:11])([C:4](=[O:5])[C:6]([H:12])([H:13])[H:14])[H:10])([H:7])([H:8])[H:9]>>[C:1]([C:2]([O:3][H:11])([H:10])[H:12])([H:7])([H:8])[H:9].[C:4](=[O:5])=[C:6]([H:13])[H:14]"
C        1.38161228      -1.16980978      -0.26613042
C        0.77741075       0.12737933       0.27643841
O        1.28909932       1.11750971      -0.58801512
C       -1.14056503       1.08178072       0.15945763
O       -1.10824818       2.24503829       0.38010218
C       -2.13201082       0.10876233       0.05207751
H        1.23173243      -1.97492737       0.46155689
H        2.44979493      -1.11442129      -0.47305822
H        0.84922940      -1.44943287      -1.17976597
H        1.26600214       0.27035676       1.25980743
H        1.12932521       2.01275202      -0.27400088
H       -0.59793972      -0.80337995       0.42591390
H       -3.02090091       0.47678297      -0.47101699
H       -2.37454182      -0.92839086       0.23663364
14
Frame=16 idx=001431 GeodesicLength=2.006025451097587 rxn_smarts="[C:1]([C@@:2]([O:3][H:11])([C:4](=[O:5])[C:6]([H:12])([H:13])[H:14])[H:10])([H:7])([H:8])[H:9]>>[C:1]([C:2]([O:3][H:11])([H:10])[H:12])([H:7])([H:8])[H:9].[C:4](=[O:5])=[C:6]([H:13])[H:14]"
C        1.37400062      -1.16898425      -0.27092235
C        0.77537808       0.12483852       0.28893215
O        1.28345895       1.11603542      -0.58284758
C       -1.15609405       1.11245335       0.13352938
O       -1.13578150       2.26159850       0.40344287
C       -2.10612215       0.09989105       0.00165030
H        1.25566324      -1.97186612       0.46541133
H        2.43301763      -1.11144355      -0.51920420
H        0.80221287      -1.45432429      -1.15880397
H        1.29479772       0.26594348       1.25771766
H        1.15247135       2.01361962      -0.26630025
H       -0.58871001      -0.82594186       0.53262724
H       -3.01713767       0.46883520      -0.48342620
H       -2.36715508      -0.93065505       0.19819361
