14
Frame=0 idx=009161 GeodesicLength=0.0 rxn_smarts="[C:1]([n:2]1[c:3]([H:11])[c:4]([H:12])[c:5]([H:13])[c:6]1[O:7][H:14])([H:8])([H:9])[H:10]>>[C:1](/[N:2]=[C:6](/[C:5](=[C:4]=[C:3]([H:11])[H:12])[H:13])[O:7][H:14])([H:8])([H:9])[H:10]"
C       -2.13369568       0.67066350       0.68362385
N       -0.92125819      -0.03045602       0.31809340
C        0.88820737      -2.45913812      -0.98824075
C        1.36567358      -1.26939938      -0.63114925
C        1.37644504       0.02737358      -0.33139100
C        0.11701281       0.64740575       0.09295055
O        0.13448148       2.00383690       0.22674828
H       -2.41027756       1.42740087      -0.05751953
H       -2.02916995       1.18211075       1.64603287
H       -2.94782310      -0.04822713       0.76689827
H        0.99279476      -3.25358877      -0.24147113
H        2.29837111      -1.85274546      -1.04418080
H        2.29324898       0.59824820      -0.37181938
H        0.97598932       2.35651534      -0.06857544
14
Frame=1 idx=009161 GeodesicLength=0.10271146533761477 rxn_smarts="[C:1]([n:2]1[c:3]([H:11])[c:4]([H:12])[c:5]([H:13])[c:6]1[O:7][H:14])([H:8])([H:9])[H:10]>>[C:1](/[N:2]=[C:6](/[C:5](=[C:4]=[C:3]([H:11])[H:12])[H:13])[O:7][H:14])([H:8])([H:9])[H:10]"
C       -2.11776856       0.64192410       0.67377467
N       -0.88890466      -0.03663904       0.32030844
C        0.82399997      -2.39984682      -0.95020648
C        1.38858505      -1.25030205      -0.59513344
C        1.40547130       0.05056312      -0.30908334
C        0.14591037       0.66045440       0.12163371
O        0.13277960       2.01870518       0.22814609
H       -2.40176598       1.38976102      -0.07340316
H       -2.03258258       1.15934454       1.63474402
H       -2.91817373      -0.09260524       0.75296946
H        0.91592114      -3.25442295      -0.27420690
H        2.27405398      -1.90526793      -1.03423927
H        2.30807502       0.63511976      -0.41469750
H        0.96439908       2.38321192      -0.08060629
14
Frame=2 idx=009161 GeodesicLength=0.20633429335696893 rxn_smarts="[C:1]([n:2]1[c:3]([H:11])[c:4]([H:12])[c:5]([H:13])[c:6]1[O:7][H:14])([H:8])([H:9])[H:10]>>[C:1](/[N:2]=[C:6](/[C:5](=[C:4]=[C:3]([H:11])[H:12])[H:13])[O:7][H:14])([H:8])([H:9])[H:10]"
C       -2.10135803       0.61376925       0.66295304
N       -0.85303304      -0.04351490       0.33839223
C        0.76208779      -2.34339404      -0.90332739
C        1.40531240      -1.22856093      -0.57900755
C        1.43302853       0.07192115      -0.28649153
C        0.17652318       0.67232396       0.15908016
O        0.13092371       2.03189819       0.22698404
H       -2.38911030       1.34259955      -0.10120559
H       -2.04272878       1.14875365       1.61610861
H       -2.88674618      -0.13670279       0.74244845
H        0.85026568      -3.24869560      -0.29998539
H        2.23625619      -1.95098614      -1.04768917
H        2.32385543       0.66430117      -0.43748344
H        0.95472342       2.40628749      -0.09077647
14
Frame=3 idx=009161 GeodesicLength=0.3088313496552129 rxn_smarts="[C:1]([n:2]1[c:3]([H:11])[c:4]([H:12])[c:5]([H:13])[c:6]1[O:7][H:14])([H:8])([H:9])[H:10]>>[C:1](/[N:2]=[C:6](/[C:5](=[C:4]=[C:3]([H:11])[H:12])[H:13])[O:7][H:14])([H:8])([H:9])[H:10]"
C       -2.08397241       0.58515478       0.65720567
N       -0.82268664      -0.04913032       0.33660576
C        0.71654557      -2.28463413      -0.87253949
C        1.42453085      -1.20715971      -0.56461840
C        1.46004684       0.09323882      -0.26596077
C        0.20061198       0.68553150       0.17528234
O        0.12713236       2.04441642       0.22009207
H       -2.38288811       1.30569636      -0.11036282
H       -2.03876289       1.12440924       1.60853729
H       -2.85502257      -0.17991734       0.73728579
H        0.76182913      -3.23479905      -0.34120776
H        2.21433927      -2.00523936      -1.01070784
H        2.33760493       0.69349932      -0.45790576
H        0.94069167       2.42893347      -0.11170606
14
Frame=4 idx=009161 GeodesicLength=0.411639007323142 rxn_smarts="[C:1]([n:2]1[c:3]([H:11])[c:4]([H:12])[c:5]([H:13])[c:6]1[O:7][H:14])([H:8])([H:9])[H:10]>>[C:1](/[N:2]=[C:6](/[C:5](=[C:4]=[C:3]([H:11])[H:12])[H:13])[O:7][H:14])([H:8])([H:9])[H:10]"
C       -2.06702670       0.55799969       0.65075715
N       -0.79203919      -0.05451646       0.34192347
C        0.67354294      -2.23122275      -0.82965492
C        1.43946431      -1.18486224      -0.56287414
C        1.48470312       0.11292088      -0.24735789
C        0.22383786       0.69828908       0.19198958
O        0.12317112       2.05567358       0.21126617
H       -2.37509143       1.26537261      -0.12522738
H       -2.03795677       1.10687908       1.59704381
H       -2.82353802      -0.22105291       0.73392559
H        0.68698735      -3.21993947      -0.37694395
H        2.18118488      -2.05236216      -0.99342341
H        2.35360287       0.71787353      -0.46277507
H        0.92915767       2.44894754      -0.12864902
14
Frame=5 idx=009161 GeodesicLength=0.5139730817210098 rxn_smarts="[C:1]([n:2]1[c:3]([H:11])[c:4]([H:12])[c:5]([H:13])[c:6]1[O:7][H:14])([H:8])([H:9])[H:10]>>[C:1](/[N:2]=[C:6](/[C:5](=[C:4]=[C:3]([H:11])[H:12])[H:13])[O:7][H:14])([H:8])([H:9])[H:10]"
C       -2.05003772       0.53114635       0.64592914
N       -0.76442234      -0.05942471       0.33798830
C        0.63920615      -2.18089431      -0.78964700
C        1.45306481      -1.16182861      -0.57137147
C        1.50668155       0.13274795      -0.23702840
C        0.24395123       0.71090373       0.19918687
O        0.11901455       2.06605403       0.20286326
H       -2.36981338       1.23110955      -0.13188004
H       -2.03140590       1.08277340       1.59073539
H       -2.79276874      -0.26081096       0.73077206
H        0.60699685      -3.19960364      -0.41582054
H        2.15280274      -2.10239082      -0.95136159
H        2.36929420       0.74176675      -0.46619189
H        0.91743600       2.46845127      -0.14417408
14
Frame=6 idx=009161 GeodesicLength=0.6157611541069414 rxn_smarts="[C:1]([n:2]1[c:3]([H:11])[c:4]([H:12])[c:5]([H:13])[c:6]1[O:7][H:14])([H:8])([H:9])[H:10]>>[C:1](/[N:2]=[C:6](/[C:5](=[C:4]=[C:3]([H:11])[H:12])[H:13])[O:7][H:14])([H:8])([H:9])[H:10]"
C       -2.03324794       0.50505793       0.64151701
N       -0.73872202      -0.06411955       0.33019803
C        0.61067884      -2.13540542      -0.74562489
C        1.46339638      -1.13820862      -0.59280293
C        1.52555340       0.15181429      -0.23501733
C        0.26219853       0.72277518       0.20116060
O        0.11530428       2.07537995       0.19608091
H       -2.36531163       1.20038069      -0.13514848
H       -2.02238847       1.05618628       1.58658796
H       -2.76291959      -0.29881613       0.72692106
H        0.52914517      -3.17652422      -0.45576697
H        2.12431907      -2.14985268      -0.89483656
H        2.38474087       0.76415834      -0.46851031
H        0.90725311       2.48717398      -0.15475810
14
Frame=7 idx=009161 GeodesicLength=0.7164328785523651 rxn_smarts="[C:1]([n:2]1[c:3]([H:11])[c:4]([H:12])[c:5]([H:13])[c:6]1[O:7][H:14])([H:8])([H:9])[H:10]>>[C:1](/[N:2]=[C:6](/[C:5](=[C:4]=[C:3]([H:11])[H:12])[H:13])[O:7][H:14])([H:8])([H:9])[H:10]"
C       -2.01652437       0.47975730       0.63835172
N       -0.71476929      -0.06863341       0.31947526
C        0.58807321      -2.09373451      -0.69883843
C        1.47265741      -1.11760914      -0.61480417
C        1.54140266       0.17004614      -0.24118858
C        0.27872359       0.73394950       0.19813497
O        0.11154532       2.08383719       0.18886372
H       -2.36199230       1.17221874      -0.13485921
H       -2.01045597       1.02831119       1.58481849
H       -2.73365760      -0.33519226       0.72433684
H        0.45082194      -3.15051651      -0.51118705
H        2.09758700      -2.19307286      -0.81429548
H        2.39777381       0.78519595      -0.47795871
H        0.89881457       2.50544267      -0.16084935
14
Frame=8 idx=009161 GeodesicLength=0.8156224464957564 rxn_smarts="[C:1]([n:2]1[c:3]([H:11])[c:4]([H:12])[c:5]([H:13])[c:6]1[O:7][H:14])([H:8])([H:9])[H:10]>>[C:1](/[N:2]=[C:6](/[C:5](=[C:4]=[C:3]([H:11])[H:12])[H:13])[O:7][H:14])([H:8])([H:9])[H:10]"
C       -2.00092371       0.45624996       0.63474868
N       -0.69382930      -0.07250625       0.30437433
C        0.57194518      -2.05910017      -0.63841224
C        1.48228571      -1.10391195      -0.62636801
C        1.55373730       0.18701463      -0.25541782
C        0.29323156       0.74405658       0.19056881
O        0.10859688       2.09133072       0.18429516
H       -2.35973403       1.14925581      -0.13171447
H       -1.99688257       0.99852718       1.58469189
H       -2.70684500      -0.36851888       0.71919661
H        0.37708825      -3.12037417      -0.57915472
H        2.07194755      -2.22963953      -0.72723996
H        2.40608990       0.80429808      -0.50113690
H        0.89329228       2.52331800      -0.15843136
14
Frame=9 idx=009161 GeodesicLength=0.9130367365492289 rxn_smarts="[C:1]([n:2]1[c:3]([H:11])[c:4]([H:12])[c:5]([H:13])[c:6]1[O:7][H:14])([H:8])([H:9])[H:10]>>[C:1](/[N:2]=[C:6](/[C:5](=[C:4]=[C:3]([H:11])[H:12])[H:13])[O:7][H:14])([H:8])([H:9])[H:10]"
C       -1.98691642       0.43425056       0.63034515
N       -0.67713484      -0.07620562       0.28190656
C        0.56201029      -2.03186406      -0.56551288
C        1.49104044      -1.09666750      -0.63071019
C        1.56285243       0.20131124      -0.27529401
C        0.30518863       0.75224083       0.17780996
O        0.10657427       2.09716068       0.18159438
H       -2.35950291       1.13261576      -0.12443756
H       -1.98063598       0.96510682       1.58656795
H       -2.68340641      -0.39883552       0.71070309
H        0.30928602      -3.07805716      -0.65093244
H        2.04917041      -2.26037975      -0.63974681
H        2.41046495       0.81983456      -0.53401996
H        0.89100913       2.53948915      -0.14827323
14
Frame=10 idx=009161 GeodesicLength=1.0115764933776403 rxn_smarts="[C:1]([n:2]1[c:3]([H:11])[c:4]([H:12])[c:5]([H:13])[c:6]1[O:7][H:14])([H:8])([H:9])[H:10]>>[C:1](/[N:2]=[C:6](/[C:5](=[C:4]=[C:3]([H:11])[H:12])[H:13])[O:7][H:14])([H:8])([H:9])[H:10]"
C       -1.97356186       0.41175702       0.62439647
N       -0.66179736      -0.08096475       0.25803781
C        0.55543997      -2.00723901      -0.49301493
C        1.49918842      -1.09372222      -0.63121223
C        1.57045976       0.21289800      -0.29805558
C        0.31673882       0.75801286       0.16457271
O        0.10590336       2.10060537       0.18208621
H       -2.35875933       1.11683229      -0.11755304
H       -1.96469292       0.92945873       1.58763450
H       -2.66149056      -0.42889858       0.69873517
H        0.24240320      -3.01693059      -0.71118878
H        2.02745020      -2.28720991      -0.55771688
H        2.41184958       0.83235658      -0.57431075
H        0.89086872       2.55304422      -0.13241066
14
Frame=11 idx=009161 GeodesicLength=1.1118501680926052 rxn_smarts="[C:1]([n:2]1[c:3]([H:11])[c:4]([H:12])[c:5]([H:13])[c:6]1[O:7][H:14])([H:8])([H:9])[H:10]>>[C:1](/[N:2]=[C:6](/[C:5](=[C:4]=[C:3]([H:11])[H:12])[H:13])[O:7][H:14])([H:8])([H:9])[H:10]"
C       -1.95999304       0.38852436       0.61886546
N       -0.64598876      -0.08707659       0.23794289
C        0.54704317      -1.98079375      -0.43782849
C        1.50756227      -1.09284868      -0.62845560
C        1.57814324       0.22213024      -0.31852525
C        0.32859248       0.76212246       0.15312552
O        0.10557857       2.10220715       0.18190175
H       -2.35693952       1.09788533      -0.11256062
H       -1.94963678       0.89572702       1.58751592
H       -2.63927493      -0.45945385       0.68852384
H        0.17942734      -2.94273503      -0.76161673
H        2.00231373      -2.31177030      -0.47628348
H        2.41264226       0.84218977      -0.61378885
H        0.89052998       2.56389186      -0.11881635
14
Frame=12 idx=009161 GeodesicLength=1.2135524689995922 rxn_smarts="[C:1]([n:2]1[c:3]([H:11])[c:4]([H:12])[c:5]([H:13])[c:6]1[O:7][H:14])([H:8])([H:9])[H:10]>>[C:1](/[N:2]=[C:6](/[C:5](=[C:4]=[C:3]([H:11])[H:12])[H:13])[O:7][H:14])([H:8])([H:9])[H:10]"
C       -1.94544266       0.36466435       0.61686021
N       -0.62761023      -0.09462841       0.22901583
C        0.53429343      -1.95107509      -0.40505496
C        1.51718533      -1.09218915      -0.62171000
C        1.58843155       0.22908910      -0.32810817
C        0.34143570       0.76569270       0.14615476
O        0.10389787       2.10296288       0.17531268
H       -2.35375966       1.07068286      -0.11136514
H       -1.93667743       0.87013601       1.58628683
H       -2.61449832      -0.49123053       0.68784509
H        0.12012971      -2.85997536      -0.81530827
H        1.96974117      -2.33555902      -0.39885422
H        2.41832215       0.84902813      -0.63654410
H        0.88455138       2.57240154      -0.12453055
14
Frame=13 idx=009161 GeodesicLength=1.316086641115069 rxn_smarts="[C:1]([n:2]1[c:3]([H:11])[c:4]([H:12])[c:5]([H:13])[c:6]1[O:7][H:14])([H:8])([H:9])[H:10]>>[C:1](/[N:2]=[C:6](/[C:5](=[C:4]=[C:3]([H:11])[H:12])[H:13])[O:7][H:14])([H:8])([H:9])[H:10]"
C       -1.93055193       0.34098487       0.61726987
N       -0.60818529      -0.10277059       0.22666438
C        0.51918582      -1.92042488      -0.38542066
C        1.52742630      -1.09201209      -0.61167223
C        1.60022842       0.23441493      -0.33037964
C        0.35453838       0.76892451       0.14167305
O        0.10144247       2.10315861       0.16523361
H       -2.34984536       1.03936182      -0.11191407
H       -1.92502259       0.84968194       1.58488590
H       -2.58855226      -0.52296551       0.69308439
H        0.06707303      -2.77249612      -0.87148348
H        1.93068027      -2.35882527      -0.32589966
H        2.42699893       0.85368281      -0.64868861
H        0.87458380       2.57928497      -0.14335283
14
Frame=14 idx=009161 GeodesicLength=1.4192342906989044 rxn_smarts="[C:1]([n:2]1[c:3]([H:11])[c:4]([H:12])[c:5]([H:13])[c:6]1[O:7][H:14])([H:8])([H:9])[H:10]>>[C:1](/[N:2]=[C:6](/[C:5](=[C:4]=[C:3]([H:11])[H:12])[H:13])[O:7][H:14])([H:8])([H:9])[H:10]"
C       -1.91558188       0.31769645       0.61952128
N       -0.58826742      -0.11119979       0.22905579
C        0.50283447      -1.88966096      -0.37427899
C        1.53792106      -1.09246290      -0.59862940
C        1.61289980       0.23849513      -0.32751313
C        0.36757253       0.77191296       0.13864351
O        0.09824862       2.10283497       0.15210179
H       -2.34549154       1.00513939      -0.11368565
H       -1.91445495       0.83332448       1.58332885
H       -2.56190506      -0.55426919       0.70295788
H        0.02109054      -2.68133773      -0.92987409
H        1.88560124      -2.38172347      -0.25704455
H        2.43729589       0.85664237      -0.65441762
H        0.86223670       2.58460829      -0.17016568
14
Frame=15 idx=009161 GeodesicLength=1.5232313469723795 rxn_smarts="[C:1]([n:2]1[c:3]([H:11])[c:4]([H:12])[c:5]([H:13])[c:6]1[O:7][H:14])([H:8])([H:9])[H:10]>>[C:1](/[N:2]=[C:6](/[C:5](=[C:4]=[C:3]([H:11])[H:12])[H:13])[O:7][H:14])([H:8])([H:9])[H:10]"
C       -1.90040112       0.29455828       0.62389767
N       -0.56742440      -0.12000463       0.23731578
C        0.48566055      -1.85851514      -0.37038506
C        1.54855646      -1.09333511      -0.58299540
C        1.62656871       0.24146567      -0.31923518
C        0.38061111       0.77476271       0.13714648
O        0.09383477       2.10184453       0.13436874
H       -2.34057624       0.96658538      -0.11728918
H       -1.90541695       0.82194280       1.58115809
H       -2.53405017      -0.58545095       0.71872420
H       -0.01885101      -2.58521556      -0.99145721
H        1.83413958      -2.40463633      -0.19376803
H        2.44980699       0.85806045      -0.65236745
H        0.84754172       2.58793790      -0.20511345
14
Frame=16 idx=009161 GeodesicLength=1.6276992970912385 rxn_smarts="[C:1]([n:2]1[c:3]([H:11])[c:4]([H:12])[c:5]([H:13])[c:6]1[O:7][H:14])([H:8])([H:9])[H:10]>>[C:1](/[N:2]=[C:6](/[C:5](=[C:4]=[C:3]([H:11])[H:12])[H:13])[O:7][H:14])([H:8])([H:9])[H:10]"
C       -1.88535801       0.27183727       0.62938438
N       -0.54691882      -0.12872897       0.24702822
C        0.46839040      -1.82743900      -0.37113793
C        1.55902227      -1.09495578      -0.56510559
C        1.64023968       0.24367569      -0.30885558
C        0.39309852       0.77739058       0.13539498
O        0.08876703       2.10013886       0.11409478
H       -2.33573975       0.92685036      -0.12067242
H       -1.89663045       0.81242870       1.57904088
H       -2.50603551      -0.61582425       0.73726783
H       -0.05086436      -2.48656645      -1.05314669
H        1.77689581      -2.42669827      -0.13306150
H        2.46261037       0.85834048      -0.64811814
H        0.83252283       2.58955079      -0.24211323
