13
Frame=0 idx=001010 GeodesicLength=0.0 rxn_smarts="[O:1]([C:2]([C:3]([O:4]/[C:5](=[N:6]/[H:13])[H:12])([H:10])[H:11])([H:8])[H:9])[H:7]>>[C:5](#[N:6])[H:12].[H:11][H:13].[O:1]([C:2]([C:3](=[O:4])[H:10])([H:8])[H:9])[H:7]"
O       -1.73172311       0.28963394       0.84382116
C       -1.28693980      -0.90538895       0.27069164
C        0.19612455      -0.82796961      -0.07146012
O        0.94797768      -0.20963095       0.73465398
C        1.65084205       1.55789282      -0.02281171
N        1.25571373       1.78128464      -1.09529957
H       -1.01330280       0.59711415       1.40838943
H       -1.40210812      -1.75472106       0.96159474
H       -1.88992384      -1.11032003      -0.61502208
H        0.60458085      -1.70306185      -0.60178149
H        0.04510361      -0.09726359      -1.29683377
H        2.19016089       1.68553645       0.89032537
H        0.43349432       0.69689407      -1.40626760
13
Frame=1 idx=001010 GeodesicLength=0.11669672860356693 rxn_smarts="[O:1]([C:2]([C:3]([O:4]/[C:5](=[N:6]/[H:13])[H:12])([H:10])[H:11])([H:8])[H:9])[H:7]>>[C:5](#[N:6])[H:12].[H:11][H:13].[O:1]([C:2]([C:3](=[O:4])[H:10])([H:8])[H:9])[H:7]"
O       -1.75129726       0.28119777       0.82505819
C       -1.28582665      -0.91918346       0.28079081
C        0.19129638      -0.82324703      -0.07898041
O        0.94753084      -0.20166020       0.72610169
C        1.69162181       1.54019930      -0.02212485
N        1.27199081       1.81230242      -1.07645097
H       -1.03233904       0.62484040       1.36811983
H       -1.38527390      -1.75298451       0.99254717
H       -1.88727408      -1.15859728      -0.59773152
H        0.60667564      -1.70750110      -0.58803251
H        0.02483510      -0.08401611      -1.31558377
H        2.20701198       1.65045955       0.90772660
H        0.40104837       0.73819025      -1.42144026
13
Frame=2 idx=001010 GeodesicLength=0.23261815764239796 rxn_smarts="[O:1]([C:2]([C:3]([O:4]/[C:5](=[N:6]/[H:13])[H:12])([H:10])[H:11])([H:8])[H:9])[H:7]>>[C:5](#[N:6])[H:12].[H:11][H:13].[O:1]([C:2]([C:3](=[O:4])[H:10])([H:8])[H:9])[H:7]"
O       -1.76947361       0.27342768       0.80557843
C       -1.28404797      -0.93173038       0.29060901
C        0.18700796      -0.81970138      -0.08643682
O        0.94785959      -0.19468897       0.71733933
C        1.72423828       1.52591192      -0.01858290
N        1.28414952       1.84513980      -1.05384001
H       -1.05083867       0.65195972       1.32585910
H       -1.36923196      -1.74899513       1.02291641
H       -1.88312084      -1.20496010      -0.58008047
H        0.60881038      -1.71380654      -0.57227296
H        0.00566786      -0.07214292      -1.33484924
H        2.22820206       1.61150151       0.92090291
H        0.37077740       0.77808481      -1.43714279
13
Frame=3 idx=001010 GeodesicLength=0.34802944656795165 rxn_smarts="[O:1]([C:2]([C:3]([O:4]/[C:5](=[N:6]/[H:13])[H:12])([H:10])[H:11])([H:8])[H:9])[H:7]>>[C:5](#[N:6])[H:12].[H:11][H:13].[O:1]([C:2]([C:3](=[O:4])[H:10])([H:8])[H:9])[H:7]"
O       -1.78511251       0.26672609       0.78632343
C       -1.28149639      -0.94281096       0.30043165
C        0.18325316      -0.81773715      -0.09454153
O        0.94981149      -0.18978602       0.70734839
C        1.75147387       1.51344269      -0.01332423
N        1.29410325       1.87853461      -1.02849154
H       -1.06702759       0.67817782       1.28230536
H       -1.35375141      -1.74274958       1.05281224
H       -1.87824037      -1.24862929      -0.56142814
H        0.61015643      -1.72238235      -0.55568016
H       -0.01291080      -0.06170642      -1.35507666
H        2.24747394       1.57228450       0.93329695
H        0.34226694       0.81663605      -1.45397575
13
Frame=4 idx=001010 GeodesicLength=0.4631727522492424 rxn_smarts="[O:1]([C:2]([C:3]([O:4]/[C:5](=[N:6]/[H:13])[H:12])([H:10])[H:11])([H:8])[H:9])[H:7]>>[C:5](#[N:6])[H:12].[H:11][H:13].[O:1]([C:2]([C:3](=[O:4])[H:10])([H:8])[H:9])[H:7]"
O       -1.79906573       0.26056424       0.76726505
C       -1.27836614      -0.95277461       0.31023962
C        0.17988665      -0.81693179      -0.10308257
O        0.95279962      -0.18619647       0.69648057
C        1.77526801       1.50216388      -0.00708255
N        1.30281876       1.91218133      -1.00081610
H       -1.08195465       0.70316705       1.23771665
H       -1.33865564      -1.73473259       1.08215944
H       -1.87268957      -1.29021219      -0.54189732
H        0.61107593      -1.73245711      -0.53802410
H       -0.03126943      -0.05231076      -1.37605846
H        2.26552965       1.53288701       0.94472668
H        0.31462253       0.85465201      -1.47162690
13
Frame=5 idx=001010 GeodesicLength=0.5781586647547358 rxn_smarts="[O:1]([C:2]([C:3]([O:4]/[C:5](=[N:6]/[H:13])[H:12])([H:10])[H:11])([H:8])[H:9])[H:7]>>[C:5](#[N:6])[H:12].[H:11][H:13].[O:1]([C:2]([C:3](=[O:4])[H:10])([H:8])[H:9])[H:7]"
O       -1.81172773       0.25452402       0.74877333
C       -1.27474493      -0.96186826       0.32011138
C        0.17677027      -0.81703091      -0.11209922
O        0.95658242      -0.18361448       0.68473903
C        1.79695432       1.49153040      -0.00029567
N        1.31242609       1.94500299      -0.97204897
H       -1.09601967       0.72660847       1.19252468
H       -1.32366158      -1.72538481       1.11091069
H       -1.86664259      -1.32998393      -0.52141539
H        0.61163587      -1.74343355      -0.51962340
H       -0.04993084      -0.04346855      -1.39765213
H        2.28123174       1.49424225       0.95584220
H        0.28712664       0.89287636      -1.48976653
13
Frame=6 idx=001010 GeodesicLength=0.6930215545247134 rxn_smarts="[O:1]([C:2]([C:3]([O:4]/[C:5](=[N:6]/[H:13])[H:12])([H:10])[H:11])([H:8])[H:9])[H:7]>>[C:5](#[N:6])[H:12].[H:11][H:13].[O:1]([C:2]([C:3](=[O:4])[H:10])([H:8])[H:9])[H:7]"
O       -1.82370856       0.24844392       0.73030622
C       -1.27076024      -0.97024181       0.32991584
C        0.17389160      -0.81783178      -0.12124885
O        0.96069729      -0.18143214       0.67256867
C        1.81699816       1.48149147       0.00682553
N        1.32191058       1.97771571      -0.94147675
H       -1.11010163       0.74850844       1.14656770
H       -1.30889262      -1.71476079       1.13906195
H       -1.85990466      -1.36842367      -0.50025283
H        0.61223201      -1.75491926      -0.49988577
H       -0.06875234      -0.03529240      -1.41975194
H        2.29689869       1.45523774       0.96565151
H        0.25949171       0.93150457      -1.50828129
13
Frame=7 idx=001010 GeodesicLength=0.8077895393617864 rxn_smarts="[O:1]([C:2]([C:3]([O:4]/[C:5](=[N:6]/[H:13])[H:12])([H:10])[H:11])([H:8])[H:9])[H:7]>>[C:5](#[N:6])[H:12].[H:11][H:13].[O:1]([C:2]([C:3](=[O:4])[H:10])([H:8])[H:9])[H:7]"
O       -1.83510384       0.24221281       0.71195713
C       -1.26643452      -0.97797498       0.33968193
C        0.17121803      -0.81929061      -0.13054721
O        0.96509710      -0.17958259       0.65993944
C        1.83589560       1.47181059       0.01414763
N        1.33204475       2.00993554      -0.90951895
H       -1.12426897       0.76878292       1.09999850
H       -1.29425324      -1.70298272       1.16662994
H       -1.85254809      -1.40563501      -0.47836717
H        0.61287104      -1.76666412      -0.47899958
H       -0.08790658      -0.02769586      -1.44234601
H        2.31197635       1.41626024       0.97448300
H        0.23141237       0.97082379      -1.52705865
13
Frame=8 idx=001010 GeodesicLength=0.9224931204707506 rxn_smarts="[O:1]([C:2]([C:3]([O:4]/[C:5](=[N:6]/[H:13])[H:12])([H:10])[H:11])([H:8])[H:9])[H:7]>>[C:5](#[N:6])[H:12].[H:11][H:13].[O:1]([C:2]([C:3](=[O:4])[H:10])([H:8])[H:9])[H:7]"
O       -1.84589074       0.23596013       0.69348509
C       -1.26177898      -0.98504180       0.34937561
C        0.16879690      -0.82149321      -0.13993499
O        0.96980574      -0.17808031       0.64686556
C        1.85367653       1.46251354       0.02170193
N        1.34227502       2.04197628      -0.87567266
H       -1.13847053       0.78751391       1.05274024
H       -1.27982367      -1.68993846       1.19366935
H       -1.84458368      -1.44167749      -0.45577386
H        0.61357328      -1.77866645      -0.45689497
H       -0.10723990      -0.02094574      -1.46552658
H        2.32688434       1.37706584       0.98213341
H        0.20277567       1.01081378      -1.54616813
13
Frame=9 idx=001010 GeodesicLength=1.0371092736714371 rxn_smarts="[O:1]([C:2]([C:3]([O:4]/[C:5](=[N:6]/[H:13])[H:12])([H:10])[H:11])([H:8])[H:9])[H:7]>>[C:5](#[N:6])[H:12].[H:11][H:13].[O:1]([C:2]([C:3](=[O:4])[H:10])([H:8])[H:9])[H:7]"
O       -1.85721087       0.22878069       0.67494305
C       -1.25699696      -0.99185799       0.35898374
C        0.16641753      -0.82379034      -0.14904246
O        0.97398746      -0.17583710       0.63397266
C        1.87169812       1.45298139       0.02882744
N        1.35480225       2.07300322      -0.84126816
H       -1.15428638       0.80426521       1.00510338
H       -1.26547009      -1.67618211       1.22005670
H       -1.83572322      -1.47723337      -0.43268569
H        0.61487111      -1.78974093      -0.43341428
H       -0.12729251      -0.01431208      -1.48884193
H        2.34226576       1.33750894       0.98829266
H        0.17293780       1.05241447      -1.56492710
13
Frame=10 idx=001010 GeodesicLength=1.1516834497600974 rxn_smarts="[O:1]([C:2]([C:3]([O:4]/[C:5](=[N:6]/[H:13])[H:12])([H:10])[H:11])([H:8])[H:9])[H:7]>>[C:5](#[N:6])[H:12].[H:11][H:13].[O:1]([C:2]([C:3](=[O:4])[H:10])([H:8])[H:9])[H:7]"
O       -1.86813294       0.22145585       0.65611716
C       -1.25194443      -0.99808577       0.36850989
C        0.16429011      -0.82677769      -0.15810249
O        0.97835095      -0.17373150       0.62075111
C        1.88903648       1.44364222       0.03605029
N        1.36783892       2.10376620      -0.80500568
H       -1.17036583       0.81941256       0.95686406
H       -1.25136068      -1.66118198       1.24595698
H       -1.82622728      -1.51181310      -0.40889817
H        0.61634314      -1.80069890      -0.40880552
H       -0.14755741      -0.00868138      -1.51277436
H        2.35761220       1.29768439       0.99322183
H        0.14211678       1.09500911      -1.58388510
13
Frame=11 idx=001010 GeodesicLength=1.2662039688511748 rxn_smarts="[O:1]([C:2]([C:3]([O:4]/[C:5](=[N:6]/[H:13])[H:12])([H:10])[H:11])([H:8])[H:9])[H:7]>>[C:5](#[N:6])[H:12].[H:11][H:13].[O:1]([C:2]([C:3](=[O:4])[H:10])([H:8])[H:9])[H:7]"
O       -1.87891134       0.21380167       0.63689604
C       -1.24666911      -1.00380081       0.37794375
C        0.16239131      -0.83033700      -0.16698607
O        0.98271511      -0.17151545       0.60735608
C        1.90601507       1.43434708       0.04323013
N        1.38174802       2.13416558      -0.76692092
H       -1.18703178       0.83289430       0.90799926
H       -1.23749489      -1.64497455       1.27137604
H       -1.81601739      -1.54559244      -0.38443083
H        0.61811864      -1.81122810      -0.38303271
H       -0.16809067      -0.00405937      -1.53728902
H        2.37317930       1.25744222       0.99676616
H        0.11004774       1.13885687      -1.60290791
13
Frame=12 idx=001010 GeodesicLength=1.380668970744273 rxn_smarts="[O:1]([C:2]([C:3]([O:4]/[C:5](=[N:6]/[H:13])[H:12])([H:10])[H:11])([H:8])[H:9])[H:7]>>[C:5](#[N:6])[H:12].[H:11][H:13].[O:1]([C:2]([C:3](=[O:4])[H:10])([H:8])[H:9])[H:7]"
O       -1.88968711       0.20576506       0.61706566
C       -1.24121474      -1.00901709       0.38725958
C        0.16074384      -0.83443297      -0.17556943
O        0.98699299      -0.16903188       0.59390592
C        1.92274333       1.42507337       0.05031270
N        1.39644690       2.16429767      -0.72664895
H       -1.20444332       0.84470796       0.85843830
H       -1.22396005      -1.62748553       1.29633194
H       -1.80503643      -1.57867954      -0.35929151
H        0.62029298      -1.82117242      -0.35599383
H       -0.18880806      -0.00062370      -1.56243018
H        2.38940306       1.21650057       0.99857838
H        0.07652662       1.18409852      -1.62195857
13
Frame=13 idx=001010 GeodesicLength=1.4951268835364808 rxn_smarts="[O:1]([C:2]([C:3]([O:4]/[C:5](=[N:6]/[H:13])[H:12])([H:10])[H:11])([H:8])[H:9])[H:7]>>[C:5](#[N:6])[H:12].[H:11][H:13].[O:1]([C:2]([C:3](=[O:4])[H:10])([H:8])[H:9])[H:7]"
O       -1.90066862       0.19713875       0.59656619
C       -1.23562953      -1.01380703       0.39645808
C        0.15932901      -0.83896038      -0.18374850
O        0.99103670      -0.16607096       0.58052349
C        1.93949960       1.41570965       0.05719989
N        1.41259024       2.19399734      -0.68439472
H       -1.22285593       0.85474968       0.80818334
H       -1.21078268      -1.60875742       1.32081782
H       -1.79321625      -1.61120964      -0.33347244
H        0.62296284      -1.83025907      -0.32770762
H       -0.20976929       0.00157804      -1.58820138
H        2.40628782       1.17485347       0.99863955
H        0.04121609       1.23103757      -1.64086370
13
Frame=14 idx=001010 GeodesicLength=1.6096190750447326 rxn_smarts="[O:1]([C:2]([C:3]([O:4]/[C:5](=[N:6]/[H:13])[H:12])([H:10])[H:11])([H:8])[H:9])[H:7]>>[C:5](#[N:6])[H:12].[H:11][H:13].[O:1]([C:2]([C:3](=[O:4])[H:10])([H:8])[H:9])[H:7]"
O       -1.91209498       0.18772308       0.57522765
C       -1.22997579      -1.01822925       0.40552150
C        0.15814972      -0.84380706      -0.19137844
O        0.99467592      -0.16236787       0.56738093
C        1.95652656       1.40616895       0.06377082
N        1.43060020       2.22322634      -0.64008026
H       -1.24257514       0.86293088       0.75715635
H       -1.19805607      -1.58877410       1.34483138
H       -1.78045030      -1.64333935      -0.30697806
H        0.62626246      -1.83822986      -0.29806051
H       -0.23096035       0.00243382      -1.61461846
H        2.42410772       1.13229098       0.99667834
H        0.00379005       1.27997344      -1.65945124
13
Frame=15 idx=001010 GeodesicLength=1.7241862189605537 rxn_smarts="[O:1]([C:2]([C:3]([O:4]/[C:5](=[N:6]/[H:13])[H:12])([H:10])[H:11])([H:8])[H:9])[H:7]>>[C:5](#[N:6])[H:12].[H:11][H:13].[O:1]([C:2]([C:3](=[O:4])[H:10])([H:8])[H:9])[H:7]"
O       -1.92417425       0.17733040       0.55281465
C       -1.22431314      -1.02232052       0.41442215
C        0.15722713      -0.84887056      -0.19830152
O        0.99774379      -0.15765360       0.55465418
C        1.97399915       1.39640022       0.06992122
N        1.45081379       2.25200043      -0.59346677
H       -1.26386981       0.86915726       0.70523539
H       -1.18591493      -1.56746415       1.36836597
H       -1.76661083      -1.67520560      -0.27980144
H        0.63032140      -1.84484741      -0.26686648
H       -0.25231164       0.00176068      -1.64171999
H        2.44319114       1.08850729       0.99228385
H       -0.03610178       1.33120555      -1.67754121
13
Frame=16 idx=001010 GeodesicLength=1.8389483676740226 rxn_smarts="[O:1]([C:2]([C:3]([O:4]/[C:5](=[N:6]/[H:13])[H:12])([H:10])[H:11])([H:8])[H:9])[H:7]>>[C:5](#[N:6])[H:12].[H:11][H:13].[O:1]([C:2]([C:3](=[O:4])[H:10])([H:8])[H:9])[H:7]"
O       -1.93730811       0.16553818       0.52916098
C       -1.21873902      -1.02620987       0.42313733
C        0.15654765      -0.85391571      -0.20431931
O        0.99991928      -0.15145315       0.54262364
C        1.99235119       1.38623094       0.07543925
N        1.47436192       2.28012077      -0.54490267
H       -1.28730087       0.87319053       0.65235087
H       -1.17450304      -1.54489419       1.39138406
H       -1.75149125      -1.70705604      -0.25197420
H        0.63535752      -1.84966377      -0.23394112
H       -0.27386865      -0.00047665      -1.66947484
H        2.46363897       1.04332093       0.98524363
H       -0.07896560       1.38526805      -1.69472762
