12
Frame=0 idx=011608 GeodesicLength=0.0 rxn_smarts="[N:1]([C@:2]12[C:3]([H:10])([H:11])[C@@:4]1([H:12])[O:5][C:6]2=[O:7])([H:8])[H:9]>>[N:1](=[C:2](\[C:6]([O:5][C:4](=[C:3]([H:10])[H:11])[H:12])=[O:7])[H:8])\[H:9]"
N        0.47165091       1.45848186       1.04901758
C        0.26308258       0.53875945       0.03223640
C       -1.25248926       0.10396367      -0.41728028
C       -0.79027960      -1.17281956      -0.04242862
O        0.29214046      -1.60255846      -0.80053840
C        1.15847146      -0.58743993      -0.38750865
O        2.34039697      -0.68086799      -0.35372351
H        0.59413256       1.56462815      -0.40719738
H        1.23936355       1.13816608       1.64453864
H       -1.98557171       0.56999395       0.23110948
H       -1.39986445       0.30978942      -1.47231650
H       -0.93103344      -1.64009660       0.92409124
12
Frame=1 idx=011608 GeodesicLength=0.09671337177481448 rxn_smarts="[N:1]([C@:2]12[C:3]([H:10])([H:11])[C@@:4]1([H:12])[O:5][C:6]2=[O:7])([H:8])[H:9]>>[N:1](=[C:2](\[C:6]([O:5][C:4](=[C:3]([H:10])[H:11])[H:12])=[O:7])[H:8])\[H:9]"
N        0.48952872       1.44912518       1.06121820
C        0.26849945       0.53694276       0.04526920
C       -1.26850195       0.09821591      -0.43100618
C       -0.79142152      -1.16603692      -0.03759454
O        0.29358949      -1.59879816      -0.79289887
C        1.16312659      -0.58478673      -0.39086291
O        2.34481373      -0.68167326      -0.35832713
H        0.58288908       1.58574997      -0.38639881
H        1.27027462       1.13172953       1.64045616
H       -2.00967368       0.56451632       0.20781449
H       -1.40852761       0.29149320      -1.48930952
H       -0.93459693      -1.62647779       0.93163991
12
Frame=2 idx=011608 GeodesicLength=0.19339822129952927 rxn_smarts="[N:1]([C@:2]12[C:3]([H:10])([H:11])[C@@:4]1([H:12])[O:5][C:6]2=[O:7])([H:8])[H:9]>>[N:1](=[C:2](\[C:6]([O:5][C:4](=[C:3]([H:10])[H:11])[H:12])=[O:7])[H:8])\[H:9]"
N        0.50809599       1.43977740       1.07361176
C        0.27422963       0.53506078       0.05883468
C       -1.28462277       0.09219806      -0.44512000
C       -0.79271464      -1.15886594      -0.03281756
O        0.29498005      -1.59488453      -0.78503175
C        1.16776005      -0.58211282      -0.39399417
O        2.34921458      -0.68247466      -0.36332032
H        0.57103657       1.60700604      -0.36430712
H        1.30200457       1.12572385       1.63582471
H       -2.03393843       0.55861865       0.18392138
H       -1.41729896       0.27253980      -1.50654902
H       -0.93874664      -1.61258664       0.93894741
12
Frame=3 idx=011608 GeodesicLength=0.29006468479483144 rxn_smarts="[N:1]([C@:2]12[C:3]([H:10])([H:11])[C@@:4]1([H:12])[O:5][C:6]2=[O:7])([H:8])[H:9]>>[N:1](=[C:2](\[C:6]([O:5][C:4](=[C:3]([H:10])[H:11])[H:12])=[O:7])[H:8])\[H:9]"
N        0.52740114       1.43043927       1.08620875
C        0.28029388       0.53310149       0.07297266
C       -1.30085630       0.08589870      -0.45965087
C       -0.79417247      -1.15127975      -0.02809944
O        0.29629602      -1.59081450      -0.77692365
C        1.17236683      -0.57941833      -0.39689753
O        2.35359358      -0.68326965      -0.36872772
H        0.55852840       1.62837937      -0.34080345
H        1.33460705       1.12019197       1.63058971
H       -2.05837109       0.55229403       0.15938589
H       -1.42617220       0.25288945      -1.52405960
H       -0.94351485      -1.59841204       0.94600524
12
Frame=4 idx=011608 GeodesicLength=0.3867077956883918 rxn_smarts="[N:1]([C@:2]12[C:3]([H:10])([H:11])[C@@:4]1([H:12])[O:5][C:6]2=[O:7])([H:8])[H:9]>>[N:1](=[C:2](\[C:6]([O:5][C:4](=[C:3]([H:10])[H:11])[H:12])=[O:7])[H:8])\[H:9]"
N        0.54749186       1.42110702       1.09901279
C        0.28671531       0.53105499       0.08771503
C       -1.31720418       0.07930619      -0.47462850
C       -0.79580282      -1.14324057      -0.02343593
O        0.29752335      -1.58658357      -0.76855267
C        1.17694111      -0.57670006      -0.39957780
O        2.35793996      -0.68405609      -0.37458263
H        0.54531797       1.64984924      -0.31575368
H        1.36811073       1.11515346       1.62469377
H       -2.08297166       0.54554015       0.13416042
H       -1.43513688       0.23249125      -1.54186219
H       -0.94892474      -1.58392201       0.95281140
12
Frame=5 idx=011608 GeodesicLength=0.48332557732403125 rxn_smarts="[N:1]([C@:2]12[C:3]([H:10])([H:11])[C@@:4]1([H:12])[O:5][C:6]2=[O:7])([H:8])[H:9]>>[N:1](=[C:2](\[C:6]([O:5][C:4](=[C:3]([H:10])[H:11])[H:12])=[O:7])[H:8])\[H:9]"
N        0.56842052       1.41178094       1.11202305
C        0.29352040       0.52890899       0.10309691
C       -1.33366861       0.07240818      -0.49008345
C       -0.79761475      -1.13470770      -0.01882668
O        0.29864621      -1.58218498      -0.75990028
C        1.18147721      -0.57395514      -0.40203921
O        2.36224181      -0.68483659      -0.38090948
H        0.53135513       1.67138675      -0.28901135
H        1.40254762       1.11064014       1.61807048
H       -2.10773802       0.53835369       0.10819880
H       -1.44418568       0.21129284      -1.55997642
H       -0.95500183      -1.56908711       0.95935763
12
Frame=6 idx=011608 GeodesicLength=0.5799159061253366 rxn_smarts="[N:1]([C@:2]12[C:3]([H:10])([H:11])[C@@:4]1([H:12])[O:5][C:6]2=[O:7])([H:8])[H:9]>>[N:1](=[C:2](\[C:6]([O:5][C:4](=[C:3]([H:10])[H:11])[H:12])=[O:7])[H:8])\[H:9]"
N        0.59024232       1.40246148       1.12523661
C        0.30073876       0.52664856       0.11915646
C       -1.35025132       0.06519134      -0.50604875
C       -0.79961808      -1.12563539      -0.01427286
O        0.29964764      -1.57761123      -0.75094590
C        1.18596900      -0.57118086      -0.40428586
O        2.36648520      -0.68561484      -0.38773350
H        0.51658573       1.69295384      -0.26041051
H        1.43795131       1.10669193       1.61064213
H       -2.13266597       0.53073251       0.08145147
H       -1.45331022       0.18923667      -1.57842187
H       -0.96177437      -1.55387401       0.96563258
12
Frame=7 idx=011608 GeodesicLength=0.676477340307546 rxn_smarts="[N:1]([C@:2]12[C:3]([H:10])([H:11])[C@@:4]1([H:12])[O:5][C:6]2=[O:7])([H:8])[H:9]>>[N:1](=[C:2](\[C:6]([O:5][C:4](=[C:3]([H:10])[H:11])[H:12])=[O:7])[H:8])\[H:9]"
N        0.61301518       1.39314833       1.13864959
C        0.30840359       0.52425670       0.13593407
C       -1.36695338       0.05764078      -0.52256098
C       -0.80182335      -1.11597175      -0.00977619
O        0.30050925      -1.57285480      -0.74166489
C        1.19040950      -0.56837438      -0.40632258
O        2.37065322      -0.68639471      -0.39508416
H        0.50095315       1.71450304      -0.22976072
H        1.47435505       1.10335572       1.60231801
H       -2.15774922       0.52267616       0.05386329
H       -1.46250002       0.16625757      -1.59721920
H       -0.96927297      -1.53824265       0.97162377
12
Frame=8 idx=011608 GeodesicLength=0.7730047089666958 rxn_smarts="[N:1]([C@:2]12[C:3]([H:10])([H:11])[C@@:4]1([H:12])[O:5][C:6]2=[O:7])([H:8])[H:9]>>[N:1](=[C:2](\[C:6]([O:5][C:4](=[C:3]([H:10])[H:11])[H:12])=[O:7])[H:8])\[H:9]"
N        0.63680178       1.38384791       1.15224638
C        0.31655222       0.52171002       0.15347581
C       -1.38377582       0.04974229      -0.53965541
C       -0.80424115      -1.10565895      -0.00534591
O        0.30121086      -1.56790181      -0.73204093
C        1.19479262      -0.56553421      -0.40815195
O        2.37472829      -0.68719036      -0.40297176
H        0.48439470       1.73596597      -0.19685541
H        1.51179222       1.10069894       1.59299172
H       -2.18297750       0.51418477       0.02538451
H       -1.47174926       0.14229135      -1.61638236
H       -0.97752896      -1.52215592       0.97730533
12
Frame=9 idx=011608 GeodesicLength=0.8694986451940109 rxn_smarts="[N:1]([C@:2]12[C:3]([H:10])([H:11])[C@@:4]1([H:12])[O:5][C:6]2=[O:7])([H:8])[H:9]>>[N:1](=[C:2](\[C:6]([O:5][C:4](=[C:3]([H:10])[H:11])[H:12])=[O:7])[H:8])\[H:9]"
N        0.66166481       1.37456167       1.16601899
C        0.32522572       0.51898167       0.17183316
C       -1.40071954       0.04147976      -0.55737378
C       -0.80688419      -1.09463277      -0.00099383
O        0.30172942      -1.56273876      -0.72205472
C        1.19911066      -0.56265905      -0.40977640
O        2.37868797      -0.68802115      -0.41140715
H        0.46684612       1.75726253      -0.16144571
H        1.55030667       1.09881308       1.58252431
H       -2.20834006       0.50525961      -0.00404395
H       -1.48104835       0.11726382      -1.63592971
H       -0.98657923      -1.50557040       0.98264881
12
Frame=10 idx=011608 GeodesicLength=0.9659571395216012 rxn_smarts="[N:1]([C@:2]12[C:3]([H:10])([H:11])[C@@:4]1([H:12])[O:5][C:6]2=[O:7])([H:8])[H:9]>>[N:1](=[C:2](\[C:6]([O:5][C:4](=[C:3]([H:10])[H:11])[H:12])=[O:7])[H:8])\[H:9]"
N        0.68767295       1.36529209       1.17995309
C        0.33447011       0.51603669       0.19106546
C       -1.41778319       0.03283684      -0.57576112
C       -0.80976620      -1.08281990       0.00326402
O        0.30203962      -1.55735000      -0.71168516
C        1.20335543      -0.55974945      -0.41119546
O        2.38250741      -0.68890936      -0.42039978
H        0.44823577       1.77828618      -0.12324691
H        1.58993954       1.09781117       1.57075200
H       -2.23382084       0.49590779      -0.03448667
H       -1.49038572       0.09109423      -1.65587724
H       -0.99646489      -1.48843629       0.98761776
12
Frame=11 idx=011608 GeodesicLength=1.062378779146876 rxn_smarts="[N:1]([C@:2]12[C:3]([H:10])([H:11])[C@@:4]1([H:12])[O:5][C:6]2=[O:7])([H:8])[H:9]>>[N:1](=[C:2](\[C:6]([O:5][C:4](=[C:3]([H:10])[H:11])[H:12])=[O:7])[H:8])\[H:9]"
N        0.71490062       1.35604749       1.19402369
C        0.34433724       0.51283224       0.21123863
C       -1.43496520       0.02379748      -0.59486453
C       -0.81290123      -1.07013723       0.00740561
O        0.30211327      -1.55171517      -0.70091465
C        1.20751977      -0.55680709      -0.41240676
O        2.38616127      -0.68988623      -0.42994749
H        0.42849185       1.79889991      -0.08193873
H        1.63072307       1.09783039       1.55748432
H       -2.25939983       0.48614119      -0.06600915
H       -1.49975237       0.06369675      -1.67623707
H       -1.00722846      -1.47069974       0.99216613
12
Frame=12 idx=011608 GeodesicLength=1.1587685127208531 rxn_smarts="[N:1]([C@:2]12[C:3]([H:10])([H:11])[C@@:4]1([H:12])[O:5][C:6]2=[O:7])([H:8])[H:9]>>[N:1](=[C:2](\[C:6]([O:5][C:4](=[C:3]([H:10])[H:11])[H:12])=[O:7])[H:8])\[H:9]"
N        0.74343156       1.34684233       1.20819461
C        0.35488653       0.50931692       0.23242575
C       -1.45226497       0.01434492      -0.61473592
C       -0.81630508      -1.05649109       0.01140399
O        0.30191790      -1.54581105      -0.68972477
C        1.21159779      -0.55383389      -0.41340581
O        2.38962477      -0.69098767      -0.44004086
H        0.40754536       1.81893210      -0.03715634
H        1.67267852       1.09903231       1.54250211
H       -2.28505405       0.47597861      -0.09868354
H       -1.50914303       0.03497713      -1.69701992
H       -1.01891531      -1.45230062       0.99624073
12
Frame=13 idx=011608 GeodesicLength=1.2551246720396947 rxn_smarts="[N:1]([C@:2]12[C:3]([H:10])([H:11])[C@@:4]1([H:12])[O:5][C:6]2=[O:7])([H:8])[H:9]>>[N:1](=[C:2](\[C:6]([O:5][C:4](=[C:3]([H:10])[H:11])[H:12])=[O:7])[H:8])\[H:9]"
N        0.77335713       1.33769803       1.22242162
C        0.36618519       0.50543158       0.25470610
C       -1.46967640       0.00445919      -0.63543362
C       -0.81999107      -1.04177349       0.01522658
O        0.30141344      -1.53961432      -0.67809552
C        1.21557731      -0.55083303      -0.41418947
O        2.39285814      -0.69225731      -0.45066789
H        0.38533387       1.83817088       0.01152865
H        1.71580340       1.10160802       1.52554908
H       -2.31074601       0.46544869      -0.13259189
H       -1.51854950       0.00482341      -1.71823480
H       -1.03156551      -1.43316166       0.99978115
12
Frame=14 idx=011608 GeodesicLength=1.351422992153818 rxn_smarts="[N:1]([C@:2]12[C:3]([H:10])([H:11])[C@@:4]1([H:12])[O:5][C:6]2=[O:7])([H:8])[H:9]>>[N:1](=[C:2](\[C:6]([O:5][C:4](=[C:3]([H:10])[H:11])[H:12])=[O:7])[H:8])\[H:9]"
N        0.80475869       1.32864409       1.23664050
C        0.37830411       0.50110214       0.27816714
C       -1.48718396      -0.00587702      -0.65701337
C       -0.82396403      -1.02585362       0.01883171
O        0.30056091      -1.53308953      -0.66601797
C        1.21944559      -0.54781172      -0.41475582
O        2.39581398      -0.69376480      -0.46179657
H        0.36180370       1.85634006       0.06460454
H        1.76004957       1.10578671       1.50631310
H       -2.33642098       0.45459520      -0.16780915
H       -1.52795650      -0.02688555      -1.73987717
H       -1.04521109      -1.41318595       1.00271307
12
Frame=15 idx=011608 GeodesicLength=1.4476486746256114 rxn_smarts="[N:1]([C@:2]12[C:3]([H:10])([H:11])[C@@:4]1([H:12])[O:5][C:6]2=[O:7])([H:8])[H:9]>>[N:1](=[C:2](\[C:6]([O:5][C:4](=[C:3]([H:10])[H:11])[H:12])=[O:7])[H:8])\[H:9]"
N        0.83769953       1.31967001       1.25079067
C        0.39131583       0.49622673       0.30291516
C       -1.50476332      -0.01667642      -0.67953919
C       -0.82823421      -1.00857296       0.02217322
O        0.29933041      -1.52619626      -0.65345839
C        1.22319913      -0.54478440      -0.41509101
O        2.39845753      -0.69559689      -0.47339463
H        0.33688656       1.87308366       0.12269822
H        1.80536046       1.11188315       1.48432923
H       -2.36202401       0.44348960      -0.20444070
H       -1.53731545      -0.06028181      -1.76192837
H       -1.05991247      -1.39224442       1.00494580
12
Frame=16 idx=011608 GeodesicLength=1.5438526952806089 rxn_smarts="[N:1]([C@:2]12[C:3]([H:10])([H:11])[C@@:4]1([H:12])[O:5][C:6]2=[O:7])([H:8])[H:9]>>[N:1](=[C:2](\[C:6]([O:5][C:4](=[C:3]([H:10])[H:11])[H:12])=[O:7])[H:8])\[H:9]"
N        0.87232637       1.31090371       1.26471826
C        0.40532311       0.49067273       0.32910133
C       -1.52244056      -0.02794706      -0.70306895
C       -0.83281830      -0.98979392       0.02515390
O        0.29764157      -1.51886563      -0.64047807
C        1.22684123      -0.54175603      -0.41514819
O        2.40077911      -0.69787492      -0.48525676
H        0.31062467       1.88795141       0.18635008
H        1.85164568       1.12029178       1.45921344
H       -2.38751797       0.43217704      -0.24254290
H       -1.54671331      -0.09544160      -1.78437052
H       -1.07569160      -1.37031753       1.00632836
