12
Frame=0 idx=004522 GeodesicLength=0.0 rxn_smarts="[O:1]([C@@:2]1([H:8])[C@@:3]2([H:9])[C:4]([H:10])([H:11])[O:5][C@@:6]12[H:12])[H:7]>>[H:7][H:11].[O:1]=[C:2]([C@@:6]1([H:12])[C:3]([H:9])=[C:4]([H:10])[O:5]1)[H:8]"
O       -0.40853262       0.87696606      -1.56041391
C        0.09732901       1.18879907      -0.44395330
C       -0.16814671       0.01438174       1.01508726
C       -0.14361555      -1.18101498       0.30297499
O        1.07017232      -0.97109558      -0.31049278
C        1.09178740       0.35448312       0.26557097
H       -1.00637081      -0.30043439      -1.37981823
H       -0.16245889       2.14193716       0.02757386
H       -0.72200272       0.41568879       1.84280307
H       -0.50353948      -2.18443589       0.48270722
H       -1.18958334      -1.04082345      -0.90394865
H        2.04496143       0.68554835       0.66190946
12
Frame=1 idx=004522 GeodesicLength=0.07758315871325616 rxn_smarts="[O:1]([C@@:2]1([H:8])[C@@:3]2([H:9])[C:4]([H:10])([H:11])[O:5][C@@:6]12[H:12])[H:7]>>[H:7][H:11].[O:1]=[C:2]([C@@:6]1([H:12])[C:3]([H:9])=[C:4]([H:10])[O:5]1)[H:8]"
O       -0.40366752       0.88548313      -1.56557302
C        0.09740582       1.18991540      -0.44323015
C       -0.16931915       0.01312560       1.01718704
C       -0.14544665      -1.18511889       0.30577452
O        1.07277523      -0.97396635      -0.30462351
C        1.09020856       0.35286741       0.26625490
H       -1.01671672      -0.29251089      -1.40382176
H       -0.15725807       2.14636773       0.02453639
H       -0.71522563       0.40856832       1.85312472
H       -0.48822310      -2.19105003       0.50474611
H       -1.20567440      -1.04253092      -0.91829253
H        2.04114163       0.68884948       0.66391729
12
Frame=2 idx=004522 GeodesicLength=0.15515080873366788 rxn_smarts="[O:1]([C@@:2]1([H:8])[C@@:3]2([H:9])[C:4]([H:10])([H:11])[O:5][C@@:6]12[H:12])[H:7]>>[H:7][H:11].[O:1]=[C:2]([C@@:6]1([H:12])[C:3]([H:9])=[C:4]([H:10])[O:5]1)[H:8]"
O       -0.39865311       0.89403003      -1.57077995
C        0.09735224       1.19091608      -0.44248270
C       -0.17059965       0.01174854       1.01930180
C       -0.14728907      -1.18944914       0.30870576
O        1.07532236      -0.97692293      -0.29869340
C        1.08851763       0.35115070       0.26695105
H       -1.02721060      -0.28404024      -1.42852037
H       -0.15199615       2.15070967       0.02147268
H       -0.70832742       0.40119330       1.86348414
H       -0.47209504      -2.19736612       0.52767270
H       -1.22220612      -1.04400791      -0.93305014
H        2.03718493       0.69203801       0.66593840
12
Frame=3 idx=004522 GeodesicLength=0.23270690789833376 rxn_smarts="[O:1]([C@@:2]1([H:8])[C@@:3]2([H:9])[C:4]([H:10])([H:11])[O:5][C@@:6]12[H:12])[H:7]>>[H:7][H:11].[O:1]=[C:2]([C@@:6]1([H:12])[C:3]([H:9])=[C:4]([H:10])[O:5]1)[H:8]"
O       -0.39348361       0.90259088      -1.57603063
C        0.09715783       1.19178610      -0.44171024
C       -0.17198827       0.01024178       1.02143800
C       -0.14912662      -1.19402849       0.31179753
O        1.07781690      -0.97997030      -0.29269821
C        1.08671150       0.34932754       0.26766200
H       -1.03785595      -0.27499319      -1.45393581
H       -0.14667755       2.15494856       0.01837737
H       -0.70130826       0.39356167       1.87387460
H       -0.45513542      -2.20333594       0.55147550
H       -1.23919838      -1.04524296      -0.94822116
H        2.03308782       0.69511436       0.66797105
12
Frame=4 idx=004522 GeodesicLength=0.31025630565545204 rxn_smarts="[O:1]([C@@:2]1([H:8])[C@@:3]2([H:9])[C:4]([H:10])([H:11])[O:5][C@@:6]12[H:12])[H:7]>>[H:7][H:11].[O:1]=[C:2]([C@@:6]1([H:12])[C:3]([H:9])=[C:4]([H:10])[O:5]1)[H:8]"
O       -0.38815495       0.91114602      -1.58132123
C        0.09681129       1.19250909      -0.44091209
C       -0.17348258       0.00859718       1.02360446
C       -0.15093795      -1.19887987       0.31508418
O        1.08026519      -0.98311268      -0.28663128
C        1.08478843       0.34739382       0.26839099
H       -1.04865548      -0.26534011      -1.48008943
H       -0.14130822       2.15906841       0.01524406
H       -0.69416691       0.38567392       1.88429071
H       -0.43733639      -2.20891207       0.57612969
H       -1.25666992      -1.04622605      -0.96380289
H        2.02884749       0.69808236       0.67001283
12
Frame=5 idx=004522 GeodesicLength=0.387796406705987 rxn_smarts="[O:1]([C@@:2]1([H:8])[C@@:3]2([H:9])[C:4]([H:10])([H:11])[O:5][C@@:6]12[H:12])[H:7]>>[H:7][H:11].[O:1]=[C:2]([C@@:6]1([H:12])[C:3]([H:9])=[C:4]([H:10])[O:5]1)[H:8]"
O       -0.38266288       0.91966808      -1.58664880
C        0.09630054       1.19306763      -0.44008774
C       -0.17507694       0.00680587       1.02581159
C       -0.15269616      -1.20402788       0.31860320
O        1.08267837      -0.98635397      -0.28048331
C        1.08274833       0.34534708       0.26914129
H       -1.05961088      -0.25504982      -1.50699888
H       -0.13589835       2.16305238       0.01206503
H       -0.68690092       0.37753122       1.89472908
H       -0.41870632      -2.21404514       0.60159599
H       -1.27463754      -1.04694698      -0.97978815
H        2.02446275       0.70095152       0.67206068
12
Frame=6 idx=004522 GeodesicLength=0.4653367523950992 rxn_smarts="[O:1]([C@@:2]1([H:8])[C@@:3]2([H:9])[C:4]([H:10])([H:11])[O:5][C@@:6]12[H:12])[H:7]>>[H:7][H:11].[O:1]=[C:2]([C@@:6]1([H:12])[C:3]([H:9])=[C:4]([H:10])[O:5]1)[H:8]"
O       -0.37700258       0.92813382      -1.59200766
C        0.09561270       1.19344278      -0.43923701
C       -0.17676466       0.00486220       1.02807343
C       -0.15437016      -1.20949347       0.32240024
O        1.08506877      -0.98969637      -0.27424284
C        1.08059155       0.34318613       0.26991777
H       -1.07072589      -0.24409318      -1.53468475
H       -0.13045602       2.16688206       0.00883074
H       -0.67950667       0.36914249       1.90518665
H       -0.39925978      -2.21869605       0.62781981
H       -1.29311910      -1.04740263      -0.99616724
H        2.01993183       0.70373225       0.67411086
12
Frame=7 idx=004522 GeodesicLength=0.542873935830819 rxn_smarts="[O:1]([C@@:2]1([H:8])[C@@:3]2([H:9])[C:4]([H:10])([H:11])[O:5][C@@:6]12[H:12])[H:7]>>[H:7][H:11].[O:1]=[C:2]([C@@:6]1([H:12])[C:3]([H:9])=[C:4]([H:10])[O:5]1)[H:8]"
O       -0.37116922       0.93651111      -1.59739427
C        0.09473406       1.19361426      -0.43836044
C       -0.17853505       0.00275998       1.03040575
C       -0.15592260      -1.21529872       0.32652363
O        1.08745464      -0.99314186      -0.26789473
C        1.07832050       0.34091155       0.27072508
H       -1.08200427      -0.23243859      -1.56316263
H       -0.12499402       2.17053828       0.00553068
H       -0.67197997       0.36051743       1.91566278
H       -0.37902808      -2.22282837       0.65473437
H       -1.31213104      -1.04758664      -1.01292913
H        2.01525505       0.70644157       0.67615889
12
Frame=8 idx=004522 GeodesicLength=0.6204161069615641 rxn_smarts="[O:1]([C@@:2]1([H:8])[C@@:3]2([H:9])[C:4]([H:10])([H:11])[O:5][C@@:6]12[H:12])[H:7]>>[H:7][H:11].[O:1]=[C:2]([C@@:6]1([H:12])[C:3]([H:9])=[C:4]([H:10])[O:5]1)[H:8]"
O       -0.36515917       0.94477072      -1.60280489
C        0.09365223       1.19356319      -0.43745829
C       -0.18037613       0.00049501       1.03282482
C       -0.15731511      -1.22146004       0.33102258
O        1.08985571      -0.99669010      -0.26142268
C        1.07593884       0.33852562       0.27156854
H       -1.09345061      -0.22004817      -1.59245266
H       -0.11952498       2.17400037       0.00215328
H       -0.66431611       0.35166953       1.92615647
H       -0.35804841      -2.22642273       0.68227326
H       -1.33168895      -1.04750032      -1.03006046
H        2.01043270       0.70909692       0.67820003
12
Frame=9 idx=004522 GeodesicLength=0.6979829518324906 rxn_smarts="[O:1]([C@@:2]1([H:8])[C@@:3]2([H:9])[C:4]([H:10])([H:11])[O:5][C@@:6]12[H:12])[H:7]>>[H:7][H:11].[O:1]=[C:2]([C@@:6]1([H:12])[C:3]([H:9])=[C:4]([H:10])[O:5]1)[H:8]"
O       -0.35897053       0.95284742      -1.60823442
C        0.09234344       1.19325597      -0.43652805
C       -0.18226365      -0.00194042       1.03536136
C       -0.15847608      -1.22801523       0.33598845
O        1.09230316      -1.00034442      -0.25479785
C        1.07345480       0.33603240       0.27245595
H       -1.10505348      -0.20687699      -1.62257368
H       -0.11408140       2.17723898      -0.00132145
H       -0.65650227       0.34261348       1.93667674
H       -0.33640518      -2.22941467       0.71029928
H       -1.35181909      -1.04713138      -1.04754649
H        2.00547029       0.71173486       0.68022016
12
Frame=10 idx=004522 GeodesicLength=0.7755576423252865 rxn_smarts="[O:1]([C@@:2]1([H:8])[C@@:3]2([H:9])[C:4]([H:10])([H:11])[O:5][C@@:6]12[H:12])[H:7]>>[H:7][H:11].[O:1]=[C:2]([C@@:6]1([H:12])[C:3]([H:9])=[C:4]([H:10])[O:5]1)[H:8]"
O       -0.35259812       0.96073037      -1.61367963
C        0.09080263       1.19268069      -0.43557574
C       -0.18418988      -0.00454844       1.03802482
C       -0.15938496      -1.23496261       0.34144052
O        1.09481725      -1.00410236      -0.24800710
C        1.07087061       0.33343376       0.27339058
H       -1.11683249      -0.19287369      -1.65354699
H       -0.10866605       2.18023729      -0.00490133
H       -0.64854291       0.33337051       1.94721472
H       -0.31410898      -2.23184332       0.73879862
H       -1.37253211      -1.04648744      -1.06537896
H        2.00036499       0.71436523       0.68222047
12
Frame=11 idx=004522 GeodesicLength=0.8531308394702968 rxn_smarts="[O:1]([C@@:2]1([H:8])[C@@:3]2([H:9])[C:4]([H:10])([H:11])[O:5][C@@:6]12[H:12])[H:7]>>[H:7][H:11].[O:1]=[C:2]([C@@:6]1([H:12])[C:3]([H:9])=[C:4]([H:10])[O:5]1)[H:8]"
O       -0.34603503       0.96838171      -1.61913771
C        0.08901642       1.19181573      -0.43460347
C       -0.18613795      -0.00733458       1.04083438
C       -0.15999481      -1.24231894       0.34743146
O        1.09742448      -1.00796406      -0.24102914
C        1.06819255       0.33073250       0.27437740
H       -1.12879507      -0.17798268      -1.68539371
H       -0.10329939       2.18297178      -0.00859963
H       -0.64043771       0.32396200       1.95776873
H       -0.29120147      -2.23371272       0.76771068
H       -1.39385027      -1.04556154      -1.08355286
H        1.99511824       0.71701079       0.68419388
12
Frame=12 idx=004522 GeodesicLength=0.9307018457028716 rxn_smarts="[O:1]([C@@:2]1([H:8])[C@@:3]2([H:9])[C:4]([H:10])([H:11])[O:5][C@@:6]12[H:12])[H:7]>>[H:7][H:11].[O:1]=[C:2]([C@@:6]1([H:12])[C:3]([H:9])=[C:4]([H:10])[O:5]1)[H:8]"
O       -0.33927752       0.97576428      -1.62460678
C        0.08697085       1.19063692      -0.43361500
C       -0.18809204      -0.01030452       1.04380938
C       -0.16025889      -1.25009824       0.35401474
O        1.10015078      -1.01193080      -0.23384265
C        1.06542521       0.32792989       0.27542132
H       -1.14094598      -0.16213258      -1.71814292
H       -0.09800188       2.18541615      -0.01242996
H       -0.63218692       0.31441280       1.96833764
H       -0.26771457      -2.23503822       0.79698867
H       -1.41579885      -1.04434799      -1.10206754
H        1.98972982       0.71969230       0.68613310
12
Frame=13 idx=004522 GeodesicLength=1.0082680133065647 rxn_smarts="[O:1]([C@@:2]1([H:8])[C@@:3]2([H:9])[C:4]([H:10])([H:11])[O:5][C@@:6]12[H:12])[H:7]>>[H:7][H:11].[O:1]=[C:2]([C@@:6]1([H:12])[C:3]([H:9])=[C:4]([H:10])[O:5]1)[H:8]"
O       -0.33231966       0.98284008      -1.63008665
C        0.08465262       1.18912028      -0.43261484
C       -0.19003676      -0.01346610       1.04696690
C       -0.16013204      -1.25831488       0.36123917
O        1.10302268      -1.01600478      -0.22642642
C        1.06257341       0.32502561       0.27652607
H       -1.15328874      -0.14524118      -1.75182864
H       -0.09279730       2.18754263      -0.01640542
H       -0.62379393       0.30474573       1.97891925
H       -0.24366875      -2.23583953       0.82660546
H       -1.43841064      -1.04283698      -1.12092574
H        1.98419911       0.72242912       0.68803086
12
Frame=14 idx=004522 GeodesicLength=1.0858274677558883 rxn_smarts="[O:1]([C@@:2]1([H:8])[C@@:3]2([H:9])[C:4]([H:10])([H:11])[O:5][C@@:6]12[H:12])[H:7]>>[H:7][H:11].[O:1]=[C:2]([C@@:6]1([H:12])[C:3]([H:9])=[C:4]([H:10])[O:5]1)[H:8]"
O       -0.32515655       0.98956659      -1.63557908
C        0.08204786       1.18723676      -0.43161082
C       -0.19195889      -0.01682943       1.05032255
C       -0.15956861      -1.26698382       0.36915513
O        1.10606641      -1.02019092      -0.21875744
C        1.05964039       0.32201594       0.27769511
H       -1.16583027      -0.12720243      -1.78649117
H       -0.08771164       2.18931841      -0.02054104
H       -0.61526493       0.29498585       1.98951077
H       -0.21906138      -2.23614551       0.85655972
H       -1.46172419      -1.04100846      -1.14014413
H        1.97852179       0.72523702       0.68988039
12
Frame=15 idx=004522 GeodesicLength=1.163371703653472 rxn_smarts="[O:1]([C@@:2]1([H:8])[C@@:3]2([H:9])[C:4]([H:10])([H:11])[O:5][C@@:6]12[H:12])[H:7]>>[H:7][H:11].[O:1]=[C:2]([C@@:6]1([H:12])[C:3]([H:9])=[C:4]([H:10])[O:5]1)[H:8]"
O       -0.31778118       0.99590056      -1.64108714
C        0.07914183       1.18495532      -0.43061124
C       -0.19384602      -0.02040674       1.05389119
C       -0.15852132      -1.27612201       0.37781384
O        1.10930778      -1.02449549      -0.21081389
C        1.05662845       0.31889503       0.27893148
H       -1.17857124      -0.10790467      -1.82217321
H       -0.08277570       2.19070727      -0.02485175
H       -0.60660729       0.28515773       2.00010989
H       -0.19388326      -2.23597715       0.88685587
H       -1.48578496      -1.03884026      -1.15973910
H        1.97269291       0.72813040       0.69167407
12
Frame=16 idx=004522 GeodesicLength=1.24089542371579 rxn_smarts="[O:1]([C@@:2]1([H:8])[C@@:3]2([H:9])[C:4]([H:10])([H:11])[O:5][C@@:6]12[H:12])[H:7]>>[H:7][H:11].[O:1]=[C:2]([C@@:6]1([H:12])[C:3]([H:9])=[C:4]([H:10])[O:5]1)[H:8]"
O       -0.31019060       1.00179362      -1.64661601
C        0.07591946       1.18224113      -0.42962682
C       -0.19568861      -0.02421297       1.05768540
C       -0.15694579      -1.28574740       0.38726567
O        1.11277015      -1.02892807      -0.20257402
C        1.05353782       0.31565293       0.28023713
H       -1.19150762      -0.08721167      -1.85892702
H       -0.07802257       2.19166938      -0.02935297
H       -0.59783239       0.27528614       2.01071262
H       -0.16809679      -2.23536011       0.91752879
H       -1.51064753      -1.03630132      -1.17973709
H        1.96670447       0.73111835       0.69340431
