15
Frame=0 idx=011394 GeodesicLength=0.0 rxn_smarts="[C:1]([C@@:2]12[C:3]([H:11])([H:12])[C@@:4]3([H:13])[O:5][C@:6]1([H:14])[C@@:7]23[H:15])([H:8])([H:9])[H:10]>>[C:1]([C:2]1=[C:6]([H:14])[O:5][C@:4]2([H:13])[C:3]([H:11])([H:12])[C@:7]12[H:15])([H:8])([H:9])[H:10]"
C        1.97473163       0.23960769       0.04626317
C        0.58007461       0.77710467      -0.14554017
C       -1.08099754       0.36531884       1.08506430
C       -1.79827770      -0.20343397      -0.07275067
O       -1.55405531       0.52699614      -1.27572821
C       -0.16006804       0.12472919      -1.22200160
C       -0.42567373      -0.78850163      -0.08638958
H        2.23324379       0.17781282       1.10435266
H        2.19787846      -0.73407291      -0.42030399
H        2.64993957       0.97988571      -0.39159761
H       -1.05481384       1.41906070       1.29994170
H       -1.13886276      -0.26705356       1.96872122
H       -2.73746975      -0.74004421      -0.01185518
H        0.28400947      -0.18598228      -2.15924135
H        0.03034117      -1.69142725       0.28106525
15
Frame=1 idx=011394 GeodesicLength=0.08540008996451463 rxn_smarts="[C:1]([C@@:2]12[C:3]([H:11])([H:12])[C@@:4]3([H:13])[O:5][C@:6]1([H:14])[C@@:7]23[H:15])([H:8])([H:9])[H:10]>>[C:1]([C:2]1=[C:6]([H:14])[O:5][C@:4]2([H:13])[C:3]([H:11])([H:12])[C@:7]12[H:15])([H:8])([H:9])[H:10]"
C        1.97934759       0.23702516       0.04641639
C        0.57414926       0.74547288      -0.13491268
C       -1.07991898       0.36828195       1.08744935
C       -1.79472740      -0.20429921      -0.07247023
O       -1.55158767       0.52696358      -1.27482145
C       -0.16080865       0.12675348      -1.23026929
C       -0.42187445      -0.79358106      -0.07673911
H        2.24562326       0.17637859       1.10274343
H        2.21472075      -0.73249470      -0.42140484
H        2.63972779       0.98762852      -0.39621551
H       -1.06612177       1.42470025       1.29400325
H       -1.14777908      -0.25413593       1.97726207
H       -2.73584880      -0.73748106      -0.01215695
H        0.28425841      -0.16513447      -2.17284747
H        0.02083971      -1.70607799       0.28396303
15
Frame=2 idx=011394 GeodesicLength=0.1707098961499463 rxn_smarts="[C:1]([C@@:2]12[C:3]([H:11])([H:12])[C@@:4]3([H:13])[O:5][C@:6]1([H:14])[C@@:7]23[H:15])([H:8])([H:9])[H:10]>>[C:1]([C:2]1=[C:6]([H:14])[O:5][C@:4]2([H:13])[C:3]([H:11])([H:12])[C@:7]12[H:15])([H:8])([H:9])[H:10]"
C        1.98346998       0.23465272       0.04680071
C        0.56834854       0.71333549      -0.12549877
C       -1.07809905       0.37105156       1.08963497
C       -1.79112251      -0.20517188      -0.07205881
O       -1.54913470       0.52665905      -1.27395595
C       -0.16156465       0.12858441      -1.23860315
C       -0.41845937      -0.79951594      -0.06728713
H        2.25664208       0.17586999       1.10157111
H        2.23164350      -0.73065237      -0.42172318
H        2.62898015       0.99535230      -0.40026887
H       -1.07572407       1.42996651       1.28768750
H       -1.15586667      -0.24110702       1.98555771
H       -2.73443019      -0.73439442      -0.01194280
H        0.28444444      -0.14331024      -2.18648834
H        0.01087252      -1.72132016       0.28657501
15
Frame=3 idx=011394 GeodesicLength=0.2559262605835144 rxn_smarts="[C:1]([C@@:2]12[C:3]([H:11])([H:12])[C@@:4]3([H:13])[O:5][C@:6]1([H:14])[C@@:7]23[H:15])([H:8])([H:9])[H:10]>>[C:1]([C:2]1=[C:6]([H:14])[O:5][C@:4]2([H:13])[C:3]([H:11])([H:12])[C@:7]12[H:15])([H:8])([H:9])[H:10]"
C        1.98708765       0.23247954       0.04741179
C        0.56266027       0.68068380      -0.11728432
C       -1.07552157       0.37363423       1.09160073
C       -1.78746214      -0.20606481      -0.07152562
O       -1.54670342       0.52606303      -1.27314490
C       -0.16234070       0.13022189      -1.24701827
C       -0.41542797      -0.80631156      -0.05802910
H        2.26628698       0.17624295       1.10084607
H        2.24864774      -0.72853030      -0.42126364
H        2.61768989       1.00303806      -0.40378344
H       -1.08364777       1.43489205       1.28098853
H       -1.16308048      -0.22793456       1.99360125
H       -2.73319968      -0.73080745      -0.01121653
H        0.28456834      -0.12045866      -2.20010954
H        0.00044285      -1.73714820       0.28892699
15
Frame=4 idx=011394 GeodesicLength=0.34101474873917637 rxn_smarts="[C:1]([C@@:2]12[C:3]([H:11])([H:12])[C@@:4]3([H:13])[O:5][C@:6]1([H:14])[C@@:7]23[H:15])([H:8])([H:9])[H:10]>>[C:1]([C:2]1=[C:6]([H:14])[O:5][C@:4]2([H:13])[C:3]([H:11])([H:12])[C@:7]12[H:15])([H:8])([H:9])[H:10]"
C        1.99018250       0.23049648       0.04824494
C        0.55708415       0.64752314      -0.11027829
C       -1.07216564       0.37604583       1.09333423
C       -1.78374555      -0.20699823      -0.07088106
O       -1.54429484       0.52515539      -1.27241674
C       -0.16313656       0.13166737      -1.25554108
C       -0.41277591      -0.81398799      -0.04897974
H        2.27452184       0.17745025       1.10058878
H        2.26572925      -0.72612169      -0.42002240
H        2.60584470       1.01067415      -0.40678185
H       -1.08990707       1.43953487       1.27391490
H       -1.16937350      -0.21457644       2.00141340
H       -2.73215256      -0.72676132      -0.00997097
H        0.28463242      -0.09652049      -2.21364930
H       -0.01044322      -1.75358133       0.29102516
15
Frame=5 idx=011394 GeodesicLength=0.42592885594117247 rxn_smarts="[C:1]([C@@:2]12[C:3]([H:11])([H:12])[C@@:4]3([H:13])[O:5][C@:6]1([H:14])[C@@:7]23[H:15])([H:8])([H:9])[H:10]>>[C:1]([C:2]1=[C:6]([H:14])[O:5][C@:4]2([H:13])[C:3]([H:11])([H:12])[C@:7]12[H:15])([H:8])([H:9])[H:10]"
C        1.99273688       0.22869338       0.04929955
C        0.55162164       0.61388112      -0.10453699
C       -1.06801247       0.37832536       1.09483607
C       -1.77998475      -0.20801134      -0.07012660
O       -1.54191907       0.52390229      -1.27181850
C       -0.16395190       0.13292553      -1.26422648
C       -0.41049417      -0.82258756      -0.04017813
H        2.28129863       0.17942594       1.10086213
H        2.28289086      -0.72343894      -0.41801354
H        2.59344880       1.01825671      -0.40927388
H       -1.09451143       1.44400280       1.26649042
H       -1.17470629      -0.20096301       2.00905603
H       -2.73131171      -0.72233953      -0.00816105
H        0.28466984      -0.07139793      -2.22706206
H       -0.02177484      -1.77067481       0.29285302
15
Frame=6 idx=011394 GeodesicLength=0.5110617847513149 rxn_smarts="[C:1]([C@@:2]12[C:3]([H:11])([H:12])[C@@:4]3([H:13])[O:5][C@:6]1([H:14])[C@@:7]23[H:15])([H:8])([H:9])[H:10]>>[C:1]([C:2]1=[C:6]([H:14])[O:5][C@:4]2([H:13])[C:3]([H:11])([H:12])[C@:7]12[H:15])([H:8])([H:9])[H:10]"
C        1.99475305       0.22707716       0.05056627
C        0.54620382       0.57944943      -0.09983925
C       -1.06303441       0.38034410       1.09600497
C       -1.77612771      -0.20897907      -0.06926746
O       -1.53958059       0.52233946      -1.27119880
C       -0.16480266       0.13396067      -1.27297612
C       -0.40864891      -0.83194384      -0.03138767
H        2.28670085       0.18223612       1.10147869
H        2.30011651      -0.72030316      -0.41527919
H        2.58045982       1.02582559      -0.41121601
H       -1.09749781       1.44794993       1.25854241
H       -1.17898769      -0.18724465       2.01619369
H       -2.73051444      -0.71722999      -0.00594220
H        0.28458601      -0.04529193      -2.24032164
H       -0.03362586      -1.78818982       0.29464231
15
Frame=7 idx=011394 GeodesicLength=0.596162215066104 rxn_smarts="[C:1]([C@@:2]12[C:3]([H:11])([H:12])[C@@:4]3([H:13])[O:5][C@:6]1([H:14])[C@@:7]23[H:15])([H:8])([H:9])[H:10]>>[C:1]([C:2]1=[C:6]([H:14])[O:5][C@:4]2([H:13])[C:3]([H:11])([H:12])[C@:7]12[H:15])([H:8])([H:9])[H:10]"
C        1.99620281       0.22565124       0.05204087
C        0.54088992       0.54442169      -0.09632464
C       -1.05722300       0.38220621       1.09691973
C       -1.77220538      -0.21000849      -0.06831056
O       -1.53724348       0.52044604      -1.27071493
C       -0.16563883       0.13481541      -1.28194208
C       -0.40720132      -0.84221415      -0.02278112
H        2.29057929       0.18579911       1.10259817
H        2.31740860      -0.71681445      -0.41178178
H        2.56690008       1.03340051      -0.41270164
H       -1.09883699       1.45170772       1.25023635
H       -1.18222966      -0.17329084       2.02312028
H       -2.72987039      -0.71168364      -0.00319318
H        0.28445621      -0.01805866      -2.25341282
H       -0.04598786      -1.80637769       0.29624736
15
Frame=8 idx=011394 GeodesicLength=0.6809111222015266 rxn_smarts="[C:1]([C@@:2]12[C:3]([H:11])([H:12])[C@@:4]3([H:13])[O:5][C@:6]1([H:14])[C@@:7]23[H:15])([H:8])([H:9])[H:10]>>[C:1]([C:2]1=[C:6]([H:14])[O:5][C@:4]2([H:13])[C:3]([H:11])([H:12])[C@:7]12[H:15])([H:8])([H:9])[H:10]"
C        1.99704575       0.22444107       0.05372011
C        0.53572113       0.50888916      -0.09388922
C       -1.05052640       0.38386987       1.09751865
C       -1.76814522      -0.21104848      -0.06731150
O       -1.53484356       0.51835658      -1.27032608
C       -0.16644933       0.13563343      -1.29102072
C       -0.40608199      -0.85328468      -0.01444696
H        2.29289836       0.19006905       1.10408015
H        2.33467729      -0.71289605      -0.40731125
H        2.55260410       1.04093290      -0.41376060
H       -1.09852255       1.45518053       1.24158861
H       -1.18435010      -0.15918989       2.02969681
H       -2.72927503      -0.70566199      -0.00000162
H        0.28403835       0.00981122      -2.26606926
H       -0.05879080      -1.82510273       0.29753289
15
Frame=9 idx=011394 GeodesicLength=0.7657256720956358 rxn_smarts="[C:1]([C@@:2]12[C:3]([H:11])([H:12])[C@@:4]3([H:13])[O:5][C@:6]1([H:14])[C@@:7]23[H:15])([H:8])([H:9])[H:10]>>[C:1]([C:2]1=[C:6]([H:14])[O:5][C@:4]2([H:13])[C:3]([H:11])([H:12])[C@:7]12[H:15])([H:8])([H:9])[H:10]"
C        1.99725169       0.22340178       0.05562376
C        0.53061123       0.47259568      -0.09270314
C       -1.04289433       0.38536915       1.09777969
C       -1.76400868      -0.21217474      -0.06621876
O       -1.53248626       0.51584254      -1.27010614
C       -0.16728006       0.13620793      -1.30034043
C       -0.40540112      -0.86531691      -0.00626864
H        2.29357942       0.19509972       1.10611715
H        2.35203785      -0.70855962      -0.40202450
H        2.53764483       1.04846023      -0.41435211
H       -1.09646456       1.45846399       1.23245974
H       -1.18522052      -0.14476952       2.03601492
H       -2.72880139      -0.69916404       0.00377630
H        0.28361912       0.03908470      -2.27844049
H       -0.07218721      -1.84454089       0.29868266
15
Frame=10 idx=011394 GeodesicLength=0.8506352221556256 rxn_smarts="[C:1]([C@@:2]12[C:3]([H:11])([H:12])[C@@:4]3([H:13])[O:5][C@:6]1([H:14])[C@@:7]23[H:15])([H:8])([H:9])[H:10]>>[C:1]([C:2]1=[C:6]([H:14])[O:5][C@:4]2([H:13])[C:3]([H:11])([H:12])[C@:7]12[H:15])([H:8])([H:9])[H:10]"
C        1.99675578       0.22250413       0.05776111
C        0.52556017       0.43539033      -0.09282019
C       -1.03423736       0.38667538       1.09758385
C       -1.75976009      -0.21337126      -0.06503131
O       -1.53019252       0.51281067      -1.27000038
C       -0.16814966       0.13645769      -1.30988354
C       -0.40514593      -0.87825387       0.00178637
H        2.29248797       0.20078977       1.10868126
H        2.36948426      -0.70366739      -0.39592765
H        2.52187712       1.05599946      -0.41434336
H       -1.09257672       1.46147004       1.22268615
H       -1.18465578      -0.12997953       2.04189259
H       -2.72838769      -0.69208215       0.00816131
H        0.28312498       0.06984359      -2.29027943
H       -0.08618452      -1.86458686       0.29973321
15
Frame=11 idx=011394 GeodesicLength=0.935633241014475 rxn_smarts="[C:1]([C@@:2]12[C:3]([H:11])([H:12])[C@@:4]3([H:13])[O:5][C@:6]1([H:14])[C@@:7]23[H:15])([H:8])([H:9])[H:10]>>[C:1]([C:2]1=[C:6]([H:14])[O:5][C@:4]2([H:13])[C:3]([H:11])([H:12])[C@:7]12[H:15])([H:8])([H:9])[H:10]"
C        1.99553391       0.22179877       0.06011837
C        0.52059604       0.39730181      -0.09420120
C       -1.02453451       0.38779647       1.09700244
C       -1.75538597      -0.21464354      -0.06376581
O       -1.52788015       0.50936236      -1.27010381
C       -0.16899148       0.13646238      -1.31973902
C       -0.40534191      -0.89217146       0.00967913
H        2.28953013       0.20720272       1.11179362
H        2.38698500      -0.69823330      -0.38893441
H        2.50528507       1.06364352      -0.41384595
H       -1.08680424       1.46429749       1.21239586
H       -1.18264273      -0.11486646       2.04747842
H       -2.72803362      -0.68445429       0.01315434
H        0.28256646       0.10191788      -2.30167025
H       -0.10088201      -1.88541434       0.30063825
15
Frame=12 idx=011394 GeodesicLength=1.020519481433858 rxn_smarts="[C:1]([C@@:2]12[C:3]([H:11])([H:12])[C@@:4]3([H:13])[O:5][C@:6]1([H:14])[C@@:7]23[H:15])([H:8])([H:9])[H:10]>>[C:1]([C:2]1=[C:6]([H:14])[O:5][C@:4]2([H:13])[C:3]([H:11])([H:12])[C@:7]12[H:15])([H:8])([H:9])[H:10]"
C        1.99348839       0.22128169       0.06271439
C        0.51572654       0.35832817      -0.09684540
C       -1.01366953       0.38868100       1.09588953
C       -1.75082075      -0.21595553      -0.06246723
O       -1.52556085       0.50552150      -1.27034598
C       -0.16983806       0.13629846      -1.32977707
C       -0.40592776      -0.90697118       0.01733465
H        2.28457698       0.21433890       1.11533925
H        2.40445579      -0.69217229      -0.38078133
H        2.48766954       1.07124973      -0.41285071
H       -1.07905435       1.46680131       1.20148130
H       -1.17895283      -0.09945794       2.05255700
H       -2.72763740      -0.67621313       0.01871651
H        0.28175675       0.13511062      -2.31224762
H       -0.11621245      -1.90684132       0.30128270
15
Frame=13 idx=011394 GeodesicLength=1.1056315283938745 rxn_smarts="[C:1]([C@@:2]12[C:3]([H:11])([H:12])[C@@:4]3([H:13])[O:5][C@:6]1([H:14])[C@@:7]23[H:15])([H:8])([H:9])[H:10]>>[C:1]([C:2]1=[C:6]([H:14])[O:5][C@:4]2([H:13])[C:3]([H:11])([H:12])[C@:7]12[H:15])([H:8])([H:9])[H:10]"
C        1.99056666       0.22096126       0.06554819
C        0.51093680       0.31824938      -0.10087160
C       -1.00158528       0.38934767       1.09427279
C       -1.74607665      -0.21732993      -0.06109190
O       -1.52321426       0.50118784      -1.27081303
C       -0.17064488       0.13583389      -1.34018176
C       -0.40699015      -0.92277152       0.02483773
H        2.27744759       0.22212213       1.11946987
H        2.42195913      -0.68535947      -0.37169789
H        2.46899787       1.07906570      -0.41123084
H       -1.06918014       1.46909111       1.18990150
H       -1.17349455      -0.08367619       2.05723143
H       -2.72722458      -0.66729481       0.02495809
H        0.28086603       0.16964389      -2.32212730
H       -0.13236359      -1.92907093       0.30179471
15
Frame=14 idx=011394 GeodesicLength=1.1909491081642372 rxn_smarts="[C:1]([C@@:2]12[C:3]([H:11])([H:12])[C@@:4]3([H:13])[O:5][C@:6]1([H:14])[C@@:7]23[H:15])([H:8])([H:9])[H:10]>>[C:1]([C:2]1=[C:6]([H:14])[O:5][C@:4]2([H:13])[C:3]([H:11])([H:12])[C@:7]12[H:15])([H:8])([H:9])[H:10]"
C        1.98666520       0.22084095       0.06862460
C        0.50623904       0.27697644      -0.10630193
C       -0.98816320       0.38974888       1.09205393
C       -1.74110418      -0.21875901      -0.05966480
O       -1.52082606       0.49635048      -1.27150006
C       -0.17140731       0.13506672      -1.35091301
C       -0.40851790      -0.93957094       0.03215575
H        2.26794246       0.23064365       1.12411913
H        2.43943765      -0.67773761      -0.36144078
H        2.44909380       1.08701927      -0.40903490
H       -1.05702246       1.47108469       1.17755991
H       -1.16604696      -0.06753285       2.06139703
H       -2.72672932      -0.65762650       0.03189341
H        0.27982922       0.20557081      -2.33107445
H       -0.14938997      -1.95207498       0.30212617
15
Frame=15 idx=011394 GeodesicLength=1.2765824978624192 rxn_smarts="[C:1]([C@@:2]12[C:3]([H:11])([H:12])[C@@:4]3([H:13])[O:5][C@:6]1([H:14])[C@@:7]23[H:15])([H:8])([H:9])[H:10]>>[C:1]([C:2]1=[C:6]([H:14])[O:5][C@:4]2([H:13])[C:3]([H:11])([H:12])[C@:7]12[H:15])([H:8])([H:9])[H:10]"
C        1.98167063       0.22092687       0.07195164
C        0.50164572       0.23439234      -0.11323452
C       -0.97328938       0.38988246       1.08917136
C       -1.73585743      -0.22023874      -0.05817795
O       -1.51836268       0.49096245      -1.27243988
C       -0.17209184       0.13395685      -1.36202832
C       -0.41052170      -0.95739291       0.03929474
H        2.25582104       0.23975822       1.12932053
H        2.45686882      -0.66913525      -0.35005293
H        2.42775972       1.09525420      -0.40609423
H       -1.04240354       1.47280137       1.16435645
H       -1.15640196      -0.05097924       2.06502233
H       -2.72609615      -0.64713282       0.03959578
H        0.27864218       0.24284308      -2.33896646
H       -0.16738342      -1.97589888       0.30228147
15
Frame=16 idx=011394 GeodesicLength=1.362624125679891 rxn_smarts="[C:1]([C@@:2]12[C:3]([H:11])([H:12])[C@@:4]3([H:13])[O:5][C@:6]1([H:14])[C@@:7]23[H:15])([H:8])([H:9])[H:10]>>[C:1]([C:2]1=[C:6]([H:14])[O:5][C@:4]2([H:13])[C:3]([H:11])([H:12])[C@:7]12[H:15])([H:8])([H:9])[H:10]"
C        1.97545745       0.22124122       0.07552513
C        0.49715204       0.19046261      -0.12168614
C       -0.95685537       0.38969398       1.08557296
C       -1.73027770      -0.22173685      -0.05665276
O       -1.51579801       0.48506691      -1.27362704
C       -0.17267116       0.13259672      -1.37350683
C       -0.41298087      -0.97619582       0.04622864
H        2.24086607       0.24953773       1.13503406
H        2.47411444      -0.65947508      -0.33735574
H        2.40486214       1.10373901      -0.40245037
H       -1.02518763       1.47416529       1.15029062
H       -1.14433739      -0.03409625       2.06802540
H       -2.72522751      -0.63574940       0.04804583
H        0.27728286       0.28124192      -2.34564874
H       -0.18639937      -2.00049198       0.30220498
