15
Frame=0 idx=007169 GeodesicLength=0.0 rxn_smarts="[C:1]([C@@:2]1([H:11])[C:3]([H:12])([H:13])[N:4]1[C:5]([C:6]#[N:7])([H:14])[H:15])([H:8])([H:9])[H:10]>>[C:1]([C@@:2]12[C:3]([H:12])([H:13])[N:4]1[C:5]([H:14])([H:15])/[C:6]2=[N:7]/[H:11])([H:8])([H:9])[H:10]"
C       -1.53347970      -1.05606989       0.54248611
C       -0.46907480      -0.16664905      -0.01912787
C       -0.56642174       1.29991426      -0.11272172
N        0.34407485       0.69488831       0.86120390
C        1.67490480       0.51216521       0.28936468
C        1.30089533      -0.43123196      -0.82598778
N        1.48555810      -1.12700924      -1.79506649
H       -2.05334642      -0.55710123       1.36570676
H       -1.11055721      -1.98660836       0.92643471
H       -2.27283220      -1.30760309      -0.22102996
H        0.26117578      -0.93282594      -1.31138340
H       -0.14274976       1.81135641      -0.97439909
H       -1.40974300       1.80990122       0.34183151
H        2.15305649       1.43005921      -0.06096812
H        2.33853953       0.00681414       0.99365680
15
Frame=1 idx=007169 GeodesicLength=0.09274417519939891 rxn_smarts="[C:1]([C@@:2]1([H:11])[C:3]([H:12])([H:13])[N:4]1[C:5]([C:6]#[N:7])([H:14])[H:15])([H:8])([H:9])[H:10]>>[C:1]([C@@:2]12[C:3]([H:12])([H:13])[N:4]1[C:5]([H:14])([H:15])/[C:6]2=[N:7]/[H:11])([H:8])([H:9])[H:10]"
C       -1.53529795      -1.05511415       0.53669873
C       -0.46817684      -0.16713161      -0.02348244
C       -0.56495032       1.30097063      -0.10548387
N        0.34585476       0.68880993       0.86234435
C        1.67713494       0.51561058       0.28725947
C        1.31449243      -0.45111118      -0.80893921
N        1.49184987      -1.14088050      -1.78333009
H       -2.05051245      -0.55995930       1.36481483
H       -1.11551740      -1.99016065       0.91299391
H       -2.27833704      -1.29854997      -0.22588131
H        0.24300889      -0.93299403      -1.32175291
H       -0.14315950       1.81752062      -0.96488539
H       -1.40764868       1.80774967       0.35358562
H        2.14175443       1.43312818      -0.08223338
H        2.34950486       0.03211178       0.99829170
15
Frame=2 idx=007169 GeodesicLength=0.18545524097403876 rxn_smarts="[C:1]([C@@:2]1([H:11])[C:3]([H:12])([H:13])[N:4]1[C:5]([C:6]#[N:7])([H:14])[H:15])([H:8])([H:9])[H:10]>>[C:1]([C@@:2]12[C:3]([H:12])([H:13])[N:4]1[C:5]([H:14])([H:15])/[C:6]2=[N:7]/[H:11])([H:8])([H:9])[H:10]"
C       -1.53698599      -1.05412131       0.53074926
C       -0.46719959      -0.16749572      -0.02800811
C       -0.56353430       1.30207195      -0.09811542
N        0.34768627       0.68276189       0.86341177
C        1.67931484       0.51896546       0.28499416
C        1.32821202      -0.47121077      -0.79115466
N        1.49811025      -1.15512135      -1.77072075
H       -2.04748836      -0.56299109       1.36385208
H       -1.12032387      -1.99365508       0.89918836
H       -2.28373442      -1.28936499      -0.23079938
H        0.22472871      -0.93269213      -1.33244974
H       -0.14373446       1.82398681      -0.95509794
H       -1.40559950       1.80548358       0.36559765
H        2.13031968       1.43540800      -0.10399115
H        2.36022872       0.05797476       1.00254387
15
Frame=3 idx=007169 GeodesicLength=0.27810565406741855 rxn_smarts="[C:1]([C@@:2]1([H:11])[C:3]([H:12])([H:13])[N:4]1[C:5]([C:6]#[N:7])([H:14])[H:15])([H:8])([H:9])[H:10]>>[C:1]([C@@:2]12[C:3]([H:12])([H:13])[N:4]1[C:5]([H:14])([H:15])/[C:6]2=[N:7]/[H:11])([H:8])([H:9])[H:10]"
C       -1.53852277      -1.05309080       0.52462484
C       -0.46612246      -0.16773827      -0.03272250
C       -0.56217271       1.30321612      -0.09061788
N        0.34957063       0.67674961       0.86440372
C        1.68145050       0.52223524       0.28257047
C        1.34208722      -0.49146732      -0.77262008
N        1.50423863      -1.16977648      -1.75717867
H       -2.04425993      -0.56620411       1.36279834
H       -1.12495456      -1.99708230       0.88500757
H       -2.28900104      -1.28005795      -0.23579084
H        0.20630624      -0.93192670      -1.34348575
H       -0.14446919       1.83077626      -0.94501454
H       -1.40360053       1.80308635       0.37786220
H        2.11875884       1.43688850      -0.12621939
H        2.37069112       0.08439186       1.00638250
15
Frame=4 idx=007169 GeodesicLength=0.3706728059115924 rxn_smarts="[C:1]([C@@:2]1([H:11])[C:3]([H:12])([H:13])[N:4]1[C:5]([C:6]#[N:7])([H:14])[H:15])([H:8])([H:9])[H:10]>>[C:1]([C@@:2]12[C:3]([H:12])([H:13])[N:4]1[C:5]([H:14])([H:15])/[C:6]2=[N:7]/[H:11])([H:8])([H:9])[H:10]"
C       -1.53988772      -1.05202370       0.51831562
C       -0.46492168      -0.16786191      -0.03764106
C       -0.56085978       1.30439452      -0.08299988
N        0.35150883       0.67077722       0.86531913
C        1.68355027       0.52542322       0.27999727
C        1.35615854      -0.51182773      -0.75330607
N        1.51011426      -1.18484061      -1.74266114
H       -2.04081192      -0.56960417       1.36163492
H       -1.12939217      -2.00043556       0.87044536
H       -2.29411635      -1.27063648      -0.24085679
H        0.18770200      -0.93071448      -1.35488166
H       -0.14534791       1.83789658      -0.93462085
H       -1.40165369       1.80053873       0.39036026
H        2.10707831       1.43755015      -0.14889347
H        2.38087902       0.11136422       1.00978833
15
Frame=5 idx=007169 GeodesicLength=0.4631250749683901 rxn_smarts="[C:1]([C@@:2]1([H:11])[C:3]([H:12])([H:13])[N:4]1[C:5]([C:6]#[N:7])([H:14])[H:15])([H:8])([H:9])[H:10]>>[C:1]([C@@:2]12[C:3]([H:12])([H:13])[N:4]1[C:5]([H:14])([H:15])/[C:6]2=[N:7]/[H:11])([H:8])([H:9])[H:10]"
C       -1.54106396      -1.05091962       0.51181568
C       -0.46357901      -0.16786622      -0.04277309
C       -0.55959228       1.30560127      -0.07526849
N        0.35350052       0.66485147       0.86615843
C        1.68561885       0.52853030       0.27728211
C        1.37045200      -0.53223991      -0.73318846
N        1.51566599      -1.20032389      -1.72713612
H       -2.03713127      -0.57319471       1.36035081
H       -1.13361740      -2.00371108       0.85550051
H       -2.29906374      -1.26110883      -0.24599979
H        0.16887062      -0.92905915      -1.36666078
H       -0.14635727       1.84535515      -0.92390030
H       -1.39976199       1.79782599       0.40307448
H        2.09528346       1.43737459      -0.17198595
H        2.39077549       0.13888466       1.01273097
15
Frame=6 idx=007169 GeodesicLength=0.5555440856052404 rxn_smarts="[C:1]([C@@:2]1([H:11])[C:3]([H:12])([H:13])[N:4]1[C:5]([C:6]#[N:7])([H:14])[H:15])([H:8])([H:9])[H:10]>>[C:1]([C@@:2]12[C:3]([H:12])([H:13])[N:4]1[C:5]([H:14])([H:15])/[C:6]2=[N:7]/[H:11])([H:8])([H:9])[H:10]"
C       -1.54202868      -1.04978172       0.50512303
C       -0.46206517      -0.16776255      -0.04813210
C       -0.55835871       1.30681841      -0.06744514
N        0.35554532       0.65897467       0.86692071
C        1.68766753       0.53155686       0.27444522
C        1.38502902      -0.55266565      -0.71221338
N        1.52076117      -1.21616378      -1.71057294
H       -2.03319374      -0.57698175       1.35893622
H       -1.13761384      -2.00690630       0.84016963
H       -2.30382716      -1.25148126      -0.25120682
H        0.14972247      -0.92696781      -1.37887839
H       -0.14746656       1.85313674      -0.91285364
H       -1.39792444       1.79492490       0.41596118
H        2.08338509       1.43633500      -0.19545870
H        2.40036769       0.16696424       1.01520512
15
Frame=7 idx=007169 GeodesicLength=0.6479625692819124 rxn_smarts="[C:1]([C@@:2]1([H:11])[C:3]([H:12])([H:13])[N:4]1[C:5]([C:6]#[N:7])([H:14])[H:15])([H:8])([H:9])[H:10]>>[C:1]([C@@:2]12[C:3]([H:12])([H:13])[N:4]1[C:5]([H:14])([H:15])/[C:6]2=[N:7]/[H:11])([H:8])([H:9])[H:10]"
C       -1.54276101      -1.04861338       0.49823921
C       -0.46035624      -0.16755921      -0.05372616
C       -0.55715037       1.30803122      -0.05955015
N        0.35764247       0.65315155       0.86760514
C        1.68970501       0.53450376       0.27150264
C        1.39993310      -0.57305818      -0.69034945
N        1.52531425      -1.23232694      -1.69294022
H       -2.02897709      -0.58096909       1.35739098
H       -1.14136153      -2.01002212       0.82445421
H       -2.30839406      -1.24176032      -0.25646646
H        0.13016624      -0.92443028      -1.39159089
H       -0.14864873       1.86122676      -0.90148075
H       -1.39614155       1.79181721       0.42897939
H        2.07139256       1.43441396      -0.21926655
H        2.40963693       0.19559507       1.01719905
15
Frame=8 idx=007169 GeodesicLength=0.7404182604587771 rxn_smarts="[C:1]([C@@:2]1([H:11])[C:3]([H:12])([H:13])[N:4]1[C:5]([C:6]#[N:7])([H:14])[H:15])([H:8])([H:9])[H:10]>>[C:1]([C@@:2]12[C:3]([H:12])([H:13])[N:4]1[C:5]([H:14])([H:15])/[C:6]2=[N:7]/[H:11])([H:8])([H:9])[H:10]"
C       -1.54323724      -1.04741957       0.49116497
C       -0.45842106      -0.16727213      -0.05956858
C       -0.55595333       1.30921740      -0.05161328
N        0.35979107       0.64738282       0.86821002
C        1.69174418       0.53736959       0.26847827
C        1.41522920      -0.59337476      -0.66754062
N        1.52918735      -1.24872215      -1.67421127
H       -2.02445158      -0.58516288       1.35571067
H       -1.14484364      -2.01306016       0.80835265
H       -2.31275270      -1.23195094      -0.26175949
H        0.11009503      -0.92145166      -1.40485426
H       -0.14986562       1.86959928      -0.88979175
H       -1.39441143       1.78847933       0.44207229
H        2.05932133       1.43158072      -0.24335454
H        2.41856845       0.22478511       1.01870491
15
Frame=9 idx=007169 GeodesicLength=0.8330332385039653 rxn_smarts="[C:1]([C@@:2]1([H:11])[C:3]([H:12])([H:13])[N:4]1[C:5]([C:6]#[N:7])([H:14])[H:15])([H:8])([H:9])[H:10]>>[C:1]([C@@:2]12[C:3]([H:12])([H:13])[N:4]1[C:5]([H:14])([H:15])/[C:6]2=[N:7]/[H:11])([H:8])([H:9])[H:10]"
C       -1.54343798      -1.04620834       0.48391338
C       -0.45622465      -0.16693287      -0.06566705
C       -0.55473992       1.31034009      -0.04368149
N        0.36199937       0.64165768       0.86872561
C        1.69381130       0.54016002       0.26540467
C        1.43096530      -0.61360194      -0.64379463
N        1.53226201      -1.26526181      -1.65434529
H       -2.01958221      -0.58955786       1.35390986
H       -1.14805527      -2.01603569       0.79187618
H       -2.31689673      -1.22205712      -0.26705932
H        0.08931631      -0.91801820      -1.41878561
H       -0.15106618       1.87818685      -0.87782105
H       -1.39271397       1.78488943       0.45515949
H        2.04716846       1.42790302      -0.26760142
H        2.42719416       0.25453674       1.01976666
15
Frame=10 idx=007169 GeodesicLength=0.9256983062806599 rxn_smarts="[C:1]([C@@:2]1([H:11])[C:3]([H:12])([H:13])[N:4]1[C:5]([C:6]#[N:7])([H:14])[H:15])([H:8])([H:9])[H:10]>>[C:1]([C@@:2]12[C:3]([H:12])([H:13])[N:4]1[C:5]([H:14])([H:15])/[C:6]2=[N:7]/[H:11])([H:8])([H:9])[H:10]"
C       -1.54333672      -1.04498393       0.47647761
C       -0.45375134      -0.16653674      -0.07204141
C       -0.55351685       1.31139989      -0.03576510
N        0.36425730       0.63598736       0.86915244
C        1.69590196       0.54285983       0.26228238
C        1.44720440      -0.63363006      -0.61905383
N        1.53446997      -1.28192844      -1.63327332
H       -2.01433942      -0.59417771       1.35198305
H       -1.15096079      -2.01894545       0.77500319
H       -2.32081619      -1.21208392      -0.27234938
H        0.06778186      -0.91410835      -1.43339084
H       -0.15223367       1.88701574      -0.86554986
H       -1.39106812       1.78103307       0.46822018
H        2.03496708       1.42328007      -0.29202101
H        2.43544053       0.28481865       1.02032590
15
Frame=11 idx=007169 GeodesicLength=1.0183991324844808 rxn_smarts="[C:1]([C@@:2]1([H:11])[C:3]([H:12])([H:13])[N:4]1[C:5]([C:6]#[N:7])([H:14])[H:15])([H:8])([H:9])[H:10]>>[C:1]([C@@:2]12[C:3]([H:12])([H:13])[N:4]1[C:5]([H:14])([H:15])/[C:6]2=[N:7]/[H:11])([H:8])([H:9])[H:10]"
C       -1.54291045      -1.04375452       0.46886431
C       -0.45097582      -0.16610080      -0.07870330
C       -0.55227011       1.31237521      -0.02789788
N        0.36656461       0.63036976       0.86948633
C        1.69802995       0.54546902       0.25913507
C        1.46400542      -0.65340623      -0.59330518
N        1.53571590      -1.29866068      -1.61095765
H       -2.00868966      -0.59903182       1.34993480
H       -1.15354090      -2.02179589       0.75773357
H       -2.32450382      -1.20203911      -0.27760148
H        0.04535540      -0.90969046      -1.44872762
H       -0.15332692       1.89605195      -0.85299360
H       -1.38947051       1.77689287       0.48119309
H        2.02273422       1.41771179      -0.31655342
H        2.44328270       0.31560890       1.02039296
15
Frame=12 idx=007169 GeodesicLength=1.1111385648871344 rxn_smarts="[C:1]([C@@:2]1([H:11])[C:3]([H:12])([H:13])[N:4]1[C:5]([C:6]#[N:7])([H:14])[H:15])([H:8])([H:9])[H:10]>>[C:1]([C@@:2]12[C:3]([H:12])([H:13])[N:4]1[C:5]([H:14])([H:15])/[C:6]2=[N:7]/[H:11])([H:8])([H:9])[H:10]"
C       -1.54213567      -1.04253068       0.46108065
C       -0.44787138      -0.16564803      -0.08567109
C       -0.55098271       1.31324060      -0.02012108
N        0.36892119       0.62479695       0.86971924
C        1.70021264       0.54798257       0.25598712
C        1.48143959      -0.67286572      -0.56653771
N        1.53588839      -1.31536685      -1.58734468
H       -2.00259290      -0.60413257       1.34777403
H       -1.15578091      -2.02459784       0.74006149
H       -2.32795671      -1.19192744      -0.28277977
H        0.02188157      -0.90474063      -1.46485601
H       -0.15429751       1.90525635      -0.84017594
H       -1.38791506       1.77245072       0.49400913
H        2.01048994       1.41118915      -0.34112688
H        2.45069954       0.34689341       1.01998149
15
Frame=13 idx=007169 GeodesicLength=1.2038870785837685 rxn_smarts="[C:1]([C@@:2]1([H:11])[C:3]([H:12])([H:13])[N:4]1[C:5]([C:6]#[N:7])([H:14])[H:15])([H:8])([H:9])[H:10]>>[C:1]([C@@:2]12[C:3]([H:12])([H:13])[N:4]1[C:5]([H:14])([H:15])/[C:6]2=[N:7]/[H:11])([H:8])([H:9])[H:10]"
C       -1.54099199      -1.04132119       0.45313522
C       -0.44441911      -0.16519450      -0.09295831
C       -0.54964270       1.31397656      -0.01247034
N        0.37132589       0.61926198       0.86984245
C        1.70246280       0.55039591       0.25285788
C        1.49956227      -0.69193167      -0.53876790
N        1.53492197      -1.33201789      -1.56237311
H       -1.99601109      -0.60949221       1.34551437
H       -1.15766202      -2.02736144       0.72198086
H       -2.33117646      -1.18175355      -0.28785267
H       -0.00278506      -0.89921988      -1.48183278
H       -0.15510906       1.91459575      -0.82711417
H       -1.38639813       1.76769346       0.50660937
H        1.99826014       1.40373186      -0.36566163
H        2.45766255       0.37863682       1.01909076
15
Frame=14 idx=007169 GeodesicLength=1.296615928273784 rxn_smarts="[C:1]([C@@:2]1([H:11])[C:3]([H:12])([H:13])[N:4]1[C:5]([C:6]#[N:7])([H:14])[H:15])([H:8])([H:9])[H:10]>>[C:1]([C@@:2]12[C:3]([H:12])([H:13])[N:4]1[C:5]([H:14])([H:15])/[C:6]2=[N:7]/[H:11])([H:8])([H:9])[H:10]"
C       -1.53946105      -1.04013761       0.44503874
C       -0.44059862      -0.16476585      -0.10058530
C       -0.54823360       1.31455675      -0.00499299
N        0.37377534       0.61375147       0.86984465
C        1.70479708       0.55270427       0.24977492
C        1.51843813      -0.71052852      -0.51001223
N        1.53273450      -1.34850090      -1.53600151
H       -1.98890473      -0.61512321       1.34316923
H       -1.15917784      -2.03009931       0.70348960
H       -2.33416652      -1.17152318      -0.29277450
H       -0.02880497      -0.89310742      -1.49969043
H       -0.15571064       1.92402289      -0.81384411
H       -1.38491282       1.76260839       0.51891744
H        1.98607389       1.39533629      -0.39007076
H        2.46415184       0.41080595       1.01773725
15
Frame=15 idx=007169 GeodesicLength=1.3892935768347807 rxn_smarts="[C:1]([C@@:2]1([H:11])[C:3]([H:12])([H:13])[N:4]1[C:5]([C:6]#[N:7])([H:14])[H:15])([H:8])([H:9])[H:10]>>[C:1]([C@@:2]12[C:3]([H:12])([H:13])[N:4]1[C:5]([H:14])([H:15])/[C:6]2=[N:7]/[H:11])([H:8])([H:9])[H:10]"
C       -1.53752770      -1.03899037       0.43680311
C       -0.43639851      -0.16438171      -0.10857125
C       -0.54674262       1.31496029       0.00226835
N        0.37626584       0.60825055       0.86971158
C        1.70722921       0.55490523       0.24676080
C        1.53811861      -0.72856921      -0.48032148
N        1.52929184      -1.36476488      -1.50817917
H       -1.98123663      -0.62103747       1.34075558
H       -1.16031956      -2.03282232       0.68458366
H       -2.33693766      -1.16124080      -0.29750059
H       -0.05633109      -0.88636938      -1.51845296
H       -0.15606408       1.93349600      -0.80039578
H       -1.38345261       1.75718729       0.53086745
H        1.97396334       1.38603254      -0.41426434
H        2.47014163       0.44334424       1.01593506
15
Frame=16 idx=007169 GeodesicLength=1.481887705848603 rxn_smarts="[C:1]([C@@:2]1([H:11])[C:3]([H:12])([H:13])[N:4]1[C:5]([C:6]#[N:7])([H:14])[H:15])([H:8])([H:9])[H:10]>>[C:1]([C@@:2]12[C:3]([H:12])([H:13])[N:4]1[C:5]([H:14])([H:15])/[C:6]2=[N:7]/[H:11])([H:8])([H:9])[H:10]"
C       -1.53518304      -1.03789006       0.42843932
C       -0.43181316      -0.16406191      -0.11693569
C       -0.54515795       1.31516724       0.00927257
N        0.37879263       0.60274098       0.86942863
C        1.70977240       0.55699415       0.24383603
C        1.55864814      -0.74596321      -0.44975743
N        1.52458160      -1.38074859      -1.47885299
H       -1.97297164      -0.62724937       1.33829041
H       -1.16108979      -2.03554367       0.66525332
H       -2.33950604      -1.15090588      -0.30198451
H       -0.08550493      -0.87897958      -1.53812404
H       -0.15613132       1.94297256      -0.78680160
H       -1.38201024       1.75142557       0.54239845
H        1.96195918       1.37584525      -0.43815546
H        2.47561418       0.47619654       1.01369299
