14
Frame=0 idx=010949 GeodesicLength=0.0 rxn_smarts="[C:1]([c:2]1[c:3]([N:4]([H:11])[H:12])[c:5]([H:13])[c:6]([H:14])[o:7]1)([H:8])([H:9])[H:10]>>[C:1]([C@:2]12[C:3]([N:4]([H:11])[H:12])=[C:5]([H:13])[C@@:6]1([H:14])[O:7]2)([H:8])([H:9])[H:10]"
C       -1.28372603      -1.14993863       0.03592807
C       -0.38829593      -0.20315761       0.81203278
C        0.28809714       0.88912835       0.03890915
N       -0.44524921       1.91642204      -0.39406827
C        1.57981500       0.52469602      -0.17817768
C        1.40081468      -0.81362728       0.35642752
O        0.79690208      -0.92974402       1.49890993
H       -2.27342560      -0.69413305      -0.04941805
H       -0.96830773      -1.42035454      -0.98333685
H       -1.42170657      -2.06631376       0.61080089
H       -0.04248322       2.65695808      -0.93717355
H       -1.36730814       2.03614700      -0.01304767
H        2.43273068       0.99162359      -0.64148458
H        1.69214279      -1.73770620      -0.15630165
14
Frame=1 idx=010949 GeodesicLength=0.057199651312535814 rxn_smarts="[C:1]([c:2]1[c:3]([N:4]([H:11])[H:12])[c:5]([H:13])[c:6]([H:14])[o:7]1)([H:8])([H:9])[H:10]>>[C:1]([C@:2]12[C:3]([N:4]([H:11])[H:12])=[C:5]([H:13])[C@@:6]1([H:14])[O:7]2)([H:8])([H:9])[H:10]"
C       -1.29583408      -1.15533718       0.04184683
C       -0.37525974      -0.21473843       0.79008303
C        0.28729859       0.88665710       0.02703630
N       -0.44749329       1.91318432      -0.41353658
C        1.58394174       0.52689158      -0.17921779
C        1.40805774      -0.81351545       0.34682558
O        0.79380598      -0.92990114       1.49001445
H       -2.28114538      -0.68815225      -0.03129275
H       -0.99885256      -1.43600304      -0.97954947
H       -1.43423790      -2.06631522       0.62518128
H       -0.02642259       2.68278504      -0.89972163
H       -1.37429153       2.02494579      -0.04154933
H        2.44068309       1.00596223      -0.62273942
H        1.71974993      -1.73646335      -0.15338051
14
Frame=2 idx=010949 GeodesicLength=0.11430153457662684 rxn_smarts="[C:1]([c:2]1[c:3]([N:4]([H:11])[H:12])[c:5]([H:13])[c:6]([H:14])[o:7]1)([H:8])([H:9])[H:10]>>[C:1]([C@:2]12[C:3]([N:4]([H:11])[H:12])=[C:5]([H:13])[C@@:6]1([H:14])[O:7]2)([H:8])([H:9])[H:10]"
C       -1.30800052      -1.15999758       0.04759292
C       -0.36206101      -0.22677611       0.76727525
C        0.28694119       0.88417862       0.01559745
N       -0.44864334       1.91061475      -0.43202291
C        1.58840366       0.52916826      -0.17982385
C        1.41566708      -0.81347932       0.33708035
O        0.79055255      -0.93051215       1.48062376
H       -2.28836768      -0.68094712      -0.01308516
H       -1.03010096      -1.45084280      -0.97568367
H       -1.44699482      -2.06548963       0.63927293
H       -0.01342301       2.70522867      -0.86275444
H       -1.38064286       2.01341582      -0.07046140
H        2.44838554       1.02021263      -0.60358552
H        1.74828418      -1.73477406      -0.15002572
14
Frame=3 idx=010949 GeodesicLength=0.1712970204562226 rxn_smarts="[C:1]([c:2]1[c:3]([N:4]([H:11])[H:12])[c:5]([H:13])[c:6]([H:14])[o:7]1)([H:8])([H:9])[H:10]>>[C:1]([C@:2]12[C:3]([N:4]([H:11])[H:12])=[C:5]([H:13])[C@@:6]1([H:14])[O:7]2)([H:8])([H:9])[H:10]"
C       -1.32025904      -1.16405180       0.05316314
C       -0.34875909      -0.23937300       0.74349697
C        0.28694684       0.88165779       0.00449388
N       -0.44891656       1.90864150      -0.44963765
C        1.59319138       0.53151886      -0.18004867
C        1.42371149      -0.81353327       0.32726399
O        0.78709454      -0.93157218       1.47078076
H       -2.29513726      -0.67264824       0.00516148
H       -1.06206862      -1.46500483      -0.97172305
H       -1.45998652      -2.06397252       0.65315109
H       -0.00312175       2.72489879      -0.82622478
H       -1.38638317       2.00177294      -0.09956625
H        2.45582623       1.03432524      -0.58427856
H        1.77786152      -1.73265926      -0.14603235
14
Frame=4 idx=010949 GeodesicLength=0.2281913729067979 rxn_smarts="[C:1]([c:2]1[c:3]([N:4]([H:11])[H:12])[c:5]([H:13])[c:6]([H:14])[o:7]1)([H:8])([H:9])[H:10]>>[C:1]([C@:2]12[C:3]([N:4]([H:11])[H:12])=[C:5]([H:13])[C@@:6]1([H:14])[O:7]2)([H:8])([H:9])[H:10]"
C       -1.33261588      -1.16757964       0.05858884
C       -0.33535296      -0.25258164       0.71859008
C        0.28725274       0.87902751      -0.00644802
N       -0.44842884       1.90715952      -0.46655709
C        1.59824725       0.53389951      -0.18003125
C        1.43221081      -0.81366037       0.31739034
O        0.78340199      -0.93297280       1.46046505
H       -2.30142578      -0.66335019       0.02347726
H       -1.09483535      -1.47863433      -0.96759641
H       -1.47317579      -2.06177841       0.66694248
H        0.00484365       2.74235902      -0.78956840
H       -1.39156110       1.98994864      -0.12905580
H        2.46296921       1.04826918      -0.56495319
H        1.80847005      -1.73010602      -0.14124389
14
Frame=5 idx=010949 GeodesicLength=0.2849529489848979 rxn_smarts="[C:1]([c:2]1[c:3]([N:4]([H:11])[H:12])[c:5]([H:13])[c:6]([H:14])[o:7]1)([H:8])([H:9])[H:10]>>[C:1]([C@:2]12[C:3]([N:4]([H:11])[H:12])=[C:5]([H:13])[C@@:6]1([H:14])[O:7]2)([H:8])([H:9])[H:10]"
C       -1.34495160      -1.17058635       0.06371121
C       -0.32186910      -0.26650880       0.69246882
C        0.28774557       0.87625280      -0.01700275
N       -0.44740226       1.90600504      -0.48247786
C        1.60339212       0.53635273      -0.17956046
C        1.44109408      -0.81377705       0.30756571
O        0.77932002      -0.93468345       1.44964871
H       -2.30700750      -0.65305558       0.04159604
H       -1.12820164      -1.49170964      -0.96340969
H       -1.48647202      -2.05888326       0.68041810
H        0.01058473       2.75704329      -0.75413033
H       -1.39584251       1.97854214      -0.15755349
H        2.46950867       1.06193637      -0.54578620
H        1.84010145      -1.72692825      -0.13548781
14
Frame=6 idx=010949 GeodesicLength=0.34151474297613743 rxn_smarts="[C:1]([c:2]1[c:3]([N:4]([H:11])[H:12])[c:5]([H:13])[c:6]([H:14])[o:7]1)([H:8])([H:9])[H:10]>>[C:1]([C@:2]12[C:3]([N:4]([H:11])[H:12])=[C:5]([H:13])[C@@:6]1([H:14])[O:7]2)([H:8])([H:9])[H:10]"
C       -1.35739007      -1.17323493       0.06852575
C       -0.30833763      -0.28131265       0.66499744
C        0.28840292       0.87336240      -0.02725081
N       -0.44601440       1.90526372      -0.49750673
C        1.60875360       0.53891964      -0.17867812
C        1.45055137      -0.81394165       0.29790344
O        0.77484730      -0.93681668       1.43838965
H       -2.31207189      -0.64188661       0.05947696
H       -1.16229831      -1.50436624      -0.95915509
H       -1.50000433      -2.05552309       0.69365958
H        0.01437799       2.76954545      -0.71995687
H       -1.39940732       1.96778982      -0.18484204
H        2.47566204       1.07540591      -0.52704094
H        1.87292874      -1.72320509      -0.12852221
14
Frame=7 idx=010949 GeodesicLength=0.397911722848476 rxn_smarts="[C:1]([c:2]1[c:3]([N:4]([H:11])[H:12])[c:5]([H:13])[c:6]([H:14])[o:7]1)([H:8])([H:9])[H:10]>>[C:1]([C@:2]12[C:3]([N:4]([H:11])[H:12])=[C:5]([H:13])[C@@:6]1([H:14])[O:7]2)([H:8])([H:9])[H:10]"
C       -1.36980976      -1.17542813       0.07303999
C       -0.29466457      -0.29703262       0.63598866
C        0.28919764       0.87024939      -0.03716921
N       -0.44430585       1.90460099      -0.51171920
C        1.61418094       0.54154787      -0.17734679
C        1.46050340      -0.81406789       0.28837232
O        0.76988211      -0.93929319       1.42657269
H       -2.31633727      -0.62975983       0.07729810
H       -1.19725688      -1.51647335      -0.95482245
H       -1.51358111      -2.05147736       0.70664473
H        0.01638640       2.77977226      -0.68707072
H       -1.40217571       1.95739832      -0.21090469
H        2.48125482       1.08868724      -0.50845187
H        1.90672586      -1.71872371      -0.12043154
14
Frame=8 idx=010949 GeodesicLength=0.45409284004422096 rxn_smarts="[C:1]([c:2]1[c:3]([N:4]([H:11])[H:12])[c:5]([H:13])[c:6]([H:14])[o:7]1)([H:8])([H:9])[H:10]>>[C:1]([C@:2]12[C:3]([N:4]([H:11])[H:12])=[C:5]([H:13])[C@@:6]1([H:14])[O:7]2)([H:8])([H:9])[H:10]"
C       -1.38203630      -1.17730500       0.07693130
C       -0.28094474      -0.31376075       0.60525542
C        0.28990890       0.86685132      -0.04671300
N       -0.44257220       1.90409455      -0.52466637
C        1.61944386       0.54422773      -0.17551520
C        1.47090114      -0.81405126       0.27940096
O        0.76411662      -0.94177393       1.41434382
H       -2.31964030      -0.61690889       0.09428443
H       -1.23247968      -1.52832274      -0.95058961
H       -1.52714702      -2.04683626       0.71911070
H        0.01709090       2.78770985      -0.65618482
H       -1.40403683       1.94824932      -0.23385418
H        2.48585286       1.10126830      -0.49151220
H        1.94154281      -1.71344222      -0.11029127
14
Frame=9 idx=010949 GeodesicLength=0.5099824733783704 rxn_smarts="[C:1]([c:2]1[c:3]([N:4]([H:11])[H:12])[c:5]([H:13])[c:6]([H:14])[o:7]1)([H:8])([H:9])[H:10]>>[C:1]([C@:2]12[C:3]([N:4]([H:11])[H:12])=[C:5]([H:13])[C@@:6]1([H:14])[O:7]2)([H:8])([H:9])[H:10]"
C       -1.39422644      -1.17890622       0.08033186
C       -0.26710078      -0.33164878       0.57255420
C        0.29060146       0.86314280      -0.05606669
N       -0.44085128       1.90373074      -0.53663204
C        1.62471877       0.54697625      -0.17329778
C        1.48195955      -0.81395375       0.27094089
O        0.75759169      -0.94445497       1.40161499
H       -2.32214249      -0.60331477       0.11089315
H       -1.26854326      -1.53985897      -0.94635528
H       -1.54074712      -2.04172017       0.73119776
H        0.01668585       2.79388937      -0.62688484
H       -1.40528432       1.93998421      -0.25437926
H        2.48985382       1.11350498      -0.47574171
H        1.97748454      -1.70737072      -0.09817525
14
Frame=10 idx=010949 GeodesicLength=0.5656800392529218 rxn_smarts="[C:1]([c:2]1[c:3]([N:4]([H:11])[H:12])[c:5]([H:13])[c:6]([H:14])[o:7]1)([H:8])([H:9])[H:10]>>[C:1]([C@:2]12[C:3]([N:4]([H:11])[H:12])=[C:5]([H:13])[C@@:6]1([H:14])[O:7]2)([H:8])([H:9])[H:10]"
C       -1.40633827      -1.18019947       0.08323738
C       -0.25300030      -0.35082931       0.53744473
C        0.29118195       0.85889248      -0.06566468
N       -0.43923869       1.90344835      -0.54758185
C        1.62989140       0.54964886      -0.17112507
C        1.49367588      -0.81378310       0.26289044
O        0.75023103      -0.94712636       1.38813216
H       -2.32369117      -0.58889902       0.12708875
H       -1.30560193      -1.55132234      -0.94200046
H       -1.55438938      -2.03586138       0.74315570
H        0.01544104       2.79844773      -0.59877096
H       -1.40604156       1.93247854      -0.27232638
H        2.49327152       1.12556851      -0.46072281
H        2.01460848      -1.70046348      -0.08375696
14
Frame=11 idx=010949 GeodesicLength=0.6212069982517935 rxn_smarts="[C:1]([c:2]1[c:3]([N:4]([H:11])[H:12])[c:5]([H:13])[c:6]([H:14])[o:7]1)([H:8])([H:9])[H:10]>>[C:1]([C@:2]12[C:3]([N:4]([H:11])[H:12])=[C:5]([H:13])[C@@:6]1([H:14])[O:7]2)([H:8])([H:9])[H:10]"
C       -1.41831822      -1.18113153       0.08566642
C       -0.23852208      -0.37142901       0.49947863
C        0.29162250       0.85389513      -0.07596839
N       -0.43773222       1.90323228      -0.55756613
C        1.63493998       0.55213730      -0.16933339
C        1.50611156      -0.81352779       0.25529097
O        0.74189531      -0.94958067       1.37373666
H       -2.32413890      -0.57358225       0.14305214
H       -1.34392747      -1.56274695      -0.93740272
H       -1.56796917      -2.02910538       0.75509698
H        0.01348352       2.80162611      -0.57086659
H       -1.40646284       1.92538877      -0.28812582
H        2.49612525       1.13750737      -0.44640860
H        2.05289278      -1.69268337      -0.06665019
14
Frame=12 idx=010949 GeodesicLength=0.6765826200935777 rxn_smarts="[C:1]([c:2]1[c:3]([N:4]([H:11])[H:12])[c:5]([H:13])[c:6]([H:14])[o:7]1)([H:8])([H:9])[H:10]>>[C:1]([C@:2]12[C:3]([N:4]([H:11])[H:12])=[C:5]([H:13])[C@@:6]1([H:14])[O:7]2)([H:8])([H:9])[H:10]"
C       -1.43011954      -1.18166510       0.08752680
C       -0.22354746      -0.39367281       0.45814364
C        0.29182591       0.84788903      -0.08752127
N       -0.43653729       1.90308987      -0.56644900
C        1.63981764       0.55430290      -0.16841006
C        1.51932900      -0.81323861       0.24815003
O        0.73244104      -0.95162744       1.35819293
H       -2.32334348      -0.55727717       0.15862520
H       -1.38373884      -1.57429418      -0.93247050
H       -1.58150270      -2.02124812       0.76713466
H        0.01101196       2.80342259      -0.54308753
H       -1.40664402       1.91882260      -0.30106681
H        2.49842712       1.14945799      -0.43261076
H        2.09258067      -1.68396157      -0.04615733
14
Frame=13 idx=010949 GeodesicLength=0.7318899221122631 rxn_smarts="[C:1]([c:2]1[c:3]([N:4]([H:11])[H:12])[c:5]([H:13])[c:6]([H:14])[o:7]1)([H:8])([H:9])[H:10]>>[C:1]([C@:2]12[C:3]([N:4]([H:11])[H:12])=[C:5]([H:13])[C@@:6]1([H:14])[O:7]2)([H:8])([H:9])[H:10]"
C       -1.44152363      -1.18159819       0.08889679
C       -0.20786915      -0.41767305       0.41290919
C        0.29182596       0.84050105      -0.10133414
N       -0.43540822       1.90307414      -0.57429585
C        1.64450592       0.55591818      -0.16899704
C        1.53331155      -0.81283883       0.24157620
O        0.72163998      -0.95274222       1.34136273
H       -2.32093045      -0.53973634       0.17406466
H       -1.42526265      -1.58592588      -0.92691222
H       -1.59472252      -2.01187550       0.77948150
H        0.00781106       2.80402355      -0.51258256
H       -1.40678643       1.91181420      -0.31283591
H        2.50012205       1.16127098      -0.41960389
H        2.13328654      -1.67421209      -0.02172947
14
Frame=14 idx=010949 GeodesicLength=0.7870982756234289 rxn_smarts="[C:1]([c:2]1[c:3]([N:4]([H:11])[H:12])[c:5]([H:13])[c:6]([H:14])[o:7]1)([H:8])([H:9])[H:10]>>[C:1]([C@:2]12[C:3]([N:4]([H:11])[H:12])=[C:5]([H:13])[C@@:6]1([H:14])[O:7]2)([H:8])([H:9])[H:10]"
C       -1.45206689      -1.18077399       0.08931125
C       -0.19153081      -0.44347443       0.36404391
C        0.29135044       0.83161270      -0.11696680
N       -0.43503191       1.90275673      -0.58053473
C        1.64869849       0.55689065      -0.17093930
C        1.54780226      -0.81232676       0.23598558
O        0.70909428      -0.95281123       1.32330047
H       -2.31654719      -0.52115454       0.18881060
H       -1.46778655      -1.59683240      -0.92121294
H       -1.60728498      -2.00115966       0.79115122
H        0.00437842       2.80257333      -0.48236174
H       -1.40674539       1.90531590      -0.31981153
H        2.50073562       1.17245697      -0.40856551
H        2.17493422      -1.66307327       0.00778954
14
Frame=15 idx=010949 GeodesicLength=0.8420634122568113 rxn_smarts="[C:1]([c:2]1[c:3]([N:4]([H:11])[H:12])[c:5]([H:13])[c:6]([H:14])[o:7]1)([H:8])([H:9])[H:10]>>[C:1]([C@:2]12[C:3]([N:4]([H:11])[H:12])=[C:5]([H:13])[C@@:6]1([H:14])[O:7]2)([H:8])([H:9])[H:10]"
C       -1.46144299      -1.17904055       0.08890671
C       -0.17445971      -0.47088069       0.31206525
C        0.29047072       0.82108442      -0.13514579
N       -0.43512326       1.90234113      -0.58533174
C        1.65246719       0.55705148      -0.17474410
C        1.56259702      -0.81172750       0.23154489
O        0.69485640      -0.95144695       1.30422831
H       -2.31000194      -0.50157751       0.20324421
H       -1.51116575      -1.60645822      -0.91522998
H       -1.61883042      -1.98928922       0.80196038
H        0.00043962       2.79940778      -0.44962534
H       -1.40684017       1.89837931      -0.32424461
H        2.50042987       1.18273915      -0.40031754
H        2.21660343      -1.65058264       0.04268934
14
Frame=16 idx=010949 GeodesicLength=0.896930959310494 rxn_smarts="[C:1]([c:2]1[c:3]([N:4]([H:11])[H:12])[c:5]([H:13])[c:6]([H:14])[o:7]1)([H:8])([H:9])[H:10]>>[C:1]([C@:2]12[C:3]([N:4]([H:11])[H:12])=[C:5]([H:13])[C@@:6]1([H:14])[O:7]2)([H:8])([H:9])[H:10]"
C       -1.46918774      -1.17624287       0.08764700
C       -0.15683703      -0.49939186       0.25828544
C        0.28904709       0.80890489      -0.15590913
N       -0.43584883       1.90168375      -0.58856627
C        1.65558158       0.55610078      -0.18092525
C        1.57710963      -0.81121249       0.22801498
O        0.67909209      -0.94843692       1.28431422
H       -2.30115418      -0.48131633       0.21714358
H       -1.55436793      -1.61403038      -0.90909592
H       -1.62905279      -1.97648092       0.81141672
H       -0.00382627       2.79414825      -0.41477337
H       -1.40713689       1.89102350      -0.32563288
H        2.49909455       1.19179782      -0.39508920
H        2.25748673      -1.63654723       0.08317008
