13
Frame=0 idx=004527 GeodesicLength=0.0 rxn_smarts="[C:1]([C@@:2]1([H:10])[C:3]([H:11])([H:12])[N:4]=[C:5]([H:13])[O:6]1)([H:7])([H:8])[H:9]>>[C:1]([C:2](=[O:6])[H:10])([H:7])([H:8])[H:9].[C:3](=[N+:4]=[C-:5][H:13])([H:11])[H:12]"
C        1.63282951       0.52986132       0.16552028
C        0.51834486       0.29132611      -0.83217934
C       -0.60577360      -1.23728872       0.32066054
N       -1.65512043      -0.41930296       0.43562667
C       -2.15918244       0.60415404       0.17517188
O       -0.30579923       1.18718986      -1.07671093
H        2.33993766       1.24477477      -0.26434657
H        1.23342203       0.97060296       1.08062571
H        2.17263598      -0.38722856       0.40606990
H        0.72146639      -0.47175799      -1.60092354
H       -0.77705339      -2.09342585      -0.32213342
H       -0.07723036      -1.43041283       1.24759085
H       -3.03847694       1.21150781       0.26502798
13
Frame=1 idx=004527 GeodesicLength=0.06471657737623913 rxn_smarts="[C:1]([C@@:2]1([H:10])[C:3]([H:11])([H:12])[N:4]=[C:5]([H:13])[O:6]1)([H:7])([H:8])[H:9]>>[C:1]([C:2](=[O:6])[H:10])([H:7])([H:8])[H:9].[C:3](=[N+:4]=[C-:5][H:13])([H:11])[H:12]"
C        1.62014498       0.55399902       0.16970545
C        0.52289148       0.26732273      -0.83322791
C       -0.61847981      -1.25633081       0.30337535
N       -1.65466278      -0.42461496       0.45075939
C       -2.11755578       0.62449250       0.19775988
O       -0.31544422       1.14683553      -1.10941263
H        2.32871380       1.25850607      -0.27448867
H        1.20211719       1.02134650       1.06302588
H        2.16564332      -0.34780776       0.45194354
H        0.75892366      -0.50121715      -1.58645979
H       -0.80916033      -2.09054911      -0.36276114
H       -0.08989954      -1.48729520       1.22184148
H       -2.99323198       1.23531264       0.30793918
13
Frame=2 idx=004527 GeodesicLength=0.12862306062154333 rxn_smarts="[C:1]([C@@:2]1([H:10])[C:3]([H:11])([H:12])[N:4]=[C:5]([H:13])[O:6]1)([H:7])([H:8])[H:9]>>[C:1]([C:2](=[O:6])[H:10])([H:7])([H:8])[H:9].[C:3](=[N+:4]=[C-:5][H:13])([H:11])[H:12]"
C        1.60857290       0.57733933       0.17288864
C        0.52701412       0.24544115      -0.83195993
C       -0.63132879      -1.27445720       0.28717590
N       -1.65510970      -0.43105097       0.46453849
C       -2.07764359       0.64068282       0.21667066
O       -0.32479744       1.10892119      -1.13630375
H        2.32027726       1.26884463      -0.28624002
H        1.17473597       1.07201781       1.04365469
H        2.15652838      -0.30918865       0.49604708
H        0.79268077      -0.52725712      -1.57037733
H       -0.83856818      -2.08637658      -0.40157114
H       -0.10457145      -1.54159450       1.19706847
H       -2.94779023       1.25667808       0.34840823
13
Frame=3 idx=004527 GeodesicLength=0.1915921838050182 rxn_smarts="[C:1]([C@@:2]1([H:10])[C:3]([H:11])([H:12])[N:4]=[C:5]([H:13])[O:6]1)([H:7])([H:8])[H:9]>>[C:1]([C:2](=[O:6])[H:10])([H:7])([H:8])[H:9].[C:3](=[N+:4]=[C-:5][H:13])([H:11])[H:12]"
C        1.59851541       0.59982208       0.17511768
C        0.53068281       0.22565984      -0.82839489
C       -0.64428639      -1.29154389       0.27205933
N       -1.65656034      -0.43836638       0.47723579
C       -2.03980691       0.65328766       0.23276521
O       -0.33380222       1.07382415      -1.15759806
H        2.31492628       1.27569598      -0.29941809
H        1.15181362       1.12258146       1.02261095
H        2.14591845      -0.27147448       0.53828043
H        0.82277044      -0.54999113      -1.55300599
H       -0.86548072      -2.08086678      -0.43861106
H       -0.12110068      -1.59346901       1.17329964
H       -2.90358976       1.27484050       0.38565908
13
Frame=4 idx=004527 GeodesicLength=0.2535422276166045 rxn_smarts="[C:1]([C@@:2]1([H:10])[C:3]([H:11])([H:12])[N:4]=[C:5]([H:13])[O:6]1)([H:7])([H:8])[H:9]>>[C:1]([C:2](=[O:6])[H:10])([H:7])([H:8])[H:9].[C:3](=[N+:4]=[C-:5][H:13])([H:11])[H:12]"
C        1.59022233       0.62147830       0.17645801
C        0.53392737       0.20787877      -0.82262939
C       -0.65732378      -1.30760628       0.25798813
N       -1.65911783      -0.44643365       0.48897570
C       -2.00446554       0.66269163       0.24640491
O       -0.34238543       1.04174954      -1.17371889
H        2.31274556       1.27916421      -0.31380597
H        1.13356692       1.17303674       0.99999388
H        2.13436504      -0.23463659       0.57862465
H        0.84943000      -0.56967782      -1.53465667
H       -0.88998910      -2.07418458      -0.47393459
H       -0.13944313      -1.64311141       1.15056467
H       -2.86153244       1.28965116       0.41973555
13
Frame=5 idx=004527 GeodesicLength=0.31445767610212855 rxn_smarts="[C:1]([C@@:2]1([H:10])[C:3]([H:11])([H:12])[N:4]=[C:5]([H:13])[O:6]1)([H:7])([H:8])[H:9]>>[C:1]([C:2](=[O:6])[H:10])([H:7])([H:8])[H:9].[C:3](=[N+:4]=[C-:5][H:13])([H:11])[H:12]"
C        1.58396954       0.64228115       0.17694863
C        0.53677704       0.19203670      -0.81474441
C       -0.67040913      -1.32265860       0.24498296
N       -1.66287494      -0.45510709       0.49999902
C       -1.97173523       0.66950727       0.25850899
O       -0.35054571       1.01293669      -1.18495528
H        2.31377030       1.27936446      -0.32926543
H        1.12026459       1.22323345       0.97595861
H        2.12253422      -0.19871878       0.61696317
H        0.87284925      -0.58648651      -1.51565740
H       -0.91224054      -2.06640049      -0.50758008
H       -0.15946282      -1.69077983       1.12888821
H       -2.82289655       1.30079157       0.44995299
13
Frame=6 idx=004527 GeodesicLength=0.3743919801274914 rxn_smarts="[C:1]([C@@:2]1([H:10])[C:3]([H:11])([H:12])[N:4]=[C:5]([H:13])[O:6]1)([H:7])([H:8])[H:9]>>[C:1]([C:2](=[O:6])[H:10])([H:7])([H:8])[H:9].[C:3](=[N+:4]=[C-:5][H:13])([H:11])[H:12]"
C        1.57978548       0.66226994       0.17666972
C        0.53919505       0.17794919      -0.80477959
C       -0.68352733      -1.33668243       0.23293100
N       -1.66764709      -0.46423586       0.51054375
C       -1.94116408       0.67423681       0.27010553
O       -0.35832533       0.98722468      -1.19157661
H        2.31774412       1.27639300      -0.34557700
H        1.11193267       1.27314742       0.95051124
H        2.11076454      -0.16347841       0.65337497
H        0.89312660      -0.60069562      -1.49612527
H       -0.93260410      -2.05742440      -0.53971717
H       -0.18096510      -1.73668568       1.10795048
H       -2.78831542       1.30798134       0.47568895
13
Frame=7 idx=004527 GeodesicLength=0.43350198917289817 rxn_smarts="[C:1]([C@@:2]1([H:10])[C:3]([H:11])([H:12])[N:4]=[C:5]([H:13])[O:6]1)([H:7])([H:8])[H:9]>>[C:1]([C:2](=[O:6])[H:10])([H:7])([H:8])[H:9].[C:3](=[N+:4]=[C-:5][H:13])([H:11])[H:12]"
C        1.57729663       0.68176920       0.17576101
C        0.54137263       0.16521165      -0.79307877
C       -0.69667813      -1.35000828       0.22154969
N       -1.67347189      -0.47392592       0.52031280
C       -1.91319287       0.67675717       0.28018017
O       -0.36565817       0.96396372      -1.19484498
H        2.32412194       1.27080021      -0.36231119
H        1.10752813       1.32293814       0.92347145
H        2.09907221      -0.12829496       0.68837740
H        0.91114800      -0.61299257      -1.47603722
H       -0.95111340      -2.04770172      -0.57059448
H       -0.20404811      -1.78120081       1.08758604
H       -2.75637697       1.31268417       0.49962808
13
Frame=8 idx=004527 GeodesicLength=0.4919268445702532 rxn_smarts="[C:1]([C@@:2]1([H:10])[C:3]([H:11])([H:12])[N:4]=[C:5]([H:13])[O:6]1)([H:7])([H:8])[H:9]>>[C:1]([C:2](=[O:6])[H:10])([H:7])([H:8])[H:9].[C:3](=[N+:4]=[C-:5][H:13])([H:11])[H:12]"
C        1.57665598       0.70068754       0.17422934
C        0.54326776       0.15379834      -0.77956269
C       -0.70985161      -1.36258440       0.21086478
N       -1.68013642      -0.48398047       0.52983988
C       -1.88713931       0.67773590       0.29032958
O       -0.37263316       0.94324608      -1.19456881
H        2.33277310       1.26254963      -0.37946818
H        1.10737040       1.37245062       0.89487401
H        2.08786918      -0.09311138       0.72188901
H        0.92682452      -0.62339661      -1.45552440
H       -0.96820556      -2.03696464      -0.60030994
H       -0.22840953      -1.82462302       1.06746500
H       -2.72838535       1.31419242       0.51994242
13
Frame=9 idx=004527 GeodesicLength=0.5498057454728332 rxn_smarts="[C:1]([C@@:2]1([H:10])[C:3]([H:11])([H:12])[N:4]=[C:5]([H:13])[O:6]1)([H:7])([H:8])[H:9]>>[C:1]([C:2](=[O:6])[H:10])([H:7])([H:8])[H:9].[C:3](=[N+:4]=[C-:5][H:13])([H:11])[H:12]"
C        1.57736586       0.71932214       0.17218140
C        0.54500796       0.14333884      -0.76449377
C       -0.72304792      -1.37467258       0.20057242
N       -1.68772680      -0.49457058       0.53853722
C       -1.86313224       0.67704613       0.29965747
O       -0.37917997       0.92435280      -1.19178369
H        2.34311692       1.25203853      -0.39660417
H        1.11035806       1.42181569       0.86441363
H        2.07687686      -0.05729708       0.75434081
H        0.94083715      -0.63249816      -1.43443294
H       -0.98369984      -2.02564966      -0.62910300
H       -0.25425034      -1.86704250       1.04744793
H       -2.70252570       1.31381644       0.53926669
13
Frame=10 idx=004527 GeodesicLength=0.6072058413542281 rxn_smarts="[C:1]([C@@:2]1([H:10])[C:3]([H:11])([H:12])[N:4]=[C:5]([H:13])[O:6]1)([H:7])([H:8])[H:9]>>[C:1]([C:2](=[O:6])[H:10])([H:7])([H:8])[H:9].[C:3](=[N+:4]=[C-:5][H:13])([H:11])[H:12]"
C        1.57974744       0.73748382       0.16959088
C        0.54655411       0.13393953      -0.74769867
C       -0.73625037      -1.38617014       0.19084118
N       -1.69609460      -0.50550829       0.54702540
C       -1.84093725       0.67511337       0.30923840
O       -0.38537268       0.90762460      -1.18606418
H        2.35510721       1.23930606      -0.41382925
H        1.11707694       1.47059934       0.83232663
H        2.06678282      -0.02101822       0.78538637
H        0.95296336      -0.64010876      -1.41291592
H       -0.99795483      -2.01344946      -0.65688479
H       -0.28125903      -1.90863775       1.02738280
H       -2.68036313       1.31082589       0.55560117
13
Frame=11 idx=004527 GeodesicLength=0.6642578435009561 rxn_smarts="[C:1]([C@@:2]1([H:10])[C:3]([H:11])([H:12])[N:4]=[C:5]([H:13])[O:6]1)([H:7])([H:8])[H:9]>>[C:1]([C:2](=[O:6])[H:10])([H:7])([H:8])[H:9].[C:3](=[N+:4]=[C-:5][H:13])([H:11])[H:12]"
C        1.58338310       0.75540629       0.16653067
C        0.54801878       0.12530688      -0.72937444
C       -0.74947893      -1.39727436       0.18143159
N       -1.70532496      -0.51690902       0.55484748
C       -1.82047798       0.67192733       0.31859665
O       -0.39116213       0.89245222      -1.17820236
H        2.36828792       1.22467449      -0.43080289
H        1.12656799       1.51883656       0.79835926
H        2.05738320       0.01625378       0.81533070
H        0.96374050      -0.64668789      -1.39082556
H       -1.01084859      -2.00066739      -0.68387589
H       -0.30962012      -1.94949814       1.00713426
H       -2.66046878       1.30617924       0.57085051
13
Frame=12 idx=004527 GeodesicLength=0.721135968952681 rxn_smarts="[C:1]([C@@:2]1([H:10])[C:3]([H:11])([H:12])[N:4]=[C:5]([H:13])[O:6]1)([H:7])([H:8])[H:9]>>[C:1]([C:2](=[O:6])[H:10])([H:7])([H:8])[H:9].[C:3](=[N+:4]=[C-:5][H:13])([H:11])[H:12]"
C        1.58813126       0.77316179       0.16301604
C        0.54942616       0.11733236      -0.70949616
C       -0.76276658      -1.40809135       0.17219977
N       -1.71531283      -0.52879678       0.56209565
C       -1.80143744       0.66760276       0.32809510
O       -0.39657094       0.87859816      -1.16834185
H        2.38252599       1.20802984      -0.44740419
H        1.13866643       1.56673453       0.76208057
H        2.04843289       0.05498728       0.84456394
H        0.97333312      -0.65238677      -1.36804526
H       -1.02262236      -1.98725054      -0.71027415
H       -0.33924157      -1.98989350       0.98629825
H       -2.64256413       1.29997223       0.58521229
13
Frame=13 idx=004527 GeodesicLength=0.7779096741913174 rxn_smarts="[C:1]([C@@:2]1([H:10])[C:3]([H:11])([H:12])[N:4]=[C:5]([H:13])[O:6]1)([H:7])([H:8])[H:9]>>[C:1]([C:2](=[O:6])[H:10])([H:7])([H:8])[H:9].[C:3](=[N+:4]=[C-:5][H:13])([H:11])[H:12]"
C        1.59383667       0.79081777       0.15907290
C        0.55084862       0.10988280      -0.68809228
C       -0.77610758      -1.41869011       0.16304624
N       -1.72606285      -0.54115710       0.56870522
C       -1.78380705       0.66220209       0.33760666
O       -0.40158782       0.86579142      -1.15680469
H        2.39759602       1.18950419      -0.46344007
H        1.15294813       1.61414764       0.72332515
H        2.03997152       0.09550744       0.87314801
H        0.98202095      -0.65741875      -1.34446903
H       -1.03327781      -1.97323358      -0.73620311
H       -0.37016121      -2.02992070       0.96471771
H       -2.62621757       1.29256689       0.59938729
13
Frame=14 idx=004527 GeodesicLength=0.8345846048334785 rxn_smarts="[C:1]([C@@:2]1([H:10])[C:3]([H:11])([H:12])[N:4]=[C:5]([H:13])[O:6]1)([H:7])([H:8])[H:9]>>[C:1]([C:2](=[O:6])[H:10])([H:7])([H:8])[H:9].[C:3](=[N+:4]=[C-:5][H:13])([H:11])[H:12]"
C        1.60050341       0.80828941       0.15467927
C        0.55225513       0.10300517      -0.66505549
C       -0.78944884      -1.42901050       0.15405744
N       -1.73756306      -0.55395407       0.57464997
C       -1.76748716       0.65586413       0.34732915
O       -0.40619469       0.85414275      -1.14344140
H        2.41324169       1.16928335      -0.47881612
H        1.16939555       1.66057004       0.68226005
H        2.03233780       0.13770586       0.90065497
H        0.98966624      -0.66170337      -1.32009274
H       -1.04267647      -1.95859780      -0.76151801
H       -0.40233715      -2.06945501       0.94240897
H       -2.61169248       1.28386005       0.61288393
13
Frame=15 idx=004527 GeodesicLength=0.8912284166950342 rxn_smarts="[C:1]([C@@:2]1([H:10])[C:3]([H:11])([H:12])[N:4]=[C:5]([H:13])[O:6]1)([H:7])([H:8])[H:9]>>[C:1]([C:2](=[O:6])[H:10])([H:7])([H:8])[H:9].[C:3](=[N+:4]=[C-:5][H:13])([H:11])[H:12]"
C        1.60810594       0.82559426       0.14983603
C        0.55369074       0.09664600      -0.64034272
C       -0.80280519      -1.43909320       0.14515937
N       -1.74979601      -0.56718275       0.58002517
C       -1.75246723       0.64862647       0.35736704
O       -0.41041130       0.84351030      -1.12834649
H        2.42944113       1.14732532      -0.49342077
H        1.18792338       1.70595680       0.63865645
H        2.02553008       0.18190003       0.92722503
H        0.99640338      -0.66532516      -1.29486038
H       -1.05094238      -1.94328603      -0.78633861
H       -0.43571133      -2.10858370       0.91913294
H       -2.59896123       1.27391167       0.62590697
13
Frame=16 idx=004527 GeodesicLength=0.9479420949649463 rxn_smarts="[C:1]([C@@:2]1([H:10])[C:3]([H:11])([H:12])[N:4]=[C:5]([H:13])[O:6]1)([H:7])([H:8])[H:9]>>[C:1]([C:2](=[O:6])[H:10])([H:7])([H:8])[H:9].[C:3](=[N+:4]=[C-:5][H:13])([H:11])[H:12]"
C        1.61646551       0.84276816       0.14455674
C        0.55517190       0.09074057      -0.61387475
C       -0.81616595      -1.44899618       0.13623455
N       -1.76268454      -0.58086617       0.58477887
C       -1.73856166       0.64052430       0.36780348
O       -0.41422519       0.83372029      -1.11159631
H        2.44603664       1.12349493      -0.50702981
H        1.20828104       1.75029281       0.59207518
H        2.01933743       0.22850692       0.95298634
H        1.00233088      -0.66839492      -1.26858874
H       -1.05808984      -1.92725205      -0.81077350
H       -0.47027683      -2.14742336       0.89455850
H       -2.58761939       1.26288472       0.63886946
