13
Frame=0 idx=004833 GeodesicLength=0.0 rxn_smarts="[C:1]([C@@:2]1([H:10])[N:3]([H:11])[C:4]([H:12])([H:13])[C:5]1=[O:6])([H:7])([H:8])[H:9]>>[C:1]([C:2]1=[C:5]([O-:6])[C:4]([H:12])([H:13])[N+:3]1([H:10])[H:11])([H:7])([H:8])[H:9]"
C       -1.80716086      -0.12896350      -0.15615896
C       -0.44046588       0.11528980       0.37007470
N        0.75466212      -0.98783377       0.21416263
C        1.67728800       0.13963353      -0.02663365
C        0.52421558       1.14928553       0.13381808
O        0.49078649       2.35212760       0.04301452
H       -2.32127816      -0.94617210       0.35349865
H       -1.82303642      -0.32479191      -1.23573830
H       -2.38811281       0.77821082       0.02003198
H        0.16496233      -0.76466768       1.18780303
H        0.61902080      -1.69558732      -0.49493246
H        2.02177370       0.12416145      -1.06100268
H        2.52734513       0.18930754       0.65206240
13
Frame=1 idx=004833 GeodesicLength=0.05182978866306168 rxn_smarts="[C:1]([C@@:2]1([H:10])[N:3]([H:11])[C:4]([H:12])([H:13])[C:5]1=[O:6])([H:7])([H:8])[H:9]>>[C:1]([C:2]1=[C:5]([O-:6])[C:4]([H:12])([H:13])[N+:3]1([H:10])[H:11])([H:7])([H:8])[H:9]"
C       -1.80698116      -0.12724516      -0.15636706
C       -0.43801250       0.11236186       0.36712463
N        0.74881617      -0.98156987       0.20586908
C        1.67729145       0.14181807      -0.03314182
C        0.52393305       1.15080576       0.13086897
O        0.48902951       2.35393105       0.04648046
H       -2.32069986      -0.94589736       0.35168065
H       -1.82467324      -0.32086258      -1.23609124
H       -2.38673728       0.77986529       0.02389031
H        0.16029482      -0.77059341       1.19683072
H        0.62692636      -1.70871635      -0.48470228
H        2.02881349       0.12692665      -1.06511955
H        2.52199920       0.18917605       0.65267712
13
Frame=2 idx=004833 GeodesicLength=0.1036532434673073 rxn_smarts="[C:1]([C@@:2]1([H:10])[N:3]([H:11])[C:4]([H:12])([H:13])[C:5]1=[O:6])([H:7])([H:8])[H:9]>>[C:1]([C:2]1=[C:5]([O-:6])[C:4]([H:12])([H:13])[N+:3]1([H:10])[H:11])([H:7])([H:8])[H:9]"
C       -1.80680191      -0.12547217      -0.15659819
C       -0.43560040       0.10947487       0.36422867
N        0.74297225      -0.97535019       0.19729719
C        1.67724212       0.14402495      -0.03977954
C        0.52362171       1.15233866       0.12795781
O        0.48728400       2.35572286       0.05012135
H       -2.32015014      -0.94559005       0.34976675
H       -1.82627640      -0.31682730      -1.23646964
H       -2.38536802       0.78154726       0.02774405
H        0.15552283      -0.77677709       1.20555952
H        0.63516289      -1.72183567      -0.47354418
H        2.03577889       0.12979063      -1.06932363
H        2.51661217       0.18895323       0.65303984
13
Frame=3 idx=004833 GeodesicLength=0.1554653471006019 rxn_smarts="[C:1]([C@@:2]1([H:10])[N:3]([H:11])[C:4]([H:12])([H:13])[C:5]1=[O:6])([H:7])([H:8])[H:9]>>[C:1]([C:2]1=[C:5]([O-:6])[C:4]([H:12])([H:13])[N+:3]1([H:10])[H:11])([H:7])([H:8])[H:9]"
C       -1.80662936      -0.12364544      -0.15684588
C       -0.43322811       0.10662232       0.36137630
N        0.73712208      -0.96918221       0.18840721
C        1.67714213       0.14625131      -0.04654008
C        0.52328281       1.15387971       0.12508281
O        0.48554989       2.35749522       0.05391277
H       -2.31963548      -0.94524195       0.34777748
H       -1.82786576      -0.31269723      -1.23686496
H       -2.38400391       0.78326139       0.03159441
H        0.15065216      -0.78323634       1.21397543
H        0.64374487      -1.73489370      -0.46144746
H        2.04269278       0.13276347      -1.07360116
H        2.51117589       0.18862347       0.65317313
13
Frame=4 idx=004833 GeodesicLength=0.2072593372173543 rxn_smarts="[C:1]([C@@:2]1([H:10])[N:3]([H:11])[C:4]([H:12])([H:13])[C:5]1=[O:6])([H:7])([H:8])[H:9]>>[C:1]([C:2]1=[C:5]([O-:6])[C:4]([H:12])([H:13])[N+:3]1([H:10])[H:11])([H:7])([H:8])[H:9]"
C       -1.80646958      -0.12176579      -0.15710413
C       -0.43089417       0.10379694       0.35855582
N        0.73125715      -0.96307292       0.17915838
C        1.67699343       0.14849358      -0.05341773
C        0.52291726       1.15542279       0.12224137
O        0.48382691       2.35923816       0.05783413
H       -2.31916213      -0.94484432       0.34573196
H       -1.82946079      -0.30848263      -1.23726819
H       -2.38264367       0.78501162       0.03544243
H        0.14568950      -0.78998743       1.22206267
H        0.65268725      -1.74783448      -0.44839544
H        2.04957713       0.13585406      -1.07793815
H        2.50568171       0.18817041       0.65309688
13
Frame=5 idx=004833 GeodesicLength=0.2590318343585279 rxn_smarts="[C:1]([C@@:2]1([H:10])[N:3]([H:11])[C:4]([H:12])([H:13])[C:5]1=[O:6])([H:7])([H:8])[H:9]>>[C:1]([C:2]1=[C:5]([O-:6])[C:4]([H:12])([H:13])[N+:3]1([H:10])[H:11])([H:7])([H:8])[H:9]"
C       -1.80632974      -0.11983468      -0.15736493
C       -0.42859662       0.10098953       0.35575407
N        0.72536814      -0.95703204       0.16950637
C        1.67679888       0.15074776      -0.06040320
C        0.52252637       1.15696239       0.11943038
O        0.48211448       2.36094452       0.06185708
H       -2.31873875      -0.94438652       0.34365837
H       -1.83108529      -0.30419980      -1.23766935
H       -2.38128380       0.78680547       0.03928797
H        0.14064189      -0.79705058       1.22980400
H        0.66200663      -1.76059455      -0.43438303
H        2.05645941       0.13907258      -1.08231637
H        2.50011838       0.18757591       0.65283864
13
Frame=6 idx=004833 GeodesicLength=0.3107764707637443 rxn_smarts="[C:1]([C@@:2]1([H:10])[N:3]([H:11])[C:4]([H:12])([H:13])[C:5]1=[O:6])([H:7])([H:8])[H:9]>>[C:1]([C:2]1=[C:5]([O-:6])[C:4]([H:12])([H:13])[N+:3]1([H:10])[H:11])([H:7])([H:8])[H:9]"
C       -1.80621711      -0.11785353      -0.15762089
C       -0.42633304       0.09819028       0.35295567
N        0.71944689      -0.95106905       0.15940707
C        1.67656208       0.15300841      -0.06748772
C        0.52211112       1.15849108       0.11664347
O        0.48041159       2.36260471       0.06595427
H       -2.31837129      -0.94386139       0.34157885
H       -1.83276462      -0.29985860      -1.23805902
H       -2.37992268       0.78864752       0.04313670
H        0.13551817      -0.80444282       1.23718134
H        0.67171603      -1.77310384      -0.41939827
H        2.06336814       0.14242556      -1.08671597
H        2.49447472       0.18682167       0.65242450
13
Frame=7 idx=004833 GeodesicLength=0.3624997035541783 rxn_smarts="[C:1]([C@@:2]1([H:10])[N:3]([H:11])[C:4]([H:12])([H:13])[C:5]1=[O:6])([H:7])([H:8])[H:9]>>[C:1]([C:2]1=[C:5]([O-:6])[C:4]([H:12])([H:13])[N+:3]1([H:10])[H:11])([H:7])([H:8])[H:9]"
C       -1.80613820      -0.11582303      -0.15787120
C       -0.42410127       0.09538861       0.35013923
N        0.71348372      -0.94519288       0.14882367
C        1.67628417       0.15526974      -0.07467644
C        0.52167182       1.16000238       0.11385939
O        0.47872186       2.36421352       0.07012650
H       -2.31806001      -0.94327966       0.33948728
H       -1.83452386      -0.29543647      -1.23844061
H       -2.37856148       0.79053481       0.04701651
H        0.13032307      -0.81217080       1.24418322
H        0.68183695      -1.78531433      -0.40337808
H        2.07032531       0.14591393      -1.09113339
H        2.48873793       0.18589419       0.65186391
13
Frame=8 idx=004833 GeodesicLength=0.4141802634381622 rxn_smarts="[C:1]([C@@:2]1([H:10])[N:3]([H:11])[C:4]([H:12])([H:13])[C:5]1=[O:6])([H:7])([H:8])[H:9]>>[C:1]([C:2]1=[C:5]([O-:6])[C:4]([H:12])([H:13])[N+:3]1([H:10])[H:11])([H:7])([H:8])[H:9]"
C       -1.80610299      -0.11374304      -0.15810729
C       -0.42189815       0.09257149       0.34728154
N        0.70747217      -0.93941360       0.13770926
C        1.67596854       0.15752045      -0.08195471
C        0.52120672       1.16148197       0.11106706
O        0.47703985       2.36575112       0.07433688
H       -2.31780912      -0.94262911       0.33740861
H       -1.83639877      -0.29094281      -1.23879978
H       -2.37719969       0.79247161       0.05093903
H        0.12507039      -0.82024674       1.25078545
H        0.69239382      -1.79712684      -0.38632027
H        2.07736281       0.14953746      -1.09553439
H        2.48289442       0.18476803       0.65118862
13
Frame=9 idx=004833 GeodesicLength=0.4658337866924886 rxn_smarts="[C:1]([C@@:2]1([H:10])[N:3]([H:11])[C:4]([H:12])([H:13])[C:5]1=[O:6])([H:7])([H:8])[H:9]>>[C:1]([C:2]1=[C:5]([O-:6])[C:4]([H:12])([H:13])[N+:3]1([H:10])[H:11])([H:7])([H:8])[H:9]"
C       -1.80611425      -0.11161775      -0.15832886
C       -0.41972017       0.08972690       0.34435668
N        0.70139985      -0.93374094       0.12603112
C        1.67561698       0.15975263      -0.08933001
C        0.52071990       1.16292179       0.10823550
O        0.47537712       2.36721040       0.07858123
H       -2.31760939      -0.94194078       0.33531877
H       -1.83840949      -0.28633569      -1.23914344
H       -2.37583875       0.79443958       0.05495846
H        0.11975673      -0.82866759       1.25698100
H        0.70338520      -1.80847113      -0.36815072
H        2.08451075       0.15329058      -1.09991502
H        2.47692551       0.18343200       0.65040528
13
Frame=10 idx=004833 GeodesicLength=0.5174542229043969 rxn_smarts="[C:1]([C@@:2]1([H:10])[N:3]([H:11])[C:4]([H:12])([H:13])[C:5]1=[O:6])([H:7])([H:8])[H:9]>>[C:1]([C:2]1=[C:5]([O-:6])[C:4]([H:12])([H:13])[N+:3]1([H:10])[H:11])([H:7])([H:8])[H:9]"
C       -1.80618496      -0.10944908      -0.15852523
C       -0.41756258       0.08683809       0.34133597
N        0.69526281      -0.92819689       0.11373839
C        1.67523743       0.16195247      -0.09678471
C        0.52021092       1.16431041       0.10534725
O        0.47372865       2.36858029       0.08281513
H       -2.31746516      -0.94121182       0.33324409
H       -1.84060286      -0.28162248      -1.23946018
H       -2.37447786       0.79644540       0.05909425
H        0.11439812      -0.83744754       1.26275171
H        0.71482612      -1.81922819      -0.34887549
H        2.09181250       0.15716827      -1.10423867
H        2.47081686       0.18186108       0.64955749
13
Frame=11 idx=004833 GeodesicLength=0.5690423215763204 rxn_smarts="[C:1]([C@@:2]1([H:10])[N:3]([H:11])[C:4]([H:12])([H:13])[C:5]1=[O:6])([H:7])([H:8])[H:9]>>[C:1]([C:2]1=[C:5]([O-:6])[C:4]([H:12])([H:13])[N+:3]1([H:10])[H:11])([H:7])([H:8])[H:9]"
C       -1.80631907      -0.10724355      -0.15869686
C       -0.41541989       0.08388560       0.33818803
N        0.68905697      -0.92279640       0.10080543
C        1.67483214       0.16410564      -0.10432100
C        0.51967990       1.16563223       0.10237315
O        0.47210131       2.36984433       0.08705006
H       -2.31737427      -0.94045374       0.33118151
H       -1.84300304      -0.27679104      -1.23975075
H       -2.37311231       0.79847878       0.06337269
H        0.10899850      -0.84657599       1.26809559
H        0.72671272      -1.82928441      -0.32845594
H        2.09929112       0.16115721      -1.10849209
H        2.46455594       0.18004134       0.64865017
13
Frame=12 idx=004833 GeodesicLength=0.6206009667130894 rxn_smarts="[C:1]([C@@:2]1([H:10])[N:3]([H:11])[C:4]([H:12])([H:13])[C:5]1=[O:6])([H:7])([H:8])[H:9]>>[C:1]([C:2]1=[C:5]([O-:6])[C:4]([H:12])([H:13])[N+:3]1([H:10])[H:11])([H:7])([H:8])[H:9]"
C       -1.80652180      -0.10500743      -0.15884174
C       -0.41328532       0.08084690       0.33488073
N        0.68278278      -0.91756266       0.08721521
C        1.67440596       0.16619323      -0.11193398
C        0.51912800       1.16686983       0.09928633
O        0.47049483       2.37098414       0.09126080
H       -2.31733044      -0.93969164       0.32911261
H       -1.84563967      -0.27180510      -1.24001796
H       -2.37174127       0.80052345       0.06784613
H        0.10356206      -0.85603911       1.27302149
H        0.73903696      -1.83850415      -0.30687450
H        2.10697510       0.16523432      -1.11265332
H        2.45813281       0.17795822       0.64769820
13
Frame=13 idx=004833 GeodesicLength=0.6721350294209165 rxn_smarts="[C:1]([C@@:2]1([H:10])[N:3]([H:11])[C:4]([H:12])([H:13])[C:5]1=[O:6])([H:7])([H:8])[H:9]>>[C:1]([C:2]1=[C:5]([O-:6])[C:4]([H:12])([H:13])[N+:3]1([H:10])[H:11])([H:7])([H:8])[H:9]"
C       -1.80679563      -0.10275319      -0.15895272
C       -0.41114918       0.07769947       0.33137202
N        0.67644428      -0.91251697       0.07296063
C        1.67396934       0.16819460      -0.11961148
C        0.51855819       1.16800212       0.09603235
O        0.46891996       2.37197500       0.09541760
H       -2.31731749      -0.93895879       0.32702762
H       -1.84854657      -0.26663449      -1.24025541
H       -2.37036289       0.80254897       0.07257978
H        0.09808155      -0.86580718       1.27754211
H        0.75175406      -1.84672361      -0.28416246
H        2.11491748       0.16936716      -1.11668286
H        2.45152691       0.17560691       0.64673279
13
Frame=14 idx=004833 GeodesicLength=0.7236300446475455 rxn_smarts="[C:1]([C@@:2]1([H:10])[N:3]([H:11])[C:4]([H:12])([H:13])[C:5]1=[O:6])([H:7])([H:8])[H:9]>>[C:1]([C:2]1=[C:5]([O-:6])[C:4]([H:12])([H:13])[N+:3]1([H:10])[H:11])([H:7])([H:8])[H:9]"
C       -1.80713619      -0.10049814      -0.15902768
C       -0.40899921       0.07441657       0.32764618
N        0.67005988      -0.90768935       0.05807639
C        1.67352885       0.17008810      -0.12733434
C        0.51797161       1.16900912       0.09260447
O        0.46737599       2.37279486       0.09952561
H       -2.31733577      -0.93824819       0.32495871
H       -1.85173054      -0.26133951      -1.24045162
H       -2.36895379       0.80455707       0.07753679
H        0.09256270      -0.87584727       1.28170906
H        0.76478957      -1.85374478      -0.26045651
H        2.12311695       0.17351719      -1.12055209
H        2.44474993       0.17298434       0.64576503
13
Frame=15 idx=004833 GeodesicLength=0.7751082979342114 rxn_smarts="[C:1]([C@@:2]1([H:10])[N:3]([H:11])[C:4]([H:12])([H:13])[C:5]1=[O:6])([H:7])([H:8])[H:9]>>[C:1]([C:2]1=[C:5]([O-:6])[C:4]([H:12])([H:13])[N+:3]1([H:10])[H:11])([H:7])([H:8])[H:9]"
C       -1.80752770      -0.09826468      -0.15906399
C       -0.40682084       0.07097672       0.32367970
N        0.66365164      -0.90310520       0.04262345
C        1.67309479       0.17185477      -0.13508988
C        0.51737453       1.16987499       0.08896385
O        0.46587269       2.37342649       0.10356136
H       -2.31735400      -0.93760920       0.32288500
H       -1.85518387      -0.25590402      -1.24060804
H       -2.36749956       0.80650761       0.08276544
H        0.08698242      -0.88610082       1.28559855
H        0.77801403      -1.85939859      -0.23588785
H        2.13159881       0.17763659      -1.12423705
H        2.43779705       0.17010535       0.64480947
13
Frame=16 idx=004833 GeodesicLength=0.8265730382884222 rxn_smarts="[C:1]([C@@:2]1([H:10])[N:3]([H:11])[C:4]([H:12])([H:13])[C:5]1=[O:6])([H:7])([H:8])[H:9]>>[C:1]([C:2]1=[C:5]([O-:6])[C:4]([H:12])([H:13])[N+:3]1([H:10])[H:11])([H:7])([H:8])[H:9]"
C       -1.80796206      -0.09607189      -0.15905606
C       -0.40459901       0.06735712       0.31945759
N        0.65725210      -0.89879128       0.02668318
C        1.67268298       0.17347454      -0.14285063
C        0.51677275       1.17058247       0.08509189
O        0.46440445       2.37385155       0.10746189
H       -2.31735255      -0.93707771       0.32079135
H       -1.85891023      -0.25031593      -1.24071991
H       -2.36599170       0.80836978       0.08830634
H        0.08132137      -0.89650902       1.28929775
H        0.79131631      -1.86352892      -0.21065959
H        2.14038273       0.18167130      -1.12769569
H        2.43068288       0.16698799       0.64389191
