13
Frame=0 idx=006416 GeodesicLength=0.0 rxn_smarts="[O:1]=[C:2]([C:3]1([C:6](=[O:7])[H:13])[C:4]([H:9])([H:10])[C:5]1([H:11])[H:12])[H:8]>>[O:1]([C:2](=[C:3]1[C:4]([H:9])([H:10])[C:5]1([H:11])[H:12])[H:8])[C:6](=[O:7])[H:13]"
O        1.15552566       0.74095412      -1.64771732
C        1.37802572       0.11091964      -0.55144096
C        0.23018422       0.00697056       0.20246054
C       -0.13350753      -0.59632843       1.51126035
C       -0.88079193      -0.98600523       0.27424551
C       -0.28003546       1.30995173      -1.15230226
O       -1.25460909       1.09987343      -1.79674721
H        2.41270975      -0.10240375      -0.27723999
H       -0.63952491       0.04751598       2.22087716
H        0.54226213      -1.31794834       1.95777339
H       -1.87649538      -0.59234295       0.10007103
H       -0.70202132      -1.96720991      -0.14741636
H        0.04827816       2.24605311      -0.69382382
13
Frame=1 idx=006416 GeodesicLength=0.06886227592352402 rxn_smarts="[O:1]=[C:2]([C:3]1([C:6](=[O:7])[H:13])[C:4]([H:9])([H:10])[C:5]1([H:11])[H:12])[H:8]>>[O:1]([C:2](=[C:3]1[C:4]([H:9])([H:10])[C:5]1([H:11])[H:12])[H:8])[C:6](=[O:7])[H:13]"
O        1.15620601       0.69112024      -1.66860555
C        1.37915500       0.09615525      -0.55245947
C        0.22734733       0.00354869       0.19909983
C       -0.13410552      -0.60017760       1.50828762
C       -0.88353800      -0.99005021       0.27313708
C       -0.28005176       1.31022844      -1.15583390
O       -1.27272175       1.13496391      -1.78407045
H        2.41757574      -0.04175868      -0.24507867
H       -0.63632503       0.04778162       2.21680106
H        0.54454224      -1.32228480       1.94946068
H       -1.88150237      -0.59879368       0.10752938
H       -0.70610120      -1.97038666      -0.15097219
H        0.06951933       2.23965347      -0.69729542
13
Frame=2 idx=006416 GeodesicLength=0.13760673317656047 rxn_smarts="[O:1]=[C:2]([C:3]1([C:6](=[O:7])[H:13])[C:4]([H:9])([H:10])[C:5]1([H:11])[H:12])[H:8]>>[O:1]([C:2](=[C:3]1[C:4]([H:9])([H:10])[C:5]1([H:11])[H:12])[H:8])[C:6](=[O:7])[H:13]"
O        1.15762165       0.64225630      -1.68684869
C        1.38097041       0.08320627      -0.55181724
C        0.22469449       0.00079255       0.19637062
C       -0.13489276      -0.60352343       1.50575367
C       -0.88556445      -0.99403702       0.27208102
C       -0.28000602       1.31061414      -1.15933374
O       -1.28840766       1.16956625      -1.77216060
H        2.41860544       0.01437020      -0.21879497
H       -0.63410757       0.04822688       2.21285339
H        0.54675995      -1.32568032       1.94197460
H       -1.88577491      -0.60574762       0.11425240
H       -0.70852159      -1.97332736      -0.15444609
H        0.08862303       2.23328316      -0.69988437
13
Frame=3 idx=006416 GeodesicLength=0.2064738976878014 rxn_smarts="[O:1]=[C:2]([C:3]1([C:6](=[O:7])[H:13])[C:4]([H:9])([H:10])[C:5]1([H:11])[H:12])[H:8]>>[O:1]([C:2](=[C:3]1[C:4]([H:9])([H:10])[C:5]1([H:11])[H:12])[H:8])[C:6](=[O:7])[H:13]"
O        1.15966707       0.59363504      -1.70293980
C        1.38331460       0.07131418      -0.54999744
C        0.22219559      -0.00157767       0.19409202
C       -0.13571242      -0.60668599       1.50354612
C       -0.88727562      -0.99789634       0.27113903
C       -0.27986538       1.31099840      -1.16297415
O       -1.30201238       1.20373961      -1.76102777
H        2.41686989       0.06855247      -0.19676163
H       -0.63227863       0.04865117       2.20914310
H        0.54889492      -1.32884474       1.93494451
H       -1.88968123      -0.61274195       0.12068645
H       -0.71023624      -1.97600741      -0.15795885
H        0.10611983       2.22686324      -0.70189160
13
Frame=4 idx=006416 GeodesicLength=0.2754824638333565 rxn_smarts="[O:1]=[C:2]([C:3]1([C:6](=[O:7])[H:13])[C:4]([H:9])([H:10])[C:5]1([H:11])[H:12])[H:8]>>[O:1]([C:2](=[C:3]1[C:4]([H:9])([H:10])[C:5]1([H:11])[H:12])[H:8])[C:6](=[O:7])[H:13]"
O        1.16226025       0.54463540      -1.71709996
C        1.38611376       0.06008881      -0.54718440
C        0.21983902      -0.00371553       0.19219572
C       -0.13649857      -0.60984052       1.50159158
C       -0.88883819      -1.00154562       0.27033095
C       -0.27954336       1.31125586      -1.16678426
O       -1.31363778       1.23749531      -1.75058623
H        2.41261369       0.12243673      -0.17829434
H       -0.63055178       0.04889439       2.20574007
H        0.55086219      -1.33216403       1.92811926
H       -1.89332858      -0.61949393       0.12709075
H       -0.71169371      -1.97830247      -0.16165791
H        0.12240304       2.22025561      -0.70346121
13
Frame=5 idx=006416 GeodesicLength=0.34454765749786426 rxn_smarts="[O:1]=[C:2]([C:3]1([C:6](=[O:7])[H:13])[C:4]([H:9])([H:10])[C:5]1([H:11])[H:12])[H:8]>>[O:1]([C:2](=[C:3]1[C:4]([H:9])([H:10])[C:5]1([H:11])[H:12])[H:8])[C:6](=[O:7])[H:13]"
O        1.16568110       0.49622231      -1.72923173
C        1.38923650       0.04983884      -0.54353136
C        0.21755460      -0.00548943       0.19056253
C       -0.13726227      -0.61276204       1.49983924
C       -0.89013476      -1.00506961       0.26960265
C       -0.27933852       1.31158423      -1.17070394
O       -1.32353544       1.27081261      -1.74108586
H        2.40632013       0.17374628      -0.16329376
H       -0.62903497       0.04922355       2.20248989
H        0.55288961      -1.33513263       1.92157533
H       -1.89668832      -0.62631608       0.13332500
H       -0.71255336      -1.98036864      -0.16535972
H        0.13686570       2.21371062      -0.70418828
13
Frame=6 idx=006416 GeodesicLength=0.4137319291314454 rxn_smarts="[O:1]=[C:2]([C:3]1([C:6](=[O:7])[H:13])[C:4]([H:9])([H:10])[C:5]1([H:11])[H:12])[H:8]>>[O:1]([C:2](=[C:3]1[C:4]([H:9])([H:10])[C:5]1([H:11])[H:12])[H:8])[C:6](=[O:7])[H:13]"
O        1.16968610       0.44772493      -1.73954520
C        1.39264148       0.04037044      -0.53910784
C        0.21535456      -0.00697389       0.18921019
C       -0.13805867      -0.61551743       1.49827825
C       -0.89119045      -1.00850328       0.26892806
C       -0.27917013       1.31200468      -1.17466759
O       -1.33193014       1.30394871      -1.73212096
H        2.39834180       0.22354301      -0.15162654
H       -0.62786300       0.04954331       2.19935424
H        0.55481517      -1.33790212       1.91532154
H       -1.89978328      -0.63324214       0.13936548
H       -0.71288117      -1.98222553      -0.16912894
H        0.15003774       2.20722931      -0.70426070
13
Frame=7 idx=006416 GeodesicLength=0.48299016255485344 rxn_smarts="[O:1]=[C:2]([C:3]1([C:6](=[O:7])[H:13])[C:4]([H:9])([H:10])[C:5]1([H:11])[H:12])[H:8]>>[O:1]([C:2](=[C:3]1[C:4]([H:9])([H:10])[C:5]1([H:11])[H:12])[H:8])[C:6](=[O:7])[H:13]"
O        1.17451029       0.39957279      -1.74808433
C        1.39626323       0.03163241      -0.53411101
C        0.21320458      -0.00821900       0.18798634
C       -0.13882074      -0.61807925       1.49683232
C       -0.89206282      -1.01184563       0.26830440
C       -0.27917637       1.31254076      -1.17867631
O       -1.33892437       1.33679926      -1.72394032
H        2.38888031       0.27133960      -0.14279381
H       -0.62680979       0.04996944       2.19629064
H        0.55677468      -1.34040367       1.90924974
H       -1.90268024      -0.64023820       0.14532679
H       -0.71280965      -1.98391477      -0.17290029
H        0.16165088       2.20084627      -0.70348415
13
Frame=8 idx=006416 GeodesicLength=0.5523715019440777 rxn_smarts="[O:1]=[C:2]([C:3]1([C:6](=[O:7])[H:13])[C:4]([H:9])([H:10])[C:5]1([H:11])[H:12])[H:8]>>[O:1]([C:2](=[C:3]1[C:4]([H:9])([H:10])[C:5]1([H:11])[H:12])[H:8])[C:6](=[O:7])[H:13]"
O        1.18005939       0.35143253      -1.75495373
C        1.40007015       0.02358137      -0.52856868
C        0.21109135      -0.00923170       0.18690059
C       -0.13956164      -0.62049175       1.49549794
C       -0.89277288      -1.01510957       0.26771940
C       -0.27934508       1.31322265      -1.18271058
O       -1.34466785       1.36948756      -1.71638623
H        2.37813754       0.31756192      -0.13664445
H       -0.62591507       0.05042493       2.19331138
H        0.55873119      -1.34271640       1.90333775
H       -1.90540925      -0.64732919       0.15122207
H       -0.71237243      -1.98542692      -0.17673719
H        0.17195458       2.19459456      -0.70198828
13
Frame=9 idx=006416 GeodesicLength=0.6218516015840809 rxn_smarts="[O:1]=[C:2]([C:3]1([C:6](=[O:7])[H:13])[C:4]([H:9])([H:10])[C:5]1([H:11])[H:12])[H:8]>>[O:1]([C:2](=[C:3]1[C:4]([H:9])([H:10])[C:5]1([H:11])[H:12])[H:8])[C:6](=[O:7])[H:13]"
O        1.18644188       0.30353061      -1.76023922
C        1.40400585       0.01613804      -0.52266541
C        0.20899451      -0.01008664       0.18581716
C       -0.14028593      -0.62268523       1.49420228
C       -0.89332524      -1.01835780       0.26713862
C       -0.27977398       1.31410588      -1.18668915
O       -1.34930482       1.40208932      -1.70941822
H        2.36630681       0.36185990      -0.13288225
H       -0.62514142       0.05108610       2.19028365
H        0.56074769      -1.34467454       1.89756869
H       -1.90799104      -0.65461109       0.15703027
H       -0.71156357      -1.98689025      -0.18053719
H        0.18088925       2.18849572      -0.69960922
13
Frame=10 idx=006416 GeodesicLength=0.6914352022302112 rxn_smarts="[O:1]=[C:2]([C:3]1([C:6](=[O:7])[H:13])[C:4]([H:9])([H:10])[C:5]1([H:11])[H:12])[H:8]>>[O:1]([C:2](=[C:3]1[C:4]([H:9])([H:10])[C:5]1([H:11])[H:12])[H:8])[C:6](=[O:7])[H:13]"
O        1.19336225       0.25537143      -1.76396243
C        1.40800366       0.00938349      -0.51634319
C        0.20691045      -0.01069171       0.18484940
C       -0.14109711      -0.62463488       1.49298651
C       -0.89360992      -1.02164458       0.26652367
C       -0.28043329       1.31529086      -1.19054708
O       -1.35301198       1.43491596      -1.70258835
H        2.35368085       0.40436715      -0.13181735
H       -0.62487679       0.05183872       2.18715986
H        0.56270437      -1.34621112       1.89207987
H       -1.91033859      -0.66229571       0.16254644
H       -0.71010446      -1.98831467      -0.18433907
H        0.18881056       2.18262508      -0.69654828
13
Frame=11 idx=006416 GeodesicLength=0.7611108665138456 rxn_smarts="[O:1]=[C:2]([C:3]1([C:6](=[O:7])[H:13])[C:4]([H:9])([H:10])[C:5]1([H:11])[H:12])[H:8]>>[O:1]([C:2](=[C:3]1[C:4]([H:9])([H:10])[C:5]1([H:11])[H:12])[H:8])[C:6](=[O:7])[H:13]"
O        1.20122221       0.20729599      -1.76617526
C        1.41210855       0.00308816      -0.50976594
C        0.20483094      -0.01125410       0.18377981
C       -0.14182505      -0.62646826       1.49174675
C       -0.89384614      -1.02489515       0.26592443
C       -0.28137902       1.31668182      -1.19433484
O       -1.35569317       1.46762858      -1.69642068
H        2.33999808       0.44557505      -0.13266937
H       -0.62446156       0.05275745       2.18398938
H        0.56473018      -1.34760027       1.88658777
H       -1.91262001      -0.67004175       0.16816774
H       -0.70856160      -1.98966502      -0.18814458
H        0.19549658       2.17689750      -0.69268519
13
Frame=12 idx=006416 GeodesicLength=0.8309600017964227 rxn_smarts="[O:1]=[C:2]([C:3]1([C:6](=[O:7])[H:13])[C:4]([H:9])([H:10])[C:5]1([H:11])[H:12])[H:8]>>[O:1]([C:2](=[C:3]1[C:4]([H:9])([H:10])[C:5]1([H:11])[H:12])[H:8])[C:6](=[O:7])[H:13]"
O        1.20967388       0.15876023      -1.76683016
C        1.41624960      -0.00259389      -0.50285965
C        0.20275075      -0.01160625       0.18277155
C       -0.14261661      -0.62808952       1.49053976
C       -0.89385894      -1.02817862       0.26527259
C       -0.28261671       1.31841152      -1.19794187
O       -1.35758002       1.50060701      -1.69033501
H        2.32567283       0.48528638      -0.13596846
H       -0.62447908       0.05375333       2.18071159
H        0.56671237      -1.34864046       1.88128329
H       -1.91471456      -0.67815936       0.17355131
H       -0.70646948      -1.99096888      -0.19200573
H        0.20127598       2.17141850      -0.68818922
13
Frame=13 idx=006416 GeodesicLength=0.9009062211737907 rxn_smarts="[O:1]=[C:2]([C:3]1([C:6](=[O:7])[H:13])[C:4]([H:9])([H:10])[C:5]1([H:11])[H:12])[H:8]>>[O:1]([C:2](=[C:3]1[C:4]([H:9])([H:10])[C:5]1([H:11])[H:12])[H:8])[C:6](=[O:7])[H:13]"
O        1.21900945       0.11011547      -1.76598795
C        1.42041796      -0.00775158      -0.49577383
C        0.20064568      -0.01187472       0.18165195
C       -0.14338133      -0.62954216       1.48929366
C       -0.89377437      -1.03148535       0.26459216
C       -0.28422643       1.32047561      -1.20136699
O       -1.35864395       1.53367145      -1.68468385
H        2.31064709       0.52347398      -0.14120612
H       -0.62454540       0.05492388       2.17732089
H        0.56875360      -1.34940375       1.87602048
H       -1.91672399      -0.68651623       0.17892712
H       -0.70413434      -1.99226381      -0.19586338
H        0.20595603       2.16617722      -0.68292414
13
Frame=14 idx=006416 GeodesicLength=0.9709381890156477 rxn_smarts="[O:1]=[C:2]([C:3]1([C:6](=[O:7])[H:13])[C:4]([H:9])([H:10])[C:5]1([H:11])[H:12])[H:8]>>[O:1]([C:2](=[C:3]1[C:4]([H:9])([H:10])[C:5]1([H:11])[H:12])[H:8])[C:6](=[O:7])[H:13]"
O        1.22914902       0.06130257      -1.76369409
C        1.42457594      -0.01242654      -0.48861461
C        0.19852655      -0.01207526       0.18038804
C       -0.14419832      -0.63072783       1.48799197
C       -0.89351552      -1.03490274       0.26383174
C       -0.28626009       1.32297783      -1.20448404
O       -1.35904235       1.56703505      -1.67913492
H        2.29515787       0.55991045      -0.14850731
H       -0.62491484       0.05637766       2.17367194
H        0.57080689      -1.34968494       1.87092843
H       -1.91859663      -0.69531477       0.18409750
H       -0.70135895      -1.99368158      -0.19963158
H        0.20967042       2.16121011      -0.67684308
13
Frame=15 idx=006416 GeodesicLength=1.041031541645349 rxn_smarts="[O:1]=[C:2]([C:3]1([C:6](=[O:7])[H:13])[C:4]([H:9])([H:10])[C:5]1([H:11])[H:12])[H:8]>>[O:1]([C:2](=[C:3]1[C:4]([H:9])([H:10])[C:5]1([H:11])[H:12])[H:8])[C:6](=[O:7])[H:13]"
O        1.24012734       0.01227878      -1.75994856
C        1.42869886      -0.01664705      -0.48144216
C        0.19638628      -0.01223572       0.17893411
C       -0.14506990      -0.63163773       1.48660500
C       -0.89308663      -1.03844799       0.26297913
C       -0.28876124       1.32595868      -1.20723981
O       -1.35882905       1.60074433      -1.67363295
H        2.27927426       0.59460936      -0.15779150
H       -0.62557924       0.05814318       2.16971615
H        0.57287438      -1.34946290       1.86599320
H       -1.92033240      -0.70457588       0.18905751
H       -0.69815378      -1.99525425      -0.20328958
H        0.21245110       2.15652720      -0.66994054
13
Frame=16 idx=006416 GeodesicLength=1.1111823938986332 rxn_smarts="[O:1]=[C:2]([C:3]1([C:6](=[O:7])[H:13])[C:4]([H:9])([H:10])[C:5]1([H:11])[H:12])[H:8]>>[O:1]([C:2](=[C:3]1[C:4]([H:9])([H:10])[C:5]1([H:11])[H:12])[H:8])[C:6](=[O:7])[H:13]"
O        1.25196902      -0.03705534      -1.75472629
C        1.43277227      -0.02042975      -0.47429951
C        0.19422199      -0.01237082       0.17726288
C       -0.14600393      -0.63226668       1.48511355
C       -0.89248839      -1.04213443       0.26202027
C       -0.29176628       1.32945729      -1.20958520
O       -1.35806133       1.63485417      -1.66809524
H        2.26306330       0.62762851      -0.16904103
H       -0.62655828       0.06022781       2.16542067
H        0.57494787      -1.34872732       1.86120896
H       -1.92193064      -0.71432181       0.19378981
H       -0.69451737      -1.99700123      -0.20683737
H        0.21435177       2.15213961      -0.66223151
