17
Frame=0 idx=011069 GeodesicLength=0.0 rxn_smarts="[C:1]([C:2]([C@@:3]1([H:13])[O:4][C@@:5]2([H:14])[C:6]([H:15])([H:16])[C@@:7]12[H:17])([H:11])[H:12])([H:8])([H:9])[H:10]>>[C:1]([C:2]([C@@:3]1([H:13])[O+:4]=[C-:5][C:6]([H:15])([H:16])[C:7]1([H:14])[H:17])([H:11])[H:12])([H:8])([H:9])[H:10]"
C        2.19284914      -0.21623022      -0.08587321
C        1.07167650       0.77614570       0.19489755
C       -0.15045010       0.09565003       0.77370628
O       -1.23549163       0.96951593       1.10685820
C       -2.30674887       0.31447361       0.44899226
C       -1.81010244       0.11007378      -0.97117357
C       -0.98687604      -0.80311017      -0.13314899
H        1.88954130      -0.96181695      -0.82496845
H        2.49086256      -0.74701274       0.82150226
H        3.07570314       0.28995011      -0.47710378
H        0.79626510       1.31128785      -0.71646593
H        1.39989087       1.53162670       0.91341147
H        0.12856566      -0.43664597       1.69120256
H       -1.95821838      -0.98572738       0.71871494
H       -2.52219380      -0.38491943      -1.62257867
H       -1.31801603       0.96237555      -1.42330965
H       -0.75725699      -1.82563639      -0.41466320
17
Frame=1 idx=011069 GeodesicLength=0.0515953444621826 rxn_smarts="[C:1]([C:2]([C@@:3]1([H:13])[O:4][C@@:5]2([H:14])[C:6]([H:15])([H:16])[C@@:7]12[H:17])([H:11])[H:12])([H:8])([H:9])[H:10]>>[C:1]([C:2]([C@@:3]1([H:13])[O+:4]=[C-:5][C:6]([H:15])([H:16])[C:7]1([H:14])[H:17])([H:11])[H:12])([H:8])([H:9])[H:10]"
C        2.19595833      -0.21690500      -0.08266575
C        1.07298346       0.77429638       0.19487967
C       -0.14882872       0.09348244       0.77319675
O       -1.23244076       0.97288308       1.10610794
C       -2.30211258       0.32227837       0.45010143
C       -1.81488818       0.11091213      -0.97038881
C       -0.98825299      -0.80296565      -0.13281984
H        1.89398454      -0.96523812      -0.81948379
H        2.49472793      -0.74431377       0.82642461
H        3.07803079       0.28981688      -0.47501923
H        0.79846058       1.30728069      -0.71810091
H        1.39947520       1.53189966       0.91196743
H        0.12931944      -0.43753085       1.69150523
H       -1.97105238      -0.99600008       0.72042904
H       -2.53412517      -0.38416271      -1.61403778
H       -1.32795256       0.96126752      -1.43205567
H       -0.74328695      -1.81700096      -0.43004032
17
Frame=2 idx=011069 GeodesicLength=0.103182890076127 rxn_smarts="[C:1]([C:2]([C@@:3]1([H:13])[O:4][C@@:5]2([H:14])[C:6]([H:15])([H:16])[C@@:7]12[H:17])([H:11])[H:12])([H:8])([H:9])[H:10]>>[C:1]([C:2]([C@@:3]1([H:13])[O+:4]=[C-:5][C:6]([H:15])([H:16])[C:7]1([H:14])[H:17])([H:11])[H:12])([H:8])([H:9])[H:10]"
C        2.19908274      -0.21758865      -0.07945330
C        1.07431798       0.77243534       0.19486058
C       -0.14718669       0.09131195       0.77268361
O       -1.22934770       0.97626974       1.10531292
C       -2.29740937       0.33001106       0.45117461
C       -1.81964828       0.11169889      -0.96956989
C       -0.98960586      -0.80289904      -0.13244657
H        1.89845369      -0.96863710      -0.81400963
H        2.49857458      -0.74163872       0.83133619
H        3.08038655       0.28966505      -0.47290561
H        0.80067856       1.30323548      -0.71974086
H        1.39909215       1.53216051       0.91050546
H        0.13008391      -0.43838776       1.69182085
H       -1.98412345      -1.00635742       0.72204801
H       -2.54595657      -0.38344064      -1.60538971
H       -1.33806023       0.96006599      -1.44078519
H       -0.72933201      -1.80790468      -0.44544147
17
Frame=3 idx=011069 GeodesicLength=0.15477277785105384 rxn_smarts="[C:1]([C:2]([C@@:3]1([H:13])[O:4][C@@:5]2([H:14])[C:6]([H:15])([H:16])[C@@:7]12[H:17])([H:11])[H:12])([H:8])([H:9])[H:10]>>[C:1]([C:2]([C@@:3]1([H:13])[O+:4]=[C-:5][C:6]([H:15])([H:16])[C:7]1([H:14])[H:17])([H:11])[H:12])([H:8])([H:9])[H:10]"
C        2.20222542      -0.21828067      -0.07623906
C        1.07568140       0.77056494       0.19484150
C       -0.14552399       0.08913847       0.77216766
O       -1.22621578       0.97967609       1.10447370
C       -2.29264123       0.33767336       0.45220861
C       -1.82438012       0.11243459      -0.96872033
C       -0.99093086      -0.80291225      -0.13203171
H        1.90295151      -0.97201322      -0.80855095
H        2.50240627      -0.73899094       0.83623418
H        3.08277348       0.28949673      -0.47076793
H        0.80292068       1.29915917      -0.72138431
H        1.39874208       1.53240984       0.90903017
H        0.13085878      -0.43921873       1.69215156
H       -1.99743685      -1.01680556       0.72356984
H       -2.55768281      -0.38275331      -1.59664051
H       -1.34833922       0.95877217      -1.44949939
H       -0.71540875      -1.79835067      -0.46084304
17
Frame=4 idx=011069 GeodesicLength=0.2063613276126621 rxn_smarts="[C:1]([C:2]([C@@:3]1([H:13])[O:4][C@@:5]2([H:14])[C:6]([H:15])([H:16])[C@@:7]12[H:17])([H:11])[H:12])([H:8])([H:9])[H:10]>>[C:1]([C:2]([C@@:3]1([H:13])[O+:4]=[C-:5][C:6]([H:15])([H:16])[C:7]1([H:14])[H:17])([H:11])[H:12])([H:8])([H:9])[H:10]"
C        2.20538798      -0.21897940      -0.07302249
C        1.07707545       0.76868561       0.19482238
C       -0.14383856       0.08696142       0.77164680
O       -1.22304283       0.98309898       1.10358906
C       -2.28780620       0.34526401       0.45320067
C       -1.82908245       0.11311990      -0.96784128
C       -0.99222454      -0.80300497      -0.13158024
H        1.90747831      -0.97536804      -0.80310341
H        2.50622697      -0.73636514       0.84111998
H        3.08519160       0.28931339      -0.46860851
H        0.80518905       1.29505193      -0.72303059
H        1.39842623       1.53264765       0.90754179
H        0.13164635      -0.44002506       1.69249375
H       -2.01099492      -1.02735053       0.72498777
H       -2.56930235      -0.38209917      -1.58779229
H       -1.35879300       0.95738701      -1.45819432
H       -0.70153708      -1.78833758      -0.47622907
17
Frame=5 idx=011069 GeodesicLength=0.2579481629328629 rxn_smarts="[C:1]([C:2]([C@@:3]1([H:13])[O:4][C@@:5]2([H:14])[C:6]([H:15])([H:16])[C@@:7]12[H:17])([H:11])[H:12])([H:8])([H:9])[H:10]>>[C:1]([C:2]([C@@:3]1([H:13])[O+:4]=[C-:5][C:6]([H:15])([H:16])[C:7]1([H:14])[H:17])([H:11])[H:12])([H:8])([H:9])[H:10]"
C        2.20857203      -0.21968345      -0.06980449
C        1.07850190       0.76679862       0.19480384
C       -0.14212884       0.08478091       0.77111994
O       -1.21982835       0.98653649       1.10265809
C       -2.28290325       0.35278253       0.45414755
C       -1.83375336       0.11375555      -0.96693481
C       -0.99348287      -0.80317671      -0.13109668
H        1.91203409      -0.97870170      -0.79766608
H        2.51003999      -0.73375917       0.84599287
H        3.08764152       0.28911645      -0.46643058
H        0.80748576       1.29091668      -0.72467805
H        1.39814618       1.53287385       0.90604244
H        0.13244813      -0.44080763       1.69284560
H       -2.02480066      -1.03799874       0.72629527
H       -2.58081203      -0.38147749      -1.57884861
H       -1.36942400       0.95591178      -1.46686731
H       -0.68773624      -1.77786799      -0.49157899
17
Frame=6 idx=011069 GeodesicLength=0.30953344430938423 rxn_smarts="[C:1]([C:2]([C@@:3]1([H:13])[O:4][C@@:5]2([H:14])[C:6]([H:15])([H:16])[C@@:7]12[H:17])([H:11])[H:12])([H:8])([H:9])[H:10]>>[C:1]([C:2]([C@@:3]1([H:13])[O+:4]=[C-:5][C:6]([H:15])([H:16])[C:7]1([H:14])[H:17])([H:11])[H:12])([H:8])([H:9])[H:10]"
C        2.21177977      -0.22039138      -0.06658522
C        1.07996268       0.76490526       0.19478594
C       -0.14039305       0.08259697       0.77058560
O       -1.21657160       0.98998649       1.10168023
C       -2.27793131       0.36022800       0.45504686
C       -1.83839163       0.11434314      -0.96600280
C       -0.99470158      -0.80342635      -0.13058658
H        1.91661958      -0.98201581      -0.79223576
H        2.51384961      -0.73116898       0.85085380
H        3.09012418       0.28890715      -0.46423755
H        0.80981327       1.28675554      -0.72632620
H        1.39790313       1.53308915       0.90453310
H        0.13326586      -0.44156786       1.69320469
H       -2.03885655      -1.04875772       0.72748477
H       -2.59220997      -0.38088630      -1.56981254
H       -1.38023565       0.95434908      -1.47551513
H       -0.67402676      -1.76694639      -0.50687321
17
Frame=7 idx=011069 GeodesicLength=0.3611226514293268 rxn_smarts="[C:1]([C:2]([C@@:3]1([H:13])[O:4][C@@:5]2([H:14])[C:6]([H:15])([H:16])[C@@:7]12[H:17])([H:11])[H:12])([H:8])([H:9])[H:10]>>[C:1]([C:2]([C@@:3]1([H:13])[O+:4]=[C-:5][C:6]([H:15])([H:16])[C:7]1([H:14])[H:17])([H:11])[H:12])([H:8])([H:9])[H:10]"
C        2.21501374      -0.22110223      -0.06336626
C        1.08145972       0.76300785       0.19476922
C       -0.13863010       0.08041023       0.77004356
O       -1.21327385       0.99344851       1.10065580
C       -2.27289057       0.36760059       0.45589640
C       -1.84299536       0.11488454      -0.96504808
C       -0.99587586      -0.80375308      -0.13005488
H        1.92123593      -0.98531170      -0.78681223
H        2.51765995      -0.72859335       0.85570220
H        3.09264152       0.28868665      -0.46203439
H        0.81217433       1.28257352      -0.72797426
H        1.39769826       1.53329511       0.90301637
H        0.13410003      -0.44230719       1.69357083
H       -2.05316628      -1.05963599       0.72854942
H       -2.60349266      -0.38032436      -1.56068853
H       -1.39123053       0.95270276      -1.48413612
H       -0.66042828      -1.75558187      -0.52208905
17
Frame=8 idx=011069 GeodesicLength=0.4127010668991582 rxn_smarts="[C:1]([C:2]([C@@:3]1([H:13])[O:4][C@@:5]2([H:14])[C:6]([H:15])([H:16])[C@@:7]12[H:17])([H:11])[H:12])([H:8])([H:9])[H:10]>>[C:1]([C:2]([C@@:3]1([H:13])[O+:4]=[C-:5][C:6]([H:15])([H:16])[C:7]1([H:14])[H:17])([H:11])[H:12])([H:8])([H:9])[H:10]"
C        2.21827200      -0.22181261      -0.06014894
C        1.08299525       0.76110734       0.19475627
C       -0.13683663       0.07822216       0.76949191
O       -1.20993038       0.99691908       1.09958106
C       -2.26777594       0.37489915       0.45668941
C       -1.84756135       0.11537954      -0.96407296
C       -0.99700081      -0.80415242      -0.12950734
H        1.92587614      -0.98858358      -0.78139611
H        2.52147120      -0.72602931       0.86053352
H        3.09518981       0.28845737      -0.45982205
H        0.81457052       1.27837391      -0.72961532
H        1.39753664       1.53348784       0.90149715
H        0.13495448      -0.44302358       1.69393931
H       -2.06773005      -1.07063820       0.72947700
H       -2.61465637      -0.37979144      -1.55148006
H       -1.40240881       0.95096986      -1.49272599
H       -0.64696572      -1.74378510      -0.53719686
17
Frame=9 idx=011069 GeodesicLength=0.4642759314623707 rxn_smarts="[C:1]([C:2]([C@@:3]1([H:13])[O:4][C@@:5]2([H:14])[C:6]([H:15])([H:16])[C@@:7]12[H:17])([H:11])[H:12])([H:8])([H:9])[H:10]>>[C:1]([C:2]([C@@:3]1([H:13])[O+:4]=[C-:5][C:6]([H:15])([H:16])[C:7]1([H:14])[H:17])([H:11])[H:12])([H:8])([H:9])[H:10]"
C        2.22154613      -0.22252144      -0.05695799
C        1.08457021       0.75921566       0.19476226
C       -0.13501665       0.07604249       0.76894443
O       -1.20655641       1.00041045       1.09845410
C       -2.26259246       0.38213467       0.45740878
C       -1.85206827       0.11581927      -0.96308884
C       -0.99806687      -0.80462718      -0.12893108
H        1.93052223      -0.99179778      -0.77604689
H        2.52526506      -0.72352358       0.86530468
H        3.09776866       0.28822594      -0.45760986
H        0.81700141       1.27419788      -0.73122195
H        1.39742932       1.53366081       0.90000902
H        0.13582109      -0.44370351       1.69433129
H       -2.08256067      -1.08176223       0.73026865
H       -2.62566387      -0.37930717      -1.54221038
H       -1.41374201       0.94913754      -1.50129762
H       -0.63365690      -1.73160180      -0.55211859
17
Frame=10 idx=011069 GeodesicLength=0.5158284611181114 rxn_smarts="[C:1]([C:2]([C@@:3]1([H:13])[O:4][C@@:5]2([H:14])[C:6]([H:15])([H:16])[C@@:7]12[H:17])([H:11])[H:12])([H:8])([H:9])[H:10]>>[C:1]([C:2]([C@@:3]1([H:13])[O+:4]=[C-:5][C:6]([H:15])([H:16])[C:7]1([H:14])[H:17])([H:11])[H:12])([H:8])([H:9])[H:10]"
C        2.22484720      -0.22322602      -0.05376479
C        1.08618859       0.75732228       0.19476964
C       -0.13315989       0.07386446       0.76838038
O       -1.20313088       1.00390332       1.09727111
C       -2.25732999       0.38929034       0.45806675
C       -1.85653886       0.11621662      -0.96208462
C       -0.99907386      -0.80516592      -0.12835224
H        1.93519043      -0.99498587      -0.77069311
H        2.52906229      -0.72102063       0.87006170
H        3.10038149       0.28798530      -0.45538157
H        0.81947270       1.27000022      -0.73282233
H        1.39737105       1.53381977       0.89851371
H        0.13671650      -0.44435699       1.69471321
H       -2.09764611      -1.09302678       0.73090150
H       -2.63655536      -0.37884578      -1.53285573
H       -1.42527333       0.94722252      -1.50982482
H       -0.62052197      -1.71899683      -0.56689880
17
Frame=11 idx=011069 GeodesicLength=0.5674032572642141 rxn_smarts="[C:1]([C:2]([C@@:3]1([H:13])[O:4][C@@:5]2([H:14])[C:6]([H:15])([H:16])[C@@:7]12[H:17])([H:11])[H:12])([H:8])([H:9])[H:10]>>[C:1]([C:2]([C@@:3]1([H:13])[O+:4]=[C-:5][C:6]([H:15])([H:16])[C:7]1([H:14])[H:17])([H:11])[H:12])([H:8])([H:9])[H:10]"
C        2.22818179      -0.22392942      -0.05058105
C        1.08785162       0.75543805       0.19478196
C       -0.13127138       0.07169127       0.76781022
O       -1.19966967       1.00741196       1.09604375
C       -2.25199884       0.39637725       0.45866676
C       -1.86096715       0.11657659      -0.96106975
C       -1.00001572      -0.80577144      -0.12777147
H        1.93988866      -0.99815468      -0.76535588
H        2.53286861      -0.71853696       0.87479842
H        3.10303725       0.28773867      -0.45315852
H        0.82198945       1.26580872      -0.73441729
H        1.39735933       1.53397752       0.89702574
H        0.13762995      -0.44498995       1.69510468
H       -2.11299919      -1.10444795       0.73137529
H       -2.64731895      -0.37840895      -1.52343028
H       -1.43699459       0.94523768      -1.51832099
H       -0.60757116      -1.70601837      -0.58150160
17
Frame=12 idx=011069 GeodesicLength=0.6189450486714582 rxn_smarts="[C:1]([C:2]([C@@:3]1([H:13])[O:4][C@@:5]2([H:14])[C:6]([H:15])([H:16])[C@@:7]12[H:17])([H:11])[H:12])([H:8])([H:9])[H:10]>>[C:1]([C:2]([C@@:3]1([H:13])[O+:4]=[C-:5][C:6]([H:15])([H:16])[C:7]1([H:14])[H:17])([H:11])[H:12])([H:8])([H:9])[H:10]"
C        2.23154127      -0.22462428      -0.04740545
C        1.08956211       0.75355873       0.19480501
C       -0.12934338       0.06952583       0.76722790
O       -1.19615754       1.01092558       1.09475827
C       -2.24658558       0.40339144       0.45919331
C       -1.86534993       0.11689606      -0.96004321
C       -1.00088789      -0.80643003      -0.12719493
H        1.94459582      -1.00128662      -0.76002977
H        2.53668292      -0.71606082       0.87950498
H        3.10572163       0.28748805      -0.45093619
H        0.82455047       1.26161928      -0.73598798
H        1.39740611       1.53411706       0.89555047
H        0.13857181      -0.44559360       1.69548969
H       -2.12861623      -1.11602133       0.73166232
H       -2.65795318      -0.37799705      -1.51393157
H       -1.44890537       0.94316729      -1.52677234
H       -0.59483304      -1.69267559      -0.59589050
17
Frame=13 idx=011069 GeodesicLength=0.6705024386043614 rxn_smarts="[C:1]([C:2]([C@@:3]1([H:13])[O:4][C@@:5]2([H:14])[C:6]([H:15])([H:16])[C@@:7]12[H:17])([H:11])[H:12])([H:8])([H:9])[H:10]>>[C:1]([C:2]([C@@:3]1([H:13])[O+:4]=[C-:5][C:6]([H:15])([H:16])[C:7]1([H:14])[H:17])([H:11])[H:12])([H:8])([H:9])[H:10]"
C        2.23494576      -0.22531459      -0.04422303
C        1.09132274       0.75168517       0.19482408
C       -0.12737612       0.06736311       0.76662761
O       -1.19259849       1.01444572       1.09342789
C       -2.24109822       0.41033208       0.45966824
C       -1.86970378       0.11719184      -0.95900181
C       -1.00168887      -0.80714052      -0.12663979
H        1.94934338      -1.00442651      -0.75466636
H        2.54053056      -0.71356016       0.88422165
H        3.10845134       0.28722499      -0.44872836
H        0.82716613       1.25741663      -0.73756776
H        1.39749607       1.53426166       0.89406303
H        0.13953917      -0.44618722       1.69586351
H       -2.14450299      -1.12777642       0.73175473
H       -2.66848138      -0.37759244      -1.50434803
H       -1.46103702       0.94104493      -1.53517163
H       -0.58230829      -1.67896828      -0.61010399
17
Frame=14 idx=011069 GeodesicLength=0.7220573432274237 rxn_smarts="[C:1]([C:2]([C@@:3]1([H:13])[O:4][C@@:5]2([H:14])[C:6]([H:15])([H:16])[C@@:7]12[H:17])([H:11])[H:12])([H:8])([H:9])[H:10]>>[C:1]([C:2]([C@@:3]1([H:13])[O+:4]=[C-:5][C:6]([H:15])([H:16])[C:7]1([H:14])[H:17])([H:11])[H:12])([H:8])([H:9])[H:10]"
C        2.23838479      -0.22599678      -0.04104817
C        1.09313431       0.74982299       0.19485256
C       -0.12536887       0.06520973       0.76601765
O       -1.18899487       1.01797490       1.09204859
C       -2.23553379       0.41720434       0.46007498
C       -1.87401297       0.11745905      -0.95795309
C       -1.00241214      -0.80789882      -0.12610058
H        1.95410561      -1.00755336      -0.74929198
H        2.54440866      -0.71104698       0.88892150
H        3.11121245       0.28695394      -0.44655096
H        0.82983409       1.25322488      -0.73913101
H        1.39764265       1.53440199       0.89258696
H        0.14053378      -0.44676059       1.69623419
H       -2.16066744      -1.13971438       0.73163861
H       -2.67888109      -0.37719851      -1.49469843
H       -1.47336590       0.93885716      -1.54352082
H       -0.57001927      -1.66493957      -0.62408002
17
Frame=15 idx=011069 GeodesicLength=0.7736120161234925 rxn_smarts="[C:1]([C:2]([C@@:3]1([H:13])[O:4][C@@:5]2([H:14])[C:6]([H:15])([H:16])[C@@:7]12[H:17])([H:11])[H:12])([H:8])([H:9])[H:10]>>[C:1]([C:2]([C@@:3]1([H:13])[O+:4]=[C-:5][C:6]([H:15])([H:16])[C:7]1([H:14])[H:17])([H:11])[H:12])([H:8])([H:9])[H:10]"
C        2.24186989      -0.22667187      -0.03786364
C        1.09500134       0.74796768       0.19487684
C       -0.12331681       0.06306419       0.76538626
O       -1.18533746       1.02150943       1.09061877
C       -2.22989016       0.42400262       0.46042660
C       -1.87829540       0.11770789      -0.95688918
C       -1.00305606      -0.80869450      -0.12559483
H        1.95890154      -1.01068794      -0.74386802
H        2.54832727      -0.70849500       0.89363437
H        3.11401774       0.28666962      -0.44438816
H        0.83256237       1.24901947      -0.74070061
H        1.39784178       1.53454587       0.89109645
H        0.14155969      -0.44731917       1.69658572
H       -2.17710644      -1.15185472       0.73129422
H       -2.68917958      -0.37680448      -1.48496044
H       -1.48592753       0.93661996      -1.55180489
H       -0.55797218      -1.65057903      -0.63784948
17
Frame=16 idx=011069 GeodesicLength=0.825160950876273 rxn_smarts="[C:1]([C:2]([C@@:3]1([H:13])[O:4][C@@:5]2([H:14])[C:6]([H:15])([H:16])[C@@:7]12[H:17])([H:11])[H:12])([H:8])([H:9])[H:10]>>[C:1]([C:2]([C@@:3]1([H:13])[O+:4]=[C-:5][C:6]([H:15])([H:16])[C:7]1([H:14])[H:17])([H:11])[H:12])([H:8])([H:9])[H:10]"
C        2.24538436      -0.22733786      -0.03469815
C        1.09692501       0.74613263       0.19491609
C       -0.12122228       0.06094218       0.76474913
O       -1.18163622       1.02506627       1.08913120
C       -2.22416727       0.43074250       0.46070014
C       -1.88252765       0.11792374      -0.95582191
C       -1.00361202      -0.80952657      -0.12510307
H        1.96370244      -1.01377371      -0.73848095
H        2.55225160      -0.70597270       0.89830224
H        3.11686497       0.28638084      -0.44223008
H        0.83534851       1.24484548      -0.74224096
H        1.39811096       1.53468239       0.88963264
H        0.14261050      -0.44783676       1.69694187
H       -2.19383328      -1.16419110       0.73072249
H       -2.69934112      -0.37643621      -1.47515385
H       -1.49868469       0.93430390      -1.56004034
H       -0.54617380      -1.63594502      -0.65132650
